MODEL 1
REMARK VINA RESULT: -9.816095460      0.000      0.000
REMARK  18 active torsions:
REMARK  status: ('A' for Active; 'I' for Inactive)
REMARK    1  A    between atoms: O1_2  and  C2_3 
REMARK    2  A    between atoms: C2_3  and  C3_5 
REMARK    3  A    between atoms: C3_5  and  O3_6 
REMARK    4  A    between atoms: C4_9  and  N1_10 
REMARK    5  A    between atoms: C6_15  and  C7_16 
REMARK       I    between atoms: C7_16  and  N3_18 
REMARK    6  A    between atoms: N3_18  and  C8_19 
REMARK    7  A    between atoms: C8_19  and  C9_20 
REMARK    8  A    between atoms: C9_20  and  O7_21 
REMARK    9  A    between atoms: C9_20  and  N4_23 
REMARK   10  A    between atoms: N4_23  and  C10_24 
REMARK   11  A    between atoms: C10_24  and  C11_25 
REMARK   12  A    between atoms: C11_25  and  N5_26 
REMARK   13  A    between atoms: C12_27  and  N6_28 
REMARK   14  A    between atoms: C17_37  and  N8_38 
REMARK   15  A    between atoms: C18_43  and  S1_44 
REMARK   16  A    between atoms: S1_44  and  C19_45 
REMARK   17  A    between atoms: C22_51  and  O11_52 
REMARK   18  A    between atoms: C23_54  and  O12_55 
ROOT
HETATM    1  N1  UNL     1      -7.969   7.369  26.986  1.00  0.00    -0.256 N 
HETATM    2  C5  UNL     1      -8.388   8.620  26.766  1.00  0.00     0.331 A 
HETATM    3  O5  UNL     1      -7.674   9.594  27.087  1.00  0.00    -0.246 OA
HETATM    4  N2  UNL     1      -9.593   8.898  26.192  1.00  0.00    -0.302 N 
ATOM      5  H2  UNL     1      -9.855   9.874  26.051  1.00  0.00     0.171 HD
HETATM    6  C6  UNL     1     -10.437   7.958  25.811  1.00  0.00     0.137 A 
HETATM    7  C16 UNL     1     -10.062   6.619  26.010  1.00  0.00     0.086 A 
HETATM    8  C17 UNL     1     -10.894   5.596  25.629  1.00  0.00     0.117 A 
HETATM    9  N9  UNL     1     -10.448   4.312  25.855  1.00  0.00    -0.322 N 
ATOM     10  H9  UNL     1     -11.039   3.525  25.585  1.00  0.00     0.169 HD
HETATM   11  C18 UNL     1      -9.279   4.075  26.408  1.00  0.00     0.154 A 
HETATM   12  N10 UNL     1      -8.468   5.081  26.784  1.00  0.00    -0.321 N 
ATOM     13  H10 UNL     1      -7.568   4.870  27.216  1.00  0.00     0.169 HD
HETATM   14  C20 UNL     1      -8.834   6.361  26.594  1.00  0.00     0.132 A 
ENDROOT
BRANCH   6  15
HETATM   15  C7  UNL     1     -11.779   8.225  25.245  1.00  0.00     0.343 C 
HETATM   16  O6  UNL     1     -11.862   8.330  24.021  1.00  0.00    -0.249 OA
HETATM   17  N3  UNL     1     -12.884   8.318  26.183  1.00  0.00    -0.372 NA
BRANCH  17  18
HETATM   18  C8  UNL     1     -13.897   8.404  26.979  1.00  0.00     0.258 C 
BRANCH  18  19
HETATM   19  C9  UNL     1     -13.954   9.316  28.185  1.00  0.00     0.242 C 
BRANCH  19  20
HETATM   20  O7  UNL     1     -13.034   8.998  29.047  1.00  0.00    -0.334 OA
ATOM     21  H7  UNL     1     -13.396   8.953  29.924  1.00  0.00     0.220 HD
ENDBRANCH  19  20
BRANCH  19  22
HETATM   22  N4  UNL     1     -14.821  10.347  28.408  1.00  0.00    -0.394 NA
BRANCH  22  23
HETATM   23  C10 UNL     1     -15.697  11.387  28.633  1.00  0.00     0.178 C 
BRANCH  23  24
HETATM   24  C11 UNL     1     -15.956  11.804  30.075  1.00  0.00     0.191 C 
BRANCH  24  25
HETATM   25  N5  UNL     1     -17.346  11.907  30.424  1.00  0.00    -0.311 N 
HETATM   26  C12 UNL     1     -17.938  12.716  31.352  1.00  0.00     0.193 A 
HETATM   27  C13 UNL     1     -19.318  12.462  31.336  1.00  0.00     0.144 A 
HETATM   28  N7  UNL     1     -19.553  11.529  30.429  1.00  0.00    -0.352 N 
HETATM   29  C14 UNL     1     -18.367  11.197  29.884  1.00  0.00     0.081 A 
ATOM     30  H7  UNL     1     -20.462  11.135  30.186  1.00  0.00     0.166 HD
HETATM   31  C15 UNL     1     -18.290  10.118  28.842  1.00  0.00     0.089 C 
BRANCH  26  32
HETATM   32  N6  UNL     1     -17.270  13.608  32.213  1.00  0.00    -0.096 N 
HETATM   33  O8  UNL     1     -16.373  13.128  32.987  1.00  0.00    -0.530 OA
HETATM   34  O9  UNL     1     -17.471  14.941  32.337  1.00  0.00    -0.530 OA
ENDBRANCH  26  32
ENDBRANCH  24  25
ENDBRANCH  23  24
ENDBRANCH  22  23
ENDBRANCH  19  22
ENDBRANCH  18  19
ENDBRANCH  17  18
ENDBRANCH   6  15
BRANCH   8  35
HETATM   35  N8  UNL     1     -12.060   5.739  25.099  1.00  0.00    -0.385 N 
ATOM     36  H82 UNL     1     -12.805   5.122  25.420  1.00  0.00     0.157 HD
ATOM     37  H81 UNL     1     -12.306   6.433  24.392  1.00  0.00     0.157 HD
ENDBRANCH   8  35
BRANCH   1  38
HETATM   38  C4  UNL     1      -6.728   7.004  27.610  1.00  0.00     0.241 C 
HETATM   39  O4  UNL     1      -6.041   6.099  26.785  1.00  0.00    -0.319 OA
HETATM   40  C3  UNL     1      -4.941   5.518  27.401  1.00  0.00     0.284 C 
HETATM   41  C23 UNL     1      -4.513   6.221  28.650  1.00  0.00     0.220 C 
HETATM   42  C22 UNL     1      -4.449   7.692  28.407  1.00  0.00     0.157 C 
HETATM   43  C21 UNL     1      -5.755   8.160  27.782  1.00  0.00     0.089 C 
BRANCH  40  44
HETATM   44  C2  UNL     1      -3.799   5.506  26.451  1.00  0.00     0.324 C 
HETATM   45  O2  UNL     1      -3.182   6.509  26.041  1.00  0.00    -0.259 OA
BRANCH  44  46
HETATM   46  O1  UNL     1      -3.354   4.274  25.958  1.00  0.00    -0.322 OA
HETATM   47  C1  UNL     1      -3.259   4.023  24.561  1.00  0.00     0.213 C 
ENDBRANCH  44  46
ENDBRANCH  40  44
BRANCH  40  48
HETATM   48  O3  UNL     1      -5.173   4.168  27.761  1.00  0.00    -0.355 OA
ATOM     49  H3  UNL     1      -5.732   3.803  27.084  1.00  0.00     0.213 HD
ENDBRANCH  40  48
BRANCH  41  50
HETATM   50  O12 UNL     1      -3.217   5.709  28.942  1.00  0.00    -0.387 OA
ATOM     51  H12 UNL     1      -2.782   6.395  29.435  1.00  0.00     0.210 HD
ENDBRANCH  41  50
BRANCH  42  52
HETATM   52  O11 UNL     1      -4.218   8.316  29.649  1.00  0.00    -0.393 OA
ATOM     53  H11 UNL     1      -4.400   7.728  30.373  1.00  0.00     0.210 HD
ENDBRANCH  42  52
ENDBRANCH   1  38
BRANCH  11  54
HETATM   54  S1  UNL     1      -8.686   2.386  26.648  1.00  0.00    -0.025 SA
BRANCH  54  55
HETATM   55  C19 UNL     1      -7.033   2.363  25.937  1.00  0.00     0.312 C 
HETATM   56  O10 UNL     1      -6.603   3.231  25.198  1.00  0.00    -0.295 OA
ENDBRANCH  54  55
ENDBRANCH  11  54
TORSDOF 18
ENDMDL
MODEL 2
REMARK VINA RESULT: -9.416587738      5.139     10.655
REMARK  18 active torsions:
REMARK  status: ('A' for Active; 'I' for Inactive)
REMARK    1  A    between atoms: O1_2  and  C2_3 
REMARK    2  A    between atoms: C2_3  and  C3_5 
REMARK    3  A    between atoms: C3_5  and  O3_6 
REMARK    4  A    between atoms: C4_9  and  N1_10 
REMARK    5  A    between atoms: C6_15  and  C7_16 
REMARK       I    between atoms: C7_16  and  N3_18 
REMARK    6  A    between atoms: N3_18  and  C8_19 
REMARK    7  A    between atoms: C8_19  and  C9_20 
REMARK    8  A    between atoms: C9_20  and  O7_21 
REMARK    9  A    between atoms: C9_20  and  N4_23 
REMARK   10  A    between atoms: N4_23  and  C10_24 
REMARK   11  A    between atoms: C10_24  and  C11_25 
REMARK   12  A    between atoms: C11_25  and  N5_26 
REMARK   13  A    between atoms: C12_27  and  N6_28 
REMARK   14  A    between atoms: C17_37  and  N8_38 
REMARK   15  A    between atoms: C18_43  and  S1_44 
REMARK   16  A    between atoms: S1_44  and  C19_45 
REMARK   17  A    between atoms: C22_51  and  O11_52 
REMARK   18  A    between atoms: C23_54  and  O12_55 
ROOT
HETATM    1  N1  UNL     1      -7.388   7.153  27.005  1.00  0.00    -0.256 N 
HETATM    2  C5  UNL     1      -7.061   8.395  27.379  1.00  0.00     0.331 A 
HETATM    3  O5  UNL     1      -7.787   9.363  27.067  1.00  0.00    -0.246 OA
HETATM    4  N2  UNL     1      -5.941   8.669  28.106  1.00  0.00    -0.302 N 
ATOM      5  H2  UNL     1      -5.748   9.638  28.360  1.00  0.00     0.171 HD
HETATM    6  C6  UNL     1      -5.095   7.734  28.496  1.00  0.00     0.137 A 
HETATM    7  C16 UNL     1      -5.376   6.405  28.139  1.00  0.00     0.086 A 
HETATM    8  C17 UNL     1      -4.537   5.387  28.519  1.00  0.00     0.117 A 
HETATM    9  N9  UNL     1      -4.888   4.112  28.133  1.00  0.00    -0.322 N 
ATOM     10  H9  UNL     1      -4.289   3.330  28.397  1.00  0.00     0.169 HD
HETATM   11  C18 UNL     1      -5.976   3.878  27.434  1.00  0.00     0.154 A 
HETATM   12  N10 UNL     1      -6.794   4.879  27.059  1.00  0.00    -0.321 N 
ATOM     13  H10 UNL     1      -7.630   4.671  26.512  1.00  0.00     0.169 HD
HETATM   14  C20 UNL     1      -6.518   6.150  27.400  1.00  0.00     0.132 A 
ENDROOT
BRANCH   6  15
HETATM   15  C7  UNL     1      -3.837   8.005  29.229  1.00  0.00     0.343 C 
HETATM   16  O6  UNL     1      -2.851   8.308  28.558  1.00  0.00    -0.249 OA
HETATM   17  N3  UNL     1      -3.885   7.912  30.678  1.00  0.00    -0.372 NA
BRANCH  17  18
HETATM   18  C8  UNL     1      -3.881   7.846  31.967  1.00  0.00     0.258 C 
BRANCH  18  19
HETATM   19  C9  UNL     1      -3.648   6.573  32.751  1.00  0.00     0.242 C 
BRANCH  19  20
HETATM   20  O7  UNL     1      -4.275   6.613  33.890  1.00  0.00    -0.334 OA
ATOM     21  H7  UNL     1      -4.006   5.892  34.447  1.00  0.00     0.220 HD
ENDBRANCH  19  20
BRANCH  19  22
HETATM   22  N4  UNL     1      -2.900   5.493  32.381  1.00  0.00    -0.394 NA
BRANCH  22  23
HETATM   23  C10 UNL     1      -2.144   4.402  32.009  1.00  0.00     0.178 C 
BRANCH  23  24
HETATM   24  C11 UNL     1      -2.539   3.038  32.558  1.00  0.00     0.191 C 
BRANCH  24  25
HETATM   25  N5  UNL     1      -3.736   2.489  31.984  1.00  0.00    -0.311 N 
HETATM   26  C12 UNL     1      -3.894   1.835  30.795  1.00  0.00     0.193 A 
HETATM   27  C13 UNL     1      -5.248   1.487  30.664  1.00  0.00     0.144 A 
HETATM   28  N7  UNL     1      -5.887   1.917  31.739  1.00  0.00    -0.352 N 
HETATM   29  C14 UNL     1      -4.977   2.520  32.528  1.00  0.00     0.081 A 
ATOM     30  H7  UNL     1      -6.883   1.812  31.933  1.00  0.00     0.166 HD
HETATM   31  C15 UNL     1      -5.403   3.162  33.817  1.00  0.00     0.089 C 
BRANCH  26  32
HETATM   32  N6  UNL     1      -2.883   1.602  29.843  1.00  0.00    -0.096 N 
HETATM   33  O8  UNL     1      -2.590   2.553  29.041  1.00  0.00    -0.530 OA
HETATM   34  O9  UNL     1      -2.173   0.465  29.656  1.00  0.00    -0.530 OA
ENDBRANCH  26  32
ENDBRANCH  24  25
ENDBRANCH  23  24
ENDBRANCH  22  23
ENDBRANCH  19  22
ENDBRANCH  18  19
ENDBRANCH  17  18
ENDBRANCH   6  15
BRANCH   8  35
HETATM   35  N8  UNL     1      -3.444   5.531  29.187  1.00  0.00    -0.385 N 
ATOM     36  H82 UNL     1      -3.484   5.389  30.196  1.00  0.00     0.157 HD
ATOM     37  H81 UNL     1      -2.533   5.760  28.788  1.00  0.00     0.157 HD
ENDBRANCH   8  35
BRANCH   1  38
HETATM   38  C4  UNL     1      -8.534   6.795  26.215  1.00  0.00     0.241 C 
HETATM   39  O4  UNL     1      -9.679   6.804  27.028  1.00  0.00    -0.319 OA
HETATM   40  C3  UNL     1     -10.796   6.255  26.412  1.00  0.00     0.284 C 
HETATM   41  C23 UNL     1     -10.649   6.104  24.931  1.00  0.00     0.220 C 
HETATM   42  C22 UNL     1     -10.107   7.365  24.344  1.00  0.00     0.157 C 
HETATM   43  C21 UNL     1      -8.860   7.784  25.108  1.00  0.00     0.089 C 
BRANCH  40  44
HETATM   44  C2  UNL     1     -11.976   7.117  26.685  1.00  0.00     0.324 C 
HETATM   45  O2  UNL     1     -11.945   8.340  26.922  1.00  0.00    -0.259 OA
BRANCH  44  46
HETATM   46  O1  UNL     1     -13.246   6.529  26.678  1.00  0.00    -0.322 OA
HETATM   47  C1  UNL     1     -14.425   7.309  26.518  1.00  0.00     0.213 C 
ENDBRANCH  44  46
ENDBRANCH  40  44
BRANCH  40  48
HETATM   48  O3  UNL     1     -11.116   4.971  26.916  1.00  0.00    -0.355 OA
ATOM     49  H3  UNL     1     -10.291   4.508  27.010  1.00  0.00     0.213 HD
ENDBRANCH  40  48
BRANCH  41  50
HETATM   50  O12 UNL     1     -11.966   5.858  24.448  1.00  0.00    -0.387 OA
ATOM     51  H12 UNL     1     -11.973   4.941  24.199  1.00  0.00     0.210 HD
ENDBRANCH  41  50
BRANCH  42  52
HETATM   52  O11 UNL     1      -9.822   7.112  22.988  1.00  0.00    -0.393 OA
ATOM     53  H11 UNL     1      -9.923   7.894  22.459  1.00  0.00     0.210 HD
ENDBRANCH  42  52
ENDBRANCH   1  38
BRANCH  11  54
HETATM   54  S1  UNL     1      -6.450   2.196  26.982  1.00  0.00    -0.025 SA
BRANCH  54  55
HETATM   55  C19 UNL     1      -8.245   2.230  26.855  1.00  0.00     0.312 C 
HETATM   56  O10 UNL     1      -8.862   3.082  26.239  1.00  0.00    -0.295 OA
ENDBRANCH  54  55
ENDBRANCH  11  54
TORSDOF 18
ENDMDL
MODEL 3
REMARK VINA RESULT: -9.358909659      6.114      9.999
REMARK  18 active torsions:
REMARK  status: ('A' for Active; 'I' for Inactive)
REMARK    1  A    between atoms: O1_2  and  C2_3 
REMARK    2  A    between atoms: C2_3  and  C3_5 
REMARK    3  A    between atoms: C3_5  and  O3_6 
REMARK    4  A    between atoms: C4_9  and  N1_10 
REMARK    5  A    between atoms: C6_15  and  C7_16 
REMARK       I    between atoms: C7_16  and  N3_18 
REMARK    6  A    between atoms: N3_18  and  C8_19 
REMARK    7  A    between atoms: C8_19  and  C9_20 
REMARK    8  A    between atoms: C9_20  and  O7_21 
REMARK    9  A    between atoms: C9_20  and  N4_23 
REMARK   10  A    between atoms: N4_23  and  C10_24 
REMARK   11  A    between atoms: C10_24  and  C11_25 
REMARK   12  A    between atoms: C11_25  and  N5_26 
REMARK   13  A    between atoms: C12_27  and  N6_28 
REMARK   14  A    between atoms: C17_37  and  N8_38 
REMARK   15  A    between atoms: C18_43  and  S1_44 
REMARK   16  A    between atoms: S1_44  and  C19_45 
REMARK   17  A    between atoms: C22_51  and  O11_52 
REMARK   18  A    between atoms: C23_54  and  O12_55 
ROOT
HETATM    1  N1  UNL     1      -2.230   7.478  20.959  1.00  0.00    -0.256 N 
HETATM    2  C5  UNL     1      -1.315   7.135  21.873  1.00  0.00     0.331 A 
HETATM    3  O5  UNL     1      -0.130   7.511  21.757  1.00  0.00    -0.246 OA
HETATM    4  N2  UNL     1      -1.619   6.372  22.961  1.00  0.00    -0.302 N 
ATOM      5  H2  UNL     1      -0.876   6.146  23.623  1.00  0.00     0.171 HD
HETATM    6  C6  UNL     1      -2.834   5.913  23.196  1.00  0.00     0.137 A 
HETATM    7  C16 UNL     1      -3.846   6.235  22.276  1.00  0.00     0.086 A 
HETATM    8  C17 UNL     1      -5.131   5.792  22.468  1.00  0.00     0.117 A 
HETATM    9  N9  UNL     1      -6.065   6.157  21.523  1.00  0.00    -0.322 N 
ATOM     10  H9  UNL     1      -7.030   5.846  21.631  1.00  0.00     0.169 HD
HETATM   11  C18 UNL     1      -5.742   6.896  20.485  1.00  0.00     0.154 A 
HETATM   12  N10 UNL     1      -4.481   7.325  20.298  1.00  0.00    -0.321 N 
ATOM     13  H10 UNL     1      -4.255   7.894  19.481  1.00  0.00     0.169 HD
HETATM   14  C20 UNL     1      -3.514   7.011  21.179  1.00  0.00     0.132 A 
ENDROOT
BRANCH   6  15
HETATM   15  C7  UNL     1      -3.184   5.029  24.331  1.00  0.00     0.343 C 
HETATM   16  O6  UNL     1      -3.029   3.818  24.167  1.00  0.00    -0.249 OA
HETATM   17  N3  UNL     1      -3.656   5.669  25.546  1.00  0.00    -0.372 NA
BRANCH  17  18
HETATM   18  C8  UNL     1      -4.075   6.195  26.648  1.00  0.00     0.258 C 
BRANCH  18  19
HETATM   19  C9  UNL     1      -5.443   6.817  26.825  1.00  0.00     0.242 C 
BRANCH  19  20
HETATM   20  O7  UNL     1      -5.342   8.096  27.043  1.00  0.00    -0.334 OA
ATOM     21  H7  UNL     1      -5.367   8.281  27.975  1.00  0.00     0.220 HD
ENDBRANCH  19  20
BRANCH  19  22
HETATM   22  N4  UNL     1      -6.655   6.191  26.777  1.00  0.00    -0.394 NA
BRANCH  22  23
HETATM   23  C10 UNL     1      -7.878   5.559  26.731  1.00  0.00     0.178 C 
BRANCH  23  24
HETATM   24  C11 UNL     1      -8.487   5.279  25.363  1.00  0.00     0.191 C 
BRANCH  24  25
HETATM   25  N5  UNL     1      -9.616   6.105  25.034  1.00  0.00    -0.311 N 
HETATM   26  C12 UNL     1      -9.654   7.243  24.279  1.00  0.00     0.193 A 
HETATM   27  C13 UNL     1     -10.981   7.697  24.240  1.00  0.00     0.144 A 
HETATM   28  N7  UNL     1     -11.722   6.862  24.948  1.00  0.00    -0.352 N 
HETATM   29  C14 UNL     1     -10.899   5.908  25.425  1.00  0.00     0.081 A 
ATOM     30  H7  UNL     1     -12.727   6.927  25.104  1.00  0.00     0.166 HD
HETATM   31  C15 UNL     1     -11.435   4.825  26.317  1.00  0.00     0.089 C 
BRANCH  26  32
HETATM   32  N6  UNL     1      -8.543   7.878  23.691  1.00  0.00    -0.096 N 
HETATM   33  O8  UNL     1      -8.454   7.865  22.417  1.00  0.00    -0.530 OA
HETATM   34  O9  UNL     1      -7.524   8.507  24.323  1.00  0.00    -0.530 OA
ENDBRANCH  26  32
ENDBRANCH  24  25
ENDBRANCH  23  24
ENDBRANCH  22  23
ENDBRANCH  19  22
ENDBRANCH  18  19
ENDBRANCH  17  18
ENDBRANCH   6  15
BRANCH   8  35
HETATM   35  N8  UNL     1      -5.528   5.050  23.445  1.00  0.00    -0.385 N 
ATOM     36  H82 UNL     1      -5.211   5.294  24.383  1.00  0.00     0.157 HD
ATOM     37  H81 UNL     1      -6.148   4.245  23.361  1.00  0.00     0.157 HD
ENDBRANCH   8  35
BRANCH   1  38
HETATM   38  C4  UNL     1      -1.975   8.253  19.776  1.00  0.00     0.241 C 
HETATM   39  O4  UNL     1      -2.180   7.451  18.642  1.00  0.00    -0.319 OA
HETATM   40  C3  UNL     1      -1.744   8.042  17.464  1.00  0.00     0.284 C 
HETATM   41  C23 UNL     1      -1.487   9.511  17.590  1.00  0.00     0.220 C 
HETATM   42  C22 UNL     1      -2.630  10.168  18.290  1.00  0.00     0.157 C 
HETATM   43  C21 UNL     1      -2.931   9.420  19.581  1.00  0.00     0.089 C 
BRANCH  40  44
HETATM   44  C2  UNL     1      -2.765   7.831  16.405  1.00  0.00     0.324 C 
HETATM   45  O2  UNL     1      -3.992   8.009  16.530  1.00  0.00    -0.259 OA
BRANCH  44  46
HETATM   46  O1  UNL     1      -2.337   7.396  15.145  1.00  0.00    -0.322 OA
HETATM   47  C1  UNL     1      -3.024   7.773  13.957  1.00  0.00     0.213 C 
ENDBRANCH  44  46
ENDBRANCH  40  44
BRANCH  40  48
HETATM   48  O3  UNL     1      -0.544   7.466  16.981  1.00  0.00    -0.355 OA
ATOM     49  H3  UNL     1      -0.239   8.032  16.281  1.00  0.00     0.213 HD
ENDBRANCH  40  48
BRANCH  41  50
HETATM   50  O12 UNL     1      -1.383   9.989  16.253  1.00  0.00    -0.387 OA
ATOM     51  H12 UNL     1      -0.475   9.853  16.009  1.00  0.00     0.210 HD
ENDBRANCH  41  50
BRANCH  42  52
HETATM   52  O11 UNL     1      -2.261  11.504  18.540  1.00  0.00    -0.393 OA
ATOM     53  H11 UNL     1      -2.502  12.073  17.819  1.00  0.00     0.210 HD
ENDBRANCH  42  52
ENDBRANCH   1  38
BRANCH  11  54
HETATM   54  S1  UNL     1      -6.988   7.411  19.283  1.00  0.00    -0.025 SA
BRANCH  54  55
HETATM   55  C19 UNL     1      -7.670   5.881  18.627  1.00  0.00     0.312 C 
HETATM   56  O10 UNL     1      -8.085   4.973  19.324  1.00  0.00    -0.295 OA
ENDBRANCH  54  55
ENDBRANCH  11  54
TORSDOF 18
ENDMDL
MODEL 4
REMARK VINA RESULT: -9.350670002      6.454     12.392
REMARK  18 active torsions:
REMARK  status: ('A' for Active; 'I' for Inactive)
REMARK    1  A    between atoms: O1_2  and  C2_3 
REMARK    2  A    between atoms: C2_3  and  C3_5 
REMARK    3  A    between atoms: C3_5  and  O3_6 
REMARK    4  A    between atoms: C4_9  and  N1_10 
REMARK    5  A    between atoms: C6_15  and  C7_16 
REMARK       I    between atoms: C7_16  and  N3_18 
REMARK    6  A    between atoms: N3_18  and  C8_19 
REMARK    7  A    between atoms: C8_19  and  C9_20 
REMARK    8  A    between atoms: C9_20  and  O7_21 
REMARK    9  A    between atoms: C9_20  and  N4_23 
REMARK   10  A    between atoms: N4_23  and  C10_24 
REMARK   11  A    between atoms: C10_24  and  C11_25 
REMARK   12  A    between atoms: C11_25  and  N5_26 
REMARK   13  A    between atoms: C12_27  and  N6_28 
REMARK   14  A    between atoms: C17_37  and  N8_38 
REMARK   15  A    between atoms: C18_43  and  S1_44 
REMARK   16  A    between atoms: S1_44  and  C19_45 
REMARK   17  A    between atoms: C22_51  and  O11_52 
REMARK   18  A    between atoms: C23_54  and  O12_55 
ROOT
HETATM    1  N1  UNL     1      -6.906   7.126  22.942  1.00  0.00    -0.256 N 
HETATM    2  C5  UNL     1      -6.673   7.329  21.640  1.00  0.00     0.331 A 
HETATM    3  O5  UNL     1      -7.521   7.905  20.927  1.00  0.00    -0.246 OA
HETATM    4  N2  UNL     1      -5.521   6.927  21.032  1.00  0.00    -0.302 N 
ATOM      5  H2  UNL     1      -5.404   7.112  20.036  1.00  0.00     0.171 HD
HETATM    6  C6  UNL     1      -4.551   6.309  21.678  1.00  0.00     0.137 A 
HETATM    7  C16 UNL     1      -4.727   6.063  23.049  1.00  0.00     0.086 A 
HETATM    8  C17 UNL     1      -3.750   5.428  23.776  1.00  0.00     0.117 A 
HETATM    9  N9  UNL     1      -4.000   5.231  25.117  1.00  0.00    -0.322 N 
ATOM     10  H9  UNL     1      -3.298   4.763  25.690  1.00  0.00     0.169 HD
HETATM   11  C18 UNL     1      -5.120   5.632  25.676  1.00  0.00     0.154 A 
HETATM   12  N10 UNL     1      -6.076   6.251  24.959  1.00  0.00    -0.321 N 
ATOM     13  H10 UNL     1      -6.938   6.547  25.416  1.00  0.00     0.169 HD
HETATM   14  C20 UNL     1      -5.904   6.480  23.645  1.00  0.00     0.132 A 
ENDROOT
BRANCH   6  15
HETATM   15  C7  UNL     1      -3.317   5.801  21.034  1.00  0.00     0.343 C 
HETATM   16  O6  UNL     1      -3.381   4.700  20.487  1.00  0.00    -0.249 OA
HETATM   17  N3  UNL     1      -2.145   6.658  21.086  1.00  0.00    -0.372 NA
BRANCH  17  18
HETATM   18  C8  UNL     1      -1.081   7.387  21.102  1.00  0.00     0.258 C 
BRANCH  18  19
HETATM   19  C9  UNL     1      -0.013   7.356  20.030  1.00  0.00     0.242 C 
BRANCH  19  20
HETATM   20  O7  UNL     1       1.091   6.847  20.494  1.00  0.00    -0.334 OA
ATOM     21  H7  UNL     1       1.354   6.092  19.981  1.00  0.00     0.220 HD
ENDBRANCH  19  20
BRANCH  19  22
HETATM   22  N4  UNL     1      -0.118   7.784  18.738  1.00  0.00    -0.394 NA
BRANCH  22  23
HETATM   23  C10 UNL     1      -0.225   8.216  17.434  1.00  0.00     0.178 C 
BRANCH  23  24
HETATM   24  C11 UNL     1      -1.620   8.347  16.836  1.00  0.00     0.191 C 
BRANCH  24  25
HETATM   25  N5  UNL     1      -2.226   9.637  17.019  1.00  0.00    -0.311 N 
HETATM   26  C12 UNL     1      -3.205  10.007  17.899  1.00  0.00     0.193 A 
HETATM   27  C13 UNL     1      -3.472  11.371  17.706  1.00  0.00     0.144 A 
HETATM   28  N7  UNL     1      -2.682  11.812  16.742  1.00  0.00    -0.352 N 
HETATM   29  C14 UNL     1      -1.937  10.768  16.330  1.00  0.00     0.081 A 
ATOM     30  H7  UNL     1      -2.644  12.764  16.377  1.00  0.00     0.166 HD
HETATM   31  C15 UNL     1      -0.963  10.935  15.199  1.00  0.00     0.089 C 
BRANCH  26  32
HETATM   32  N6  UNL     1      -3.867   9.152  18.801  1.00  0.00    -0.096 N 
HETATM   33  O8  UNL     1      -3.789   9.425  20.047  1.00  0.00    -0.530 OA
HETATM   34  O9  UNL     1      -4.583   8.041  18.509  1.00  0.00    -0.530 OA
ENDBRANCH  26  32
ENDBRANCH  24  25
ENDBRANCH  23  24
ENDBRANCH  22  23
ENDBRANCH  19  22
ENDBRANCH  18  19
ENDBRANCH  17  18
ENDBRANCH   6  15
BRANCH   8  35
HETATM   35  N8  UNL     1      -2.635   4.987  23.304  1.00  0.00    -0.385 N 
ATOM     36  H82 UNL     1      -1.815   5.588  23.387  1.00  0.00     0.157 HD
ATOM     37  H81 UNL     1      -2.498   4.076  22.866  1.00  0.00     0.157 HD
ENDBRANCH   8  35
BRANCH   1  38
HETATM   38  C4  UNL     1      -8.106   7.497  23.641  1.00  0.00     0.241 C 
HETATM   39  O4  UNL     1      -8.949   6.379  23.740  1.00  0.00    -0.319 OA
HETATM   40  C3  UNL     1     -10.223   6.689  24.199  1.00  0.00     0.284 C 
HETATM   41  C23 UNL     1     -10.321   8.047  24.819  1.00  0.00     0.220 C 
HETATM   42  C22 UNL     1      -9.193   8.252  25.774  1.00  0.00     0.157 C 
HETATM   43  C21 UNL     1      -7.878   7.917  25.085  1.00  0.00     0.089 C 
BRANCH  40  44
HETATM   44  C2  UNL     1     -10.638   5.679  25.206  1.00  0.00     0.324 C 
HETATM   45  O2  UNL     1     -11.714   5.049  25.205  1.00  0.00    -0.259 OA
BRANCH  44  46
HETATM   46  O1  UNL     1      -9.764   5.389  26.260  1.00  0.00    -0.322 OA
HETATM   47  C1  UNL     1      -9.048   4.161  26.314  1.00  0.00     0.213 C 
ENDBRANCH  44  46
ENDBRANCH  40  44
BRANCH  40  48
HETATM   48  O3  UNL     1     -11.193   6.648  23.169  1.00  0.00    -0.355 OA
ATOM     49  H3  UNL     1     -12.038   6.736  23.595  1.00  0.00     0.213 HD
ENDBRANCH  40  48
BRANCH  41  50
HETATM   50  O12 UNL     1     -11.566   8.053  25.511  1.00  0.00    -0.387 OA
ATOM     51  H12 UNL     1     -12.211   8.312  24.864  1.00  0.00     0.210 HD
ENDBRANCH  41  50
BRANCH  42  52
HETATM   52  O11 UNL     1      -9.231   9.597  26.190  1.00  0.00    -0.393 OA
ATOM     53  H11 UNL     1      -8.527   9.793  26.798  1.00  0.00     0.210 HD
ENDBRANCH  42  52
ENDBRANCH   1  38
BRANCH  11  54
HETATM   54  S1  UNL     1      -5.408   5.415  27.446  1.00  0.00    -0.025 SA
BRANCH  54  55
HETATM   55  C19 UNL     1      -5.427   7.080  28.128  1.00  0.00     0.312 C 
HETATM   56  O10 UNL     1      -5.189   8.080  27.474  1.00  0.00    -0.295 OA
ENDBRANCH  54  55
ENDBRANCH  11  54
TORSDOF 18
ENDMDL
MODEL 5
REMARK VINA RESULT: -9.325470675      6.090      9.899
REMARK  18 active torsions:
REMARK  status: ('A' for Active; 'I' for Inactive)
REMARK    1  A    between atoms: O1_2  and  C2_3 
REMARK    2  A    between atoms: C2_3  and  C3_5 
REMARK    3  A    between atoms: C3_5  and  O3_6 
REMARK    4  A    between atoms: C4_9  and  N1_10 
REMARK    5  A    between atoms: C6_15  and  C7_16 
REMARK       I    between atoms: C7_16  and  N3_18 
REMARK    6  A    between atoms: N3_18  and  C8_19 
REMARK    7  A    between atoms: C8_19  and  C9_20 
REMARK    8  A    between atoms: C9_20  and  O7_21 
REMARK    9  A    between atoms: C9_20  and  N4_23 
REMARK   10  A    between atoms: N4_23  and  C10_24 
REMARK   11  A    between atoms: C10_24  and  C11_25 
REMARK   12  A    between atoms: C11_25  and  N5_26 
REMARK   13  A    between atoms: C12_27  and  N6_28 
REMARK   14  A    between atoms: C17_37  and  N8_38 
REMARK   15  A    between atoms: C18_43  and  S1_44 
REMARK   16  A    between atoms: S1_44  and  C19_45 
REMARK   17  A    between atoms: C22_51  and  O11_52 
REMARK   18  A    between atoms: C23_54  and  O12_55 
ROOT
HETATM    1  N1  UNL     1      -5.321   6.341  21.281  1.00  0.00    -0.256 N 
HETATM    2  C5  UNL     1      -6.172   5.757  22.132  1.00  0.00     0.331 A 
HETATM    3  O5  UNL     1      -7.396   5.726  21.884  1.00  0.00    -0.246 OA
HETATM    4  N2  UNL     1      -5.759   5.175  23.294  1.00  0.00    -0.302 N 
ATOM      5  H2  UNL     1      -6.458   4.745  23.900  1.00  0.00     0.171 HD
HETATM    6  C6  UNL     1      -4.494   5.143  23.667  1.00  0.00     0.137 A 
HETATM    7  C16 UNL     1      -3.545   5.738  22.821  1.00  0.00     0.086 A 
HETATM    8  C17 UNL     1      -2.212   5.732  23.152  1.00  0.00     0.117 A 
HETATM    9  N9  UNL     1      -1.346   6.332  22.263  1.00  0.00    -0.322 N 
ATOM     10  H9  UNL     1      -0.348   6.348  22.475  1.00  0.00     0.169 HD
HETATM   11  C18 UNL     1      -1.773   6.883  21.149  1.00  0.00     0.154 A 
HETATM   12  N10 UNL     1      -3.080   6.890  20.830  1.00  0.00    -0.321 N 
ATOM     13  H10 UNL     1      -3.386   7.329  19.962  1.00  0.00     0.169 HD
HETATM   14  C20 UNL     1      -3.986   6.323  21.646  1.00  0.00     0.132 A 
ENDROOT
BRANCH   6  15
HETATM   15  C7  UNL     1      -4.021   4.577  24.952  1.00  0.00     0.343 C 
HETATM   16  O6  UNL     1      -3.682   3.394  24.953  1.00  0.00    -0.249 OA
HETATM   17  N3  UNL     1      -3.977   5.476  26.092  1.00  0.00    -0.372 NA
BRANCH  17  18
HETATM   18  C8  UNL     1      -3.916   6.239  27.131  1.00  0.00     0.258 C 
BRANCH  18  19
HETATM   19  C9  UNL     1      -4.913   7.334  27.440  1.00  0.00     0.242 C 
BRANCH  19  20
HETATM   20  O7  UNL     1      -4.457   8.123  28.368  1.00  0.00    -0.334 OA
ATOM     21  H7  UNL     1      -3.516   8.026  28.460  1.00  0.00     0.220 HD
ENDBRANCH  19  20
BRANCH  19  22
HETATM   22  N4  UNL     1      -6.137   7.531  26.868  1.00  0.00    -0.394 NA
BRANCH  22  23
HETATM   23  C10 UNL     1      -7.373   7.728  26.291  1.00  0.00     0.178 C 
BRANCH  23  24
HETATM   24  C11 UNL     1      -7.866   6.696  25.286  1.00  0.00     0.191 C 
BRANCH  24  25
HETATM   25  N5  UNL     1      -9.048   5.986  25.693  1.00  0.00    -0.311 N 
HETATM   26  C12 UNL     1     -10.311   6.061  25.178  1.00  0.00     0.193 A 
HETATM   27  C13 UNL     1     -11.130   5.182  25.903  1.00  0.00     0.144 A 
HETATM   28  N7  UNL     1     -10.387   4.595  26.826  1.00  0.00    -0.352 N 
HETATM   29  C14 UNL     1      -9.137   5.082  26.698  1.00  0.00     0.081 A 
ATOM     30  H7  UNL     1     -10.701   3.904  27.507  1.00  0.00     0.166 HD
HETATM   31  C15 UNL     1      -8.056   4.643  27.643  1.00  0.00     0.089 C 
BRANCH  26  32
HETATM   32  N6  UNL     1     -10.728   6.915  24.139  1.00  0.00    -0.096 N 
HETATM   33  O8  UNL     1     -11.049   6.382  23.023  1.00  0.00    -0.530 OA
HETATM   34  O9  UNL     1     -10.821   8.265  24.169  1.00  0.00    -0.530 OA
ENDBRANCH  26  32
ENDBRANCH  24  25
ENDBRANCH  23  24
ENDBRANCH  22  23
ENDBRANCH  19  22
ENDBRANCH  18  19
ENDBRANCH  17  18
ENDBRANCH   6  15
BRANCH   8  35
HETATM   35  N8  UNL     1      -1.712   5.232  24.229  1.00  0.00    -0.385 N 
ATOM     36  H82 UNL     1      -2.182   5.440  25.110  1.00  0.00     0.157 HD
ATOM     37  H81 UNL     1      -0.891   4.628  24.275  1.00  0.00     0.157 HD
ENDBRANCH   8  35
BRANCH   1  38
HETATM   38  C4  UNL     1      -5.688   6.998  20.056  1.00  0.00     0.241 C 
HETATM   39  O4  UNL     1      -5.800   6.043  19.033  1.00  0.00    -0.319 OA
HETATM   40  C3  UNL     1      -5.929   6.603  17.769  1.00  0.00     0.284 C 
HETATM   41  C23 UNL     1      -6.277   8.058  17.791  1.00  0.00     0.220 C 
HETATM   42  C22 UNL     1      -7.394   8.298  18.751  1.00  0.00     0.157 C 
HETATM   43  C21 UNL     1      -7.055   7.663  20.092  1.00  0.00     0.089 C 
BRANCH  40  44
HETATM   44  C2  UNL     1      -6.987   5.876  17.019  1.00  0.00     0.324 C 
HETATM   45  O2  UNL     1      -6.899   5.473  15.843  1.00  0.00    -0.259 OA
BRANCH  44  46
HETATM   46  O1  UNL     1      -8.198   5.607  17.667  1.00  0.00    -0.322 OA
HETATM   47  C1  UNL     1      -8.396   4.404  18.401  1.00  0.00     0.213 C 
ENDBRANCH  44  46
ENDBRANCH  40  44
BRANCH  40  48
HETATM   48  O3  UNL     1      -4.746   6.486  17.001  1.00  0.00    -0.355 OA
ATOM     49  H3  UNL     1      -4.040   6.814  17.547  1.00  0.00     0.213 HD
ENDBRANCH  40  48
BRANCH  41  50
HETATM   50  O12 UNL     1      -6.690   8.365  16.463  1.00  0.00    -0.387 OA
ATOM     51  H12 UNL     1      -6.068   9.012  16.152  1.00  0.00     0.210 HD
ENDBRANCH  41  50
BRANCH  42  52
HETATM   52  O11 UNL     1      -7.560   9.692  18.867  1.00  0.00    -0.393 OA
ATOM     53  H11 UNL     1      -6.867  10.163  18.421  1.00  0.00     0.210 HD
ENDBRANCH  42  52
ENDBRANCH   1  38
BRANCH  11  54
HETATM   54  S1  UNL     1      -0.619   7.617  19.970  1.00  0.00    -0.025 SA
BRANCH  54  55
HETATM   55  C19 UNL     1      -1.371   7.364  18.355  1.00  0.00     0.312 C 
HETATM   56  O10 UNL     1      -2.009   6.369  18.056  1.00  0.00    -0.295 OA
ENDBRANCH  54  55
ENDBRANCH  11  54
TORSDOF 18
ENDMDL
