MODEL 1
REMARK VINA RESULT: -7.498086048      0.000      0.000
REMARK  8 active torsions:
REMARK  status: ('A' for Active; 'I' for Inactive)
REMARK    1  A    between atoms: O1_2  and  C2_3 
REMARK    2  A    between atoms: C2_3  and  C3_4 
REMARK    3  A    between atoms: C3_4  and  O2_5 
REMARK    4  A    between atoms: C3_4  and  O3_7 
REMARK    5  A    between atoms: O3_7  and  C4_8 
REMARK    6  A    between atoms: C8_12  and  C9_13 
REMARK    7  A    between atoms: C19_26  and  O7_27 
REMARK    8  A    between atoms: C21_29  and  O8_30 
ROOT
HETATM    1  C4  UNL     1      71.557  -2.478  50.427  1.00  0.00     0.114 A 
HETATM    2  C5  UNL     1      70.925  -3.152  51.447  1.00  0.00    -0.025 A 
HETATM    3  C6  UNL     1      70.672  -2.502  52.759  1.00  0.00     0.051 C 
HETATM    4  C7  UNL     1      70.506  -4.486  51.310  1.00  0.00     0.022 A 
HETATM    5  C8  UNL     1      70.703  -5.191  50.159  1.00  0.00     0.009 A 
HETATM    6  C19 UNL     1      71.341  -4.517  49.129  1.00  0.00     0.113 A 
HETATM    7  C21 UNL     1      71.755  -3.205  49.255  1.00  0.00     0.136 A 
ENDROOT
BRANCH   5   8
HETATM    8  C9  UNL     1      70.294  -6.613  49.965  1.00  0.00     0.183 C 
HETATM    9  O4  UNL     1      71.444  -7.461  50.151  1.00  0.00    -0.307 OA
HETATM   10  C10 UNL     1      71.763  -8.041  51.370  1.00  0.00     0.283 C 
HETATM   11  O5  UNL     1      72.946  -8.463  51.607  1.00  0.00    -0.260 OA
HETATM   12  C11 UNL     1      70.705  -8.148  52.359  1.00  0.00     0.086 C 
HETATM   13  C12 UNL     1      69.514  -7.704  52.080  1.00  0.00    -0.060 C 
HETATM   14  C13 UNL     1      68.396  -7.791  53.048  1.00  0.00     0.040 C 
HETATM   15  C18 UNL     1      69.137  -7.054  50.768  1.00  0.00     0.118 C 
HETATM   16  C14 UNL     1      67.189  -8.335  52.304  1.00  0.00    -0.008 C 
HETATM   17  C15 UNL     1      66.442  -9.353  53.130  1.00  0.00     0.010 C 
HETATM   18  C16 UNL     1      67.562  -9.011  50.995  1.00  0.00     0.083 C 
HETATM   19  C17 UNL     1      68.336  -8.128  50.088  1.00  0.00     0.138 C 
HETATM   20  O6  UNL     1      68.303  -8.285  48.910  1.00  0.00    -0.297 OA
ENDBRANCH   5   8
BRANCH   6  21
HETATM   21  O7  UNL     1      71.550  -5.234  47.942  1.00  0.00    -0.352 OA
HETATM   22  C20 UNL     1      70.638  -5.043  46.879  1.00  0.00     0.210 C 
ENDBRANCH   6  21
BRANCH   7  23
HETATM   23  O8  UNL     1      72.380  -2.596  48.192  1.00  0.00    -0.351 OA
HETATM   24  C22 UNL     1      73.776  -2.634  47.954  1.00  0.00     0.210 C 
ENDBRANCH   7  23
BRANCH   1  25
HETATM   25  O3  UNL     1      71.970  -1.168  50.554  1.00  0.00    -0.315 OA
BRANCH  25  26
HETATM   26  C3  UNL     1      71.505  -0.014  49.969  1.00  0.00     0.287 C 
BRANCH  26  27
HETATM   27  C2  UNL     1      71.091   0.973  51.072  1.00  0.00     0.228 C 
BRANCH  27  28
HETATM   28  O1  UNL     1      69.721   0.892  51.191  1.00  0.00    -0.391 OA
HETATM   29  C1  UNL     1      69.076   1.553  50.164  1.00  0.00     0.201 C 
ENDBRANCH  27  28
ENDBRANCH  26  27
BRANCH  26  30
HETATM   30  O2  UNL     1      72.650   0.562  49.326  1.00  0.00    -0.369 OA
ATOM     31  H2  UNL     1      72.313   1.120  48.635  1.00  0.00     0.212 HD
ENDBRANCH  26  30
ENDBRANCH  25  26
ENDBRANCH   1  25
TORSDOF 8
ENDMDL
MODEL 2
REMARK VINA RESULT: -7.297156742      3.983      8.046
REMARK  8 active torsions:
REMARK  status: ('A' for Active; 'I' for Inactive)
REMARK    1  A    between atoms: O1_2  and  C2_3 
REMARK    2  A    between atoms: C2_3  and  C3_4 
REMARK    3  A    between atoms: C3_4  and  O2_5 
REMARK    4  A    between atoms: C3_4  and  O3_7 
REMARK    5  A    between atoms: O3_7  and  C4_8 
REMARK    6  A    between atoms: C8_12  and  C9_13 
REMARK    7  A    between atoms: C19_26  and  O7_27 
REMARK    8  A    between atoms: C21_29  and  O8_30 
ROOT
HETATM    1  C4  UNL     1      73.707 -10.641  49.466  1.00  0.00     0.114 A 
HETATM    2  C5  UNL     1      72.751 -10.676  50.454  1.00  0.00    -0.025 A 
HETATM    3  C6  UNL     1      72.460 -11.927  51.200  1.00  0.00     0.051 C 
HETATM    4  C7  UNL     1      71.990  -9.544  50.794  1.00  0.00     0.022 A 
HETATM    5  C8  UNL     1      72.155  -8.346  50.162  1.00  0.00     0.009 A 
HETATM    6  C19 UNL     1      73.116  -8.307  49.165  1.00  0.00     0.113 A 
HETATM    7  C21 UNL     1      73.870  -9.414  48.825  1.00  0.00     0.136 A 
ENDROOT
BRANCH   5   8
HETATM    8  C9  UNL     1      71.364  -7.119  50.471  1.00  0.00     0.183 C 
HETATM    9  O4  UNL     1      70.965  -6.495  49.235  1.00  0.00    -0.307 OA
HETATM   10  C10 UNL     1      69.749  -6.751  48.621  1.00  0.00     0.283 C 
HETATM   11  O5  UNL     1      69.573  -6.496  47.380  1.00  0.00    -0.260 OA
HETATM   12  C11 UNL     1      68.691  -7.319  49.438  1.00  0.00     0.086 C 
HETATM   13  C12 UNL     1      68.910  -7.567  50.696  1.00  0.00    -0.060 C 
HETATM   14  C13 UNL     1      67.867  -8.140  51.578  1.00  0.00     0.040 C 
HETATM   15  C18 UNL     1      70.227  -7.313  51.393  1.00  0.00     0.118 C 
HETATM   16  C14 UNL     1      67.851  -7.322  52.857  1.00  0.00    -0.008 C 
HETATM   17  C15 UNL     1      66.441  -7.050  53.322  1.00  0.00     0.010 C 
HETATM   18  C16 UNL     1      68.537  -5.975  52.702  1.00  0.00     0.083 C 
HETATM   19  C17 UNL     1      69.933  -6.091  52.216  1.00  0.00     0.138 C 
HETATM   20  O6  UNL     1      70.741  -5.258  52.476  1.00  0.00    -0.297 OA
ENDBRANCH   5   8
BRANCH   6  21
HETATM   21  O7  UNL     1      73.292  -7.079  48.509  1.00  0.00    -0.352 OA
HETATM   22  C20 UNL     1      74.426  -6.304  48.839  1.00  0.00     0.210 C 
ENDBRANCH   6  21
BRANCH   7  23
HETATM   23  O8  UNL     1      74.809  -9.303  47.827  1.00  0.00    -0.351 OA
HETATM   24  C22 UNL     1      74.519  -9.374  46.443  1.00  0.00     0.210 C 
ENDBRANCH   7  23
BRANCH   1  25
HETATM   25  O3  UNL     1      74.459 -11.747  49.128  1.00  0.00    -0.315 OA
BRANCH  25  26
HETATM   26  C3  UNL     1      74.398 -12.580  48.036  1.00  0.00     0.287 C 
BRANCH  26  27
HETATM   27  C2  UNL     1      75.793 -13.177  47.785  1.00  0.00     0.228 C 
BRANCH  27  28
HETATM   28  O1  UNL     1      75.605 -14.460  47.322  1.00  0.00    -0.391 OA
HETATM   29  C1  UNL     1      76.798 -15.064  46.978  1.00  0.00     0.201 C 
ENDBRANCH  27  28
ENDBRANCH  26  27
BRANCH  26  30
HETATM   30  O2  UNL     1      73.565 -13.671  48.448  1.00  0.00    -0.369 OA
ATOM     31  H2  UNL     1      73.126 -13.981  47.665  1.00  0.00     0.212 HD
ENDBRANCH  26  30
ENDBRANCH  25  26
ENDBRANCH   1  25
TORSDOF 8
ENDMDL
MODEL 3
REMARK VINA RESULT: -7.290693743      0.804      1.135
REMARK  8 active torsions:
REMARK  status: ('A' for Active; 'I' for Inactive)
REMARK    1  A    between atoms: O1_2  and  C2_3 
REMARK    2  A    between atoms: C2_3  and  C3_4 
REMARK    3  A    between atoms: C3_4  and  O2_5 
REMARK    4  A    between atoms: C3_4  and  O3_7 
REMARK    5  A    between atoms: O3_7  and  C4_8 
REMARK    6  A    between atoms: C8_12  and  C9_13 
REMARK    7  A    between atoms: C19_26  and  O7_27 
REMARK    8  A    between atoms: C21_29  and  O8_30 
ROOT
HETATM    1  C4  UNL     1      71.563  -2.548  50.560  1.00  0.00     0.114 A 
HETATM    2  C5  UNL     1      70.945  -3.246  51.572  1.00  0.00    -0.025 A 
HETATM    3  C6  UNL     1      70.718  -2.630  52.904  1.00  0.00     0.051 C 
HETATM    4  C7  UNL     1      70.516  -4.574  51.407  1.00  0.00     0.022 A 
HETATM    5  C8  UNL     1      70.690  -5.249  50.234  1.00  0.00     0.009 A 
HETATM    6  C19 UNL     1      71.314  -4.550  49.212  1.00  0.00     0.113 A 
HETATM    7  C21 UNL     1      71.738  -3.244  49.365  1.00  0.00     0.136 A 
ENDROOT
BRANCH   5   8
HETATM    8  C9  UNL     1      70.270  -6.663  50.009  1.00  0.00     0.183 C 
HETATM    9  O4  UNL     1      71.415  -7.523  50.167  1.00  0.00    -0.307 OA
HETATM   10  C10 UNL     1      71.738  -8.134  51.369  1.00  0.00     0.283 C 
HETATM   11  O5  UNL     1      72.921  -8.569  51.588  1.00  0.00    -0.260 OA
HETATM   12  C11 UNL     1      70.687  -8.257  52.363  1.00  0.00     0.086 C 
HETATM   13  C12 UNL     1      69.497  -7.798  52.104  1.00  0.00    -0.060 C 
HETATM   14  C13 UNL     1      68.385  -7.901  53.077  1.00  0.00     0.040 C 
HETATM   15  C18 UNL     1      69.115  -7.115  50.810  1.00  0.00     0.118 C 
HETATM   16  C14 UNL     1      67.170  -8.419  52.329  1.00  0.00    -0.008 C 
HETATM   17  C15 UNL     1      66.421  -9.452  53.137  1.00  0.00     0.010 C 
HETATM   18  C16 UNL     1      67.528  -9.066  51.001  1.00  0.00     0.083 C 
HETATM   19  C17 UNL     1      68.302  -8.167  50.111  1.00  0.00     0.138 C 
HETATM   20  O6  UNL     1      68.260  -8.295  48.930  1.00  0.00    -0.297 OA
ENDBRANCH   5   8
BRANCH   6  21
HETATM   21  O7  UNL     1      71.498  -5.236  48.002  1.00  0.00    -0.352 OA
HETATM   22  C20 UNL     1      70.525  -5.076  46.990  1.00  0.00     0.210 C 
ENDBRANCH   6  21
BRANCH   7  23
HETATM   23  O8  UNL     1      72.348  -2.611  48.308  1.00  0.00    -0.351 OA
HETATM   24  C22 UNL     1      73.740  -2.640  48.052  1.00  0.00     0.210 C 
ENDBRANCH   7  23
BRANCH   1  25
HETATM   25  O3  UNL     1      71.986  -1.244  50.715  1.00  0.00    -0.315 OA
BRANCH  25  26
HETATM   26  C3  UNL     1      71.399  -0.056  50.348  1.00  0.00     0.287 C 
BRANCH  26  27
HETATM   27  C2  UNL     1      71.753   1.017  51.391  1.00  0.00     0.228 C 
BRANCH  27  28
HETATM   28  O1  UNL     1      72.650   0.447  52.267  1.00  0.00    -0.391 OA
HETATM   29  C1  UNL     1      73.751   1.255  52.475  1.00  0.00     0.201 C 
ENDBRANCH  27  28
ENDBRANCH  26  27
BRANCH  26  30
HETATM   30  O2  UNL     1      72.065   0.327  49.138  1.00  0.00    -0.369 OA
ATOM     31  H2  UNL     1      72.974   0.477  49.371  1.00  0.00     0.212 HD
ENDBRANCH  26  30
ENDBRANCH  25  26
ENDBRANCH   1  25
TORSDOF 8
ENDMDL
MODEL 4
REMARK VINA RESULT: -7.221079608      4.206      8.290
REMARK  8 active torsions:
REMARK  status: ('A' for Active; 'I' for Inactive)
REMARK    1  A    between atoms: O1_2  and  C2_3 
REMARK    2  A    between atoms: C2_3  and  C3_4 
REMARK    3  A    between atoms: C3_4  and  O2_5 
REMARK    4  A    between atoms: C3_4  and  O3_7 
REMARK    5  A    between atoms: O3_7  and  C4_8 
REMARK    6  A    between atoms: C8_12  and  C9_13 
REMARK    7  A    between atoms: C19_26  and  O7_27 
REMARK    8  A    between atoms: C21_29  and  O8_30 
ROOT
HETATM    1  C4  UNL     1      73.798 -10.592  48.777  1.00  0.00     0.114 A 
HETATM    2  C5  UNL     1      72.875 -10.375  49.774  1.00  0.00    -0.025 A 
HETATM    3  C6  UNL     1      72.631 -11.390  50.831  1.00  0.00     0.051 C 
HETATM    4  C7  UNL     1      72.106  -9.201  49.834  1.00  0.00     0.022 A 
HETATM    5  C8  UNL     1      72.229  -8.208  48.906  1.00  0.00     0.009 A 
HETATM    6  C19 UNL     1      73.156  -8.423  47.899  1.00  0.00     0.113 A 
HETATM    7  C21 UNL     1      73.918  -9.574  47.833  1.00  0.00     0.136 A 
ENDROOT
BRANCH   5   8
HETATM    8  C9  UNL     1      71.427  -6.950  48.912  1.00  0.00     0.183 C 
HETATM    9  O4  UNL     1      70.282  -7.120  48.054  1.00  0.00    -0.307 OA
HETATM   10  C10 UNL     1      69.047  -7.545  48.521  1.00  0.00     0.283 C 
HETATM   11  O5  UNL     1      68.178  -8.040  47.724  1.00  0.00    -0.260 OA
HETATM   12  C11 UNL     1      68.784  -7.407  49.943  1.00  0.00     0.086 C 
HETATM   13  C12 UNL     1      69.696  -6.901  50.721  1.00  0.00    -0.060 C 
HETATM   14  C13 UNL     1      69.481  -6.732  52.177  1.00  0.00     0.040 C 
HETATM   15  C18 UNL     1      71.056  -6.441  50.247  1.00  0.00     0.118 C 
HETATM   16  C14 UNL     1      69.927  -5.327  52.544  1.00  0.00    -0.008 C 
HETATM   17  C15 UNL     1      68.968  -4.677  53.512  1.00  0.00     0.010 C 
HETATM   18  C16 UNL     1      70.033  -4.410  51.337  1.00  0.00     0.083 C 
HETATM   19  C17 UNL     1      70.927  -4.945  50.282  1.00  0.00     0.138 C 
HETATM   20  O6  UNL     1      71.489  -4.214  49.531  1.00  0.00    -0.297 OA
ENDBRANCH   5   8
BRANCH   6  21
HETATM   21  O7  UNL     1      73.289  -7.408  46.939  1.00  0.00    -0.352 OA
HETATM   22  C20 UNL     1      74.236  -6.386  47.176  1.00  0.00     0.210 C 
ENDBRANCH   6  21
BRANCH   7  23
HETATM   23  O8  UNL     1      74.822  -9.720  46.807  1.00  0.00    -0.351 OA
HETATM   24  C22 UNL     1      76.209  -9.459  46.919  1.00  0.00     0.210 C 
ENDBRANCH   7  23
BRANCH   1  25
HETATM   25  O3  UNL     1      74.558 -11.742  48.713  1.00  0.00    -0.315 OA
BRANCH  25  26
HETATM   26  C3  UNL     1      74.503 -12.812  47.852  1.00  0.00     0.287 C 
BRANCH  26  27
HETATM   27  C2  UNL     1      75.899 -13.451  47.762  1.00  0.00     0.228 C 
BRANCH  27  28
HETATM   28  O1  UNL     1      75.716 -14.766  47.395  1.00  0.00    -0.391 OA
HETATM   29  C1  UNL     1      76.906 -15.370  47.037  1.00  0.00     0.201 C 
ENDBRANCH  27  28
ENDBRANCH  26  27
BRANCH  26  30
HETATM   30  O2  UNL     1      73.666 -13.773  48.510  1.00  0.00    -0.369 OA
ATOM     31  H2  UNL     1      72.848 -13.327  48.698  1.00  0.00     0.212 HD
ENDBRANCH  26  30
ENDBRANCH  25  26
ENDBRANCH   1  25
TORSDOF 8
ENDMDL
MODEL 5
REMARK VINA RESULT: -7.199983652      4.226      8.533
REMARK  8 active torsions:
REMARK  status: ('A' for Active; 'I' for Inactive)
REMARK    1  A    between atoms: O1_2  and  C2_3 
REMARK    2  A    between atoms: C2_3  and  C3_4 
REMARK    3  A    between atoms: C3_4  and  O2_5 
REMARK    4  A    between atoms: C3_4  and  O3_7 
REMARK    5  A    between atoms: O3_7  and  C4_8 
REMARK    6  A    between atoms: C8_12  and  C9_13 
REMARK    7  A    between atoms: C19_26  and  O7_27 
REMARK    8  A    between atoms: C21_29  and  O8_30 
ROOT
HETATM    1  C4  UNL     1      73.494 -11.154  48.550  1.00  0.00     0.114 A 
HETATM    2  C5  UNL     1      72.446 -10.556  47.889  1.00  0.00    -0.025 A 
HETATM    3  C6  UNL     1      71.958 -11.079  46.587  1.00  0.00     0.051 C 
HETATM    4  C7  UNL     1      71.799  -9.416  48.396  1.00  0.00     0.022 A 
HETATM    5  C8  UNL     1      72.174  -8.836  49.572  1.00  0.00     0.009 A 
HETATM    6  C19 UNL     1      73.231  -9.434  50.241  1.00  0.00     0.113 A 
HETATM    7  C21 UNL     1      73.872 -10.555  49.750  1.00  0.00     0.136 A 
ENDROOT
BRANCH   5   8
HETATM    8  C9  UNL     1      71.535  -7.617  50.148  1.00  0.00     0.183 C 
HETATM    9  O4  UNL     1      71.238  -6.695  49.081  1.00  0.00    -0.307 OA
HETATM   10  C10 UNL     1      70.011  -6.658  48.437  1.00  0.00     0.283 C 
HETATM   11  O5  UNL     1      69.890  -6.120  47.283  1.00  0.00    -0.260 OA
HETATM   12  C11 UNL     1      68.876  -7.254  49.120  1.00  0.00     0.086 C 
HETATM   13  C12 UNL     1      69.041  -7.795  50.292  1.00  0.00    -0.060 C 
HETATM   14  C13 UNL     1      67.920  -8.412  51.038  1.00  0.00     0.040 C 
HETATM   15  C18 UNL     1      70.367  -7.864  51.016  1.00  0.00     0.118 C 
HETATM   16  C14 UNL     1      67.981  -7.896  52.464  1.00  0.00    -0.008 C 
HETATM   17  C15 UNL     1      66.607  -7.559  52.990  1.00  0.00     0.010 C 
HETATM   18  C16 UNL     1      68.830  -6.643  52.600  1.00  0.00     0.083 C 
HETATM   19  C17 UNL     1      70.210  -6.822  52.087  1.00  0.00     0.138 C 
HETATM   20  O6  UNL     1      71.109  -6.172  52.515  1.00  0.00    -0.297 OA
ENDBRANCH   5   8
BRANCH   6  21
HETATM   21  O7  UNL     1      73.625  -8.843  51.451  1.00  0.00    -0.352 OA
HETATM   22  C20 UNL     1      73.249  -9.478  52.656  1.00  0.00     0.210 C 
ENDBRANCH   6  21
BRANCH   7  23
HETATM   23  O8  UNL     1      74.912 -11.099  50.468  1.00  0.00    -0.351 OA
HETATM   24  C22 UNL     1      76.265 -10.701  50.342  1.00  0.00     0.210 C 
ENDBRANCH   7  23
BRANCH   1  25
HETATM   25  O3  UNL     1      74.132 -12.274  48.059  1.00  0.00    -0.315 OA
BRANCH  25  26
HETATM   26  C3  UNL     1      75.214 -12.402  47.221  1.00  0.00     0.287 C 
BRANCH  26  27
HETATM   27  C2  UNL     1      76.155 -13.480  47.781  1.00  0.00     0.228 C 
BRANCH  27  28
HETATM   28  O1  UNL     1      75.650 -14.699  47.388  1.00  0.00    -0.391 OA
HETATM   29  C1  UNL     1      76.653 -15.601  47.091  1.00  0.00     0.201 C 
ENDBRANCH  27  28
ENDBRANCH  26  27
BRANCH  26  30
HETATM   30  O2  UNL     1      74.677 -12.933  46.003  1.00  0.00    -0.369 OA
ATOM     31  H2  UNL     1      73.815 -13.270  46.217  1.00  0.00     0.212 HD
ENDBRANCH  26  30
ENDBRANCH  25  26
ENDBRANCH   1  25
TORSDOF 8
ENDMDL
