MODEL 1
REMARK VINA RESULT: -8.161390014      0.000      0.000
REMARK  6 active torsions:
REMARK  status: ('A' for Active; 'I' for Inactive)
REMARK    1  A    between atoms: C5_6  and  N1_7 
REMARK    2  A    between atoms: N1_7  and  C6_8 
REMARK    3  A    between atoms: C6_8  and  C7_9 
REMARK    4  A    between atoms: C7_9  and  C8_10 
REMARK    5  A    between atoms: C8_10  and  O2_13 
REMARK    6  A    between atoms: C19_28  and  S1_29 
ROOT
HETATM    1  C1  UNL     1      73.029 -12.030  48.576  1.00  0.00     0.210 C 
HETATM    2  O1  UNL     1      72.912 -10.840  48.731  1.00  0.00    -0.354 OA
HETATM    3  C2  UNL     1      72.772  -9.509  48.917  1.00  0.00     0.090 A 
HETATM    4  C3  UNL     1      72.010  -9.080  50.007  1.00  0.00     0.055 A 
HETATM    5  C4  UNL     1      71.860  -7.735  50.215  1.00  0.00     0.036 A 
HETATM    6  C5  UNL     1      71.085  -7.376  51.343  1.00  0.00     0.147 A 
HETATM    7  C11 UNL     1      70.944  -5.984  51.557  1.00  0.00     0.101 A 
HETATM    8  N3  UNL     1      70.209  -5.634  52.638  1.00  0.00    -0.360 N 
ATOM      9  H3  UNL     1      69.791  -6.341  53.242  1.00  0.00     0.165 HD
HETATM   10  C12 UNL     1      70.045  -4.308  52.890  1.00  0.00     0.111 A 
HETATM   11  C13 UNL     1      70.615  -3.347  52.066  1.00  0.00     0.062 A 
HETATM   12  C14 UNL     1      70.438  -1.937  52.342  1.00  0.00     0.101 C 
HETATM   13  N4  UNL     1      70.314  -0.812  52.573  1.00  0.00    -0.191 NA
HETATM   14  C15 UNL     1      71.367  -3.709  50.961  1.00  0.00     0.056 A 
HETATM   15  C16 UNL     1      71.527  -5.078  50.714  1.00  0.00     0.064 A 
HETATM   16  N5  UNL     1      72.244  -5.511  49.669  1.00  0.00    -0.353 N 
ATOM     17  H5  UNL     1      72.668  -4.815  49.056  1.00  0.00     0.166 HD
HETATM   18  C17 UNL     1      72.435  -6.799  49.384  1.00  0.00     0.048 A 
HETATM   19  C18 UNL     1      73.191  -7.224  48.303  1.00  0.00     0.056 A 
HETATM   20  C19 UNL     1      73.346  -8.561  48.089  1.00  0.00     0.094 A 
ENDROOT
BRANCH  20  21
HETATM   21  S1  UNL     1      74.284  -9.153  46.748  1.00  0.00     0.174 S 
HETATM   22  C20 UNL     1      75.708 -10.039  47.313  1.00  0.00     0.167 C 
HETATM   23  O3  UNL     1      73.435 -10.104  45.955  1.00  0.00    -0.223 OA
HETATM   24  O4  UNL     1      74.663  -8.023  45.820  1.00  0.00    -0.223 OA
ENDBRANCH  20  21
BRANCH   6  25
HETATM   25  N1  UNL     1      70.609  -8.207  52.029  1.00  0.00    -0.419 NA
BRANCH  25  26
HETATM   26  C6  UNL     1      70.066  -9.150  52.811  1.00  0.00     0.159 C 
BRANCH  26  27
HETATM   27  C7  UNL     1      68.536  -9.106  52.958  1.00  0.00     0.106 C 
BRANCH  27  28
HETATM   28  C8  UNL     1      68.037  -8.120  51.926  1.00  0.00     0.232 C 
HETATM   29  C9  UNL     1      66.972  -7.329  52.590  1.00  0.00     0.091 C 
HETATM   30  N2  UNL     1      66.150  -6.695  53.099  1.00  0.00    -0.195 NA
BRANCH  28  31
HETATM   31  O2  UNL     1      67.521  -8.816  50.833  1.00  0.00    -0.376 OA
HETATM   32  C10 UNL     1      68.164  -8.374  49.693  1.00  0.00     0.203 C 
ENDBRANCH  28  31
ENDBRANCH  27  28
ENDBRANCH  26  27
ENDBRANCH  25  26
ENDBRANCH   6  25
TORSDOF 6
ENDMDL
MODEL 2
REMARK VINA RESULT: -8.111624550      4.524      7.727
REMARK  6 active torsions:
REMARK  status: ('A' for Active; 'I' for Inactive)
REMARK    1  A    between atoms: C5_6  and  N1_7 
REMARK    2  A    between atoms: N1_7  and  C6_8 
REMARK    3  A    between atoms: C6_8  and  C7_9 
REMARK    4  A    between atoms: C7_9  and  C8_10 
REMARK    5  A    between atoms: C8_10  and  O2_13 
REMARK    6  A    between atoms: C19_28  and  S1_29 
ROOT
HETATM    1  C1  UNL     1      73.962  -0.679  49.230  1.00  0.00     0.210 C 
HETATM    2  O1  UNL     1      73.151  -1.334  49.837  1.00  0.00    -0.354 OA
HETATM    3  C2  UNL     1      72.242  -2.077  50.505  1.00  0.00     0.090 A 
HETATM    4  C3  UNL     1      71.855  -3.295  49.940  1.00  0.00     0.055 A 
HETATM    5  C4  UNL     1      70.938  -4.066  50.604  1.00  0.00     0.036 A 
HETATM    6  C5  UNL     1      70.603  -5.289  49.977  1.00  0.00     0.147 A 
HETATM    7  C11 UNL     1      69.663  -6.084  50.676  1.00  0.00     0.101 A 
HETATM    8  N3  UNL     1      69.343  -7.259  50.085  1.00  0.00    -0.360 N 
ATOM      9  H3  UNL     1      69.760  -7.532  49.195  1.00  0.00     0.165 HD
HETATM   10  C12 UNL     1      68.446  -8.063  50.716  1.00  0.00     0.111 A 
HETATM   11  C13 UNL     1      67.880  -7.689  51.928  1.00  0.00     0.062 A 
HETATM   12  C14 UNL     1      66.927  -8.550  52.596  1.00  0.00     0.101 C 
HETATM   13  N4  UNL     1      66.182  -9.246  53.139  1.00  0.00    -0.191 NA
HETATM   14  C15 UNL     1      68.211  -6.487  52.530  1.00  0.00     0.056 A 
HETATM   15  C16 UNL     1      69.136  -5.670  51.868  1.00  0.00     0.064 A 
HETATM   16  N5  UNL     1      69.512  -4.494  52.386  1.00  0.00    -0.353 N 
ATOM     17  H5  UNL     1      69.104  -4.208  53.276  1.00  0.00     0.166 HD
HETATM   18  C17 UNL     1      70.390  -3.675  51.805  1.00  0.00     0.048 A 
HETATM   19  C18 UNL     1      70.773  -2.467  52.366  1.00  0.00     0.056 A 
HETATM   20  C19 UNL     1      71.686  -1.694  51.712  1.00  0.00     0.094 A 
ENDROOT
BRANCH  20  21
HETATM   21  S1  UNL     1      72.205  -0.168  52.369  1.00  0.00     0.174 S 
HETATM   22  C20 UNL     1      71.667   1.175  51.350  1.00  0.00     0.167 C 
HETATM   23  O3  UNL     1      71.582   0.004  53.724  1.00  0.00    -0.223 OA
HETATM   24  O4  UNL     1      73.702  -0.153  52.567  1.00  0.00    -0.223 OA
ENDBRANCH  20  21
BRANCH   6  25
HETATM   25  N1  UNL     1      71.094  -5.587  48.948  1.00  0.00    -0.419 NA
BRANCH  25  26
HETATM   26  C6  UNL     1      71.651  -5.928  47.779  1.00  0.00     0.159 C 
BRANCH  26  27
HETATM   27  C7  UNL     1      72.150  -4.767  46.905  1.00  0.00     0.106 C 
BRANCH  27  28
HETATM   28  C8  UNL     1      71.082  -4.527  45.862  1.00  0.00     0.232 C 
HETATM   29  C9  UNL     1      71.767  -4.580  44.547  1.00  0.00     0.091 C 
HETATM   30  N2  UNL     1      72.284  -4.632  43.515  1.00  0.00    -0.195 NA
BRANCH  28  31
HETATM   31  O2  UNL     1      70.509  -3.272  46.067  1.00  0.00    -0.376 OA
HETATM   32  C10 UNL     1      71.514  -2.384  46.400  1.00  0.00     0.203 C 
ENDBRANCH  28  31
ENDBRANCH  27  28
ENDBRANCH  26  27
ENDBRANCH  25  26
ENDBRANCH   6  25
TORSDOF 6
ENDMDL
MODEL 3
REMARK VINA RESULT: -8.051701939      0.983      1.252
REMARK  6 active torsions:
REMARK  status: ('A' for Active; 'I' for Inactive)
REMARK    1  A    between atoms: C5_6  and  N1_7 
REMARK    2  A    between atoms: N1_7  and  C6_8 
REMARK    3  A    between atoms: C6_8  and  C7_9 
REMARK    4  A    between atoms: C7_9  and  C8_10 
REMARK    5  A    between atoms: C8_10  and  O2_13 
REMARK    6  A    between atoms: C19_28  and  S1_29 
ROOT
HETATM    1  C1  UNL     1      72.803 -11.808  48.485  1.00  0.00     0.210 C 
HETATM    2  O1  UNL     1      72.747 -10.616  48.659  1.00  0.00    -0.354 OA
HETATM    3  C2  UNL     1      72.673  -9.283  48.866  1.00  0.00     0.090 A 
HETATM    4  C3  UNL     1      71.883  -8.831  49.927  1.00  0.00     0.055 A 
HETATM    5  C4  UNL     1      71.799  -7.483  50.156  1.00  0.00     0.036 A 
HETATM    6  C5  UNL     1      70.992  -7.102  51.252  1.00  0.00     0.147 A 
HETATM    7  C11 UNL     1      70.919  -5.708  51.489  1.00  0.00     0.101 A 
HETATM    8  N3  UNL     1      70.152  -5.337  52.541  1.00  0.00    -0.360 N 
ATOM      9  H3  UNL     1      69.666  -6.030  53.110  1.00  0.00     0.165 HD
HETATM   10  C12 UNL     1      70.051  -4.008  52.813  1.00  0.00     0.111 A 
HETATM   11  C13 UNL     1      70.713  -3.067  52.038  1.00  0.00     0.062 A 
HETATM   12  C14 UNL     1      70.603  -1.653  52.334  1.00  0.00     0.101 C 
HETATM   13  N4  UNL     1      70.531  -0.528  52.582  1.00  0.00    -0.191 NA
HETATM   14  C15 UNL     1      71.497  -3.451  50.962  1.00  0.00     0.056 A 
HETATM   15  C16 UNL     1      71.592  -4.822  50.694  1.00  0.00     0.064 A 
HETATM   16  N5  UNL     1      72.334  -5.276  49.676  1.00  0.00    -0.353 N 
ATOM     17  H5  UNL     1      72.826  -4.594  49.099  1.00  0.00     0.166 HD
HETATM   18  C17 UNL     1      72.466  -6.568  49.373  1.00  0.00     0.048 A 
HETATM   19  C18 UNL     1      73.248  -7.014  48.320  1.00  0.00     0.056 A 
HETATM   20  C19 UNL     1      73.339  -8.354  48.086  1.00  0.00     0.094 A 
ENDROOT
BRANCH  20  21
HETATM   21  S1  UNL     1      74.306  -8.974  46.779  1.00  0.00     0.174 S 
HETATM   22  C20 UNL     1      75.703  -9.870  47.395  1.00  0.00     0.167 C 
HETATM   23  O3  UNL     1      73.468  -9.926  45.975  1.00  0.00    -0.223 OA
HETATM   24  O4  UNL     1      74.724  -7.861  45.848  1.00  0.00    -0.223 OA
ENDBRANCH  20  21
BRANCH   6  25
HETATM   25  N1  UNL     1      70.436  -7.917  51.897  1.00  0.00    -0.419 NA
BRANCH  25  26
HETATM   26  C6  UNL     1      69.804  -8.841  52.632  1.00  0.00     0.159 C 
BRANCH  26  27
HETATM   27  C7  UNL     1      68.534  -8.371  53.360  1.00  0.00     0.106 C 
BRANCH  27  28
HETATM   28  C8  UNL     1      67.365  -8.949  52.595  1.00  0.00     0.232 C 
HETATM   29  C9  UNL     1      67.630  -8.672  51.162  1.00  0.00     0.091 C 
HETATM   30  N2  UNL     1      67.830  -8.475  50.040  1.00  0.00    -0.195 NA
BRANCH  28  31
HETATM   31  O2  UNL     1      66.189  -8.323  53.006  1.00  0.00    -0.376 OA
HETATM   32  C10 UNL     1      66.420  -6.962  53.075  1.00  0.00     0.203 C 
ENDBRANCH  28  31
ENDBRANCH  27  28
ENDBRANCH  26  27
ENDBRANCH  25  26
ENDBRANCH   6  25
TORSDOF 6
ENDMDL
MODEL 4
REMARK VINA RESULT: -8.012872810      4.425      7.575
REMARK  6 active torsions:
REMARK  status: ('A' for Active; 'I' for Inactive)
REMARK    1  A    between atoms: C5_6  and  N1_7 
REMARK    2  A    between atoms: N1_7  and  C6_8 
REMARK    3  A    between atoms: C6_8  and  C7_9 
REMARK    4  A    between atoms: C7_9  and  C8_10 
REMARK    5  A    between atoms: C8_10  and  O2_13 
REMARK    6  A    between atoms: C19_28  and  S1_29 
ROOT
HETATM    1  C1  UNL     1      74.027  -0.855  49.357  1.00  0.00     0.210 C 
HETATM    2  O1  UNL     1      73.251  -1.534  49.983  1.00  0.00    -0.354 OA
HETATM    3  C2  UNL     1      72.380  -2.304  50.672  1.00  0.00     0.090 A 
HETATM    4  C3  UNL     1      71.850  -3.424  50.027  1.00  0.00     0.055 A 
HETATM    5  C4  UNL     1      70.969  -4.220  50.709  1.00  0.00     0.036 A 
HETATM    6  C5  UNL     1      70.484  -5.341  49.996  1.00  0.00     0.147 A 
HETATM    7  C11 UNL     1      69.582  -6.164  50.713  1.00  0.00     0.101 A 
HETATM    8  N3  UNL     1      69.118  -7.242  50.038  1.00  0.00    -0.360 N 
ATOM      9  H3  UNL     1      69.409  -7.429  49.079  1.00  0.00     0.165 HD
HETATM   10  C12 UNL     1      68.250  -8.068  50.682  1.00  0.00     0.111 A 
HETATM   11  C13 UNL     1      67.856  -7.812  51.989  1.00  0.00     0.062 A 
HETATM   12  C14 UNL     1      66.934  -8.696  52.670  1.00  0.00     0.101 C 
HETATM   13  N4  UNL     1      66.213  -9.411  53.220  1.00  0.00    -0.191 NA
HETATM   14  C15 UNL     1      68.333  -6.708  52.676  1.00  0.00     0.056 A 
HETATM   15  C16 UNL     1      69.226  -5.867  52.000  1.00  0.00     0.064 A 
HETATM   16  N5  UNL     1      69.737  -4.782  52.595  1.00  0.00    -0.353 N 
ATOM     17  H5  UNL     1      69.456  -4.584  53.555  1.00  0.00     0.166 HD
HETATM   18  C17 UNL     1      70.593  -3.947  52.005  1.00  0.00     0.048 A 
HETATM   19  C18 UNL     1      71.117  -2.836  52.646  1.00  0.00     0.056 A 
HETATM   20  C19 UNL     1      71.996  -2.039  51.974  1.00  0.00     0.094 A 
ENDROOT
BRANCH  20  21
HETATM   21  S1  UNL     1      72.688  -0.631  52.727  1.00  0.00     0.174 S 
HETATM   22  C20 UNL     1      72.124   0.850  51.938  1.00  0.00     0.167 C 
HETATM   23  O3  UNL     1      72.239  -0.587  54.160  1.00  0.00    -0.223 OA
HETATM   24  O4  UNL     1      74.195  -0.717  52.740  1.00  0.00    -0.223 OA
ENDBRANCH  20  21
BRANCH   6  25
HETATM   25  N1  UNL     1      70.829  -5.539  48.887  1.00  0.00    -0.419 NA
BRANCH  25  26
HETATM   26  C6  UNL     1      71.225  -5.763  47.627  1.00  0.00     0.159 C 
BRANCH  26  27
HETATM   27  C7  UNL     1      70.476  -4.980  46.537  1.00  0.00     0.106 C 
BRANCH  27  28
HETATM   28  C8  UNL     1      71.479  -4.021  45.935  1.00  0.00     0.232 C 
HETATM   29  C9  UNL     1      71.020  -2.658  46.302  1.00  0.00     0.091 C 
HETATM   30  N2  UNL     1      70.683  -1.591  46.591  1.00  0.00    -0.195 NA
BRANCH  28  31
HETATM   31  O2  UNL     1      71.495  -4.178  44.550  1.00  0.00    -0.376 OA
HETATM   32  C10 UNL     1      72.790  -3.995  44.106  1.00  0.00     0.203 C 
ENDBRANCH  28  31
ENDBRANCH  27  28
ENDBRANCH  26  27
ENDBRANCH  25  26
ENDBRANCH   6  25
TORSDOF 6
ENDMDL
MODEL 5
REMARK VINA RESULT: -7.644141847      3.775      6.308
REMARK  6 active torsions:
REMARK  status: ('A' for Active; 'I' for Inactive)
REMARK    1  A    between atoms: C5_6  and  N1_7 
REMARK    2  A    between atoms: N1_7  and  C6_8 
REMARK    3  A    between atoms: C6_8  and  C7_9 
REMARK    4  A    between atoms: C7_9  and  C8_10 
REMARK    5  A    between atoms: C8_10  and  O2_13 
REMARK    6  A    between atoms: C19_28  and  S1_29 
ROOT
HETATM    1  C1  UNL     1      73.827  -1.585  47.642  1.00  0.00     0.210 C 
HETATM    2  O1  UNL     1      73.061  -2.483  47.890  1.00  0.00    -0.354 OA
HETATM    3  C2  UNL     1      72.204  -3.485  48.183  1.00  0.00     0.090 A 
HETATM    4  C3  UNL     1      71.805  -3.634  49.514  1.00  0.00     0.055 A 
HETATM    5  C4  UNL     1      70.933  -4.641  49.831  1.00  0.00     0.036 A 
HETATM    6  C5  UNL     1      70.567  -4.722  51.194  1.00  0.00     0.147 A 
HETATM    7  C11 UNL     1      69.657  -5.759  51.511  1.00  0.00     0.101 A 
HETATM    8  N3  UNL     1      69.297  -5.839  52.813  1.00  0.00    -0.360 N 
ATOM      9  H3  UNL     1      69.671  -5.188  53.504  1.00  0.00     0.165 HD
HETATM   10  C12 UNL     1      68.422  -6.817  53.170  1.00  0.00     0.111 A 
HETATM   11  C13 UNL     1      67.915  -7.701  52.228  1.00  0.00     0.062 A 
HETATM   12  C14 UNL     1      66.982  -8.739  52.615  1.00  0.00     0.101 C 
HETATM   13  N4  UNL     1      66.223  -9.554  52.919  1.00  0.00    -0.191 NA
HETATM   14  C15 UNL     1      68.285  -7.616  50.897  1.00  0.00     0.056 A 
HETATM   15  C16 UNL     1      69.186  -6.604  50.544  1.00  0.00     0.064 A 
HETATM   16  N5  UNL     1      69.590  -6.452  49.276  1.00  0.00    -0.353 N 
ATOM     17  H5  UNL     1      69.225  -7.095  48.575  1.00  0.00     0.166 HD
HETATM   18  C17 UNL     1      70.443  -5.507  48.879  1.00  0.00     0.048 A 
HETATM   19  C18 UNL     1      70.838  -5.361  47.558  1.00  0.00     0.056 A 
HETATM   20  C19 UNL     1      71.705  -4.360  47.234  1.00  0.00     0.094 A 
ENDROOT
BRANCH  20  21
HETATM   21  S1  UNL     1      72.236  -4.128  45.593  1.00  0.00     0.174 S 
HETATM   22  C20 UNL     1      73.916  -4.647  45.392  1.00  0.00     0.167 C 
HETATM   23  O3  UNL     1      71.382  -4.974  44.692  1.00  0.00    -0.223 OA
HETATM   24  O4  UNL     1      72.040  -2.693  45.166  1.00  0.00    -0.223 OA
ENDBRANCH  20  21
BRANCH   6  25
HETATM   25  N1  UNL     1      71.010  -3.962  51.978  1.00  0.00    -0.419 NA
BRANCH  25  26
HETATM   26  C6  UNL     1      71.511  -3.098  52.870  1.00  0.00     0.159 C 
BRANCH  26  27
HETATM   27  C7  UNL     1      70.651  -1.858  53.165  1.00  0.00     0.106 C 
BRANCH  27  28
HETATM   28  C8  UNL     1      70.934  -0.869  52.057  1.00  0.00     0.232 C 
HETATM   29  C9  UNL     1      72.146  -0.119  52.472  1.00  0.00     0.091 C 
HETATM   30  N2  UNL     1      73.097   0.463  52.775  1.00  0.00    -0.195 NA
BRANCH  28  31
HETATM   31  O2  UNL     1      69.848  -0.006  51.919  1.00  0.00    -0.376 OA
HETATM   32  C10 UNL     1      70.057   0.782  50.803  1.00  0.00     0.203 C 
ENDBRANCH  28  31
ENDBRANCH  27  28
ENDBRANCH  26  27
ENDBRANCH  25  26
ENDBRANCH   6  25
TORSDOF 6
ENDMDL
