MODEL 1
REMARK VINA RESULT: -8.177742875      0.000      0.000
REMARK  5 active torsions:
REMARK  status: ('A' for Active; 'I' for Inactive)
REMARK    1  A    between atoms: C3_7  and  C4_8 
REMARK    2  A    between atoms: C7_11  and  N3_12 
REMARK       I    between atoms: N3_12  and  C8_14 
REMARK       I    between atoms: C8_14  and  N4_16 
REMARK    3  A    between atoms: N4_16  and  C9_18 
REMARK    4  A    between atoms: C10_21  and  S1_22 
REMARK    5  A    between atoms: S1_22  and  C11_23 
ROOT
HETATM    1  N3  UNL     1      46.154  38.971  56.066  1.00  0.00    -0.305 N 
ATOM      2  H3  UNL     1      47.069  38.674  55.726  1.00  0.00     0.171 HD
HETATM    3  C8  UNL     1      45.021  38.195  55.708  1.00  0.00     0.326 C 
HETATM    4  O1  UNL     1      43.851  38.493  56.090  1.00  0.00    -0.247 OA
HETATM    5  N4  UNL     1      45.227  37.048  54.891  1.00  0.00    -0.293 N 
ATOM      6  H4  UNL     1      46.183  36.783  54.654  1.00  0.00     0.172 HD
ENDROOT
BRANCH   5   7
HETATM    7  C9  UNL     1      44.261  36.328  54.438  1.00  0.00     0.136 A 
HETATM    8  N5  UNL     1      43.075  36.165  55.021  1.00  0.00    -0.321 N 
HETATM    9  C10 UNL     1      42.090  35.408  54.522  1.00  0.00     0.147 A 
ATOM     10  H5  UNL     1      42.906  36.646  55.904  1.00  0.00     0.169 HD
HETATM   11  N6  UNL     1      42.301  34.777  53.367  1.00  0.00    -0.324 N 
HETATM   12  C14 UNL     1      43.494  34.899  52.713  1.00  0.00     0.143 A 
ATOM     13  H6  UNL     1      41.564  34.196  52.967  1.00  0.00     0.169 HD
HETATM   14  N7  UNL     1      43.742  34.241  51.490  1.00  0.00    -0.081 NA
HETATM   15  C15 UNL     1      44.500  35.678  53.234  1.00  0.00     0.119 A 
HETATM   16 CL1  UNL     1      46.026  35.833  52.395  1.00  0.00    -0.077 Cl
BRANCH   9  17
HETATM   17  S1  UNL     1      40.550  35.261  55.386  1.00  0.00    -0.090 SA
BRANCH  17  18
HETATM   18  C11 UNL     1      39.454  36.657  55.136  1.00  0.00     0.047 C 
HETATM   19  C12 UNL     1      40.013  37.945  55.690  1.00  0.00     0.021 C 
HETATM   20  C13 UNL     1      39.029  36.747  53.707  1.00  0.00     0.021 C 
ENDBRANCH  17  18
ENDBRANCH   9  17
ENDBRANCH   5   7
BRANCH   1  21
HETATM   21  C7  UNL     1      46.081  40.142  56.875  1.00  0.00     0.084 A 
HETATM   22  C2  UNL     1      45.464  41.319  56.428  1.00  0.00     0.050 A 
HETATM   23  C1  UNL     1      44.836  41.521  55.097  1.00  0.00     0.072 C 
HETATM   24  N1  UNL     1      45.572  42.182  57.450  1.00  0.00    -0.303 N 
HETATM   25  N2  UNL     1      46.200  41.618  58.466  1.00  0.00    -0.302 N 
ATOM     26  H1  UNL     1      45.218  43.139  57.443  1.00  0.00     0.186 HD
HETATM   27  C3  UNL     1      46.542  40.332  58.153  1.00  0.00     0.058 A 
ATOM     28  H2  UNL     1      46.402  42.076  59.356  1.00  0.00     0.186 HD
BRANCH  27  29
HETATM   29  C4  UNL     1      47.249  39.356  59.009  1.00  0.00     0.031 C 
HETATM   30  C5  UNL     1      47.849  40.031  60.234  1.00  0.00     0.016 C 
HETATM   31  C6  UNL     1      48.293  38.547  58.274  1.00  0.00     0.016 C 
ENDBRANCH  27  29
ENDBRANCH   1  21
TORSDOF 5
ENDMDL
MODEL 2
REMARK VINA RESULT: -7.831450848      0.950      2.636
REMARK  5 active torsions:
REMARK  status: ('A' for Active; 'I' for Inactive)
REMARK    1  A    between atoms: C3_7  and  C4_8 
REMARK    2  A    between atoms: C7_11  and  N3_12 
REMARK       I    between atoms: N3_12  and  C8_14 
REMARK       I    between atoms: C8_14  and  N4_16 
REMARK    3  A    between atoms: N4_16  and  C9_18 
REMARK    4  A    between atoms: C10_21  and  S1_22 
REMARK    5  A    between atoms: S1_22  and  C11_23 
ROOT
HETATM    1  N3  UNL     1      45.995  39.650  55.475  1.00  0.00    -0.305 N 
ATOM      2  H3  UNL     1      46.730  39.773  54.778  1.00  0.00     0.171 HD
HETATM    3  C8  UNL     1      45.151  38.514  55.366  1.00  0.00     0.326 C 
HETATM    4  O1  UNL     1      44.218  38.286  56.190  1.00  0.00    -0.247 OA
HETATM    5  N4  UNL     1      45.377  37.614  54.287  1.00  0.00    -0.293 N 
ATOM      6  H4  UNL     1      46.178  37.776  53.677  1.00  0.00     0.172 HD
ENDROOT
BRANCH   5   7
HETATM    7  C9  UNL     1      44.615  36.604  54.046  1.00  0.00     0.136 A 
HETATM    8  N5  UNL     1      43.482  36.318  54.683  1.00  0.00    -0.321 N 
HETATM    9  C10 UNL     1      42.712  35.259  54.406  1.00  0.00     0.147 A 
ATOM     10  H5  UNL     1      43.181  36.945  55.428  1.00  0.00     0.169 HD
HETATM   11  N6  UNL     1      43.097  34.434  53.432  1.00  0.00    -0.324 N 
HETATM   12  C14 UNL     1      44.249  34.667  52.736  1.00  0.00     0.143 A 
ATOM     13  H6  UNL     1      42.525  33.621  53.203  1.00  0.00     0.169 HD
HETATM   14  N7  UNL     1      44.677  33.809  51.701  1.00  0.00    -0.081 NA
HETATM   15  C15 UNL     1      45.033  35.758  53.028  1.00  0.00     0.119 A 
HETATM   16 CL1  UNL     1      46.507  36.052  52.135  1.00  0.00    -0.077 Cl
BRANCH   9  17
HETATM   17  S1  UNL     1      41.221  34.973  55.322  1.00  0.00    -0.090 SA
BRANCH  17  18
HETATM   18  C11 UNL     1      39.769  35.702  54.566  1.00  0.00     0.047 C 
HETATM   19  C12 UNL     1      39.618  37.169  54.886  1.00  0.00     0.021 C 
HETATM   20  C13 UNL     1      39.719  35.391  53.106  1.00  0.00     0.021 C 
ENDBRANCH  17  18
ENDBRANCH   9  17
ENDBRANCH   5   7
BRANCH   1  21
HETATM   21  C7  UNL     1      45.871  40.626  56.506  1.00  0.00     0.084 A 
HETATM   22  C2  UNL     1      46.432  40.442  57.777  1.00  0.00     0.050 A 
HETATM   23  C1  UNL     1      47.192  39.249  58.229  1.00  0.00     0.072 C 
HETATM   24  N1  UNL     1      46.131  41.559  58.459  1.00  0.00    -0.303 N 
HETATM   25  N2  UNL     1      45.439  42.390  57.700  1.00  0.00    -0.302 N 
ATOM     26  H1  UNL     1      46.399  41.740  59.427  1.00  0.00     0.186 HD
HETATM   27  C3  UNL     1      45.249  41.848  56.460  1.00  0.00     0.058 A 
ATOM     28  H2  UNL     1      45.096  43.304  57.997  1.00  0.00     0.186 HD
BRANCH  27  29
HETATM   29  C4  UNL     1      44.533  42.451  55.316  1.00  0.00     0.031 C 
HETATM   30  C5  UNL     1      44.208  43.914  55.579  1.00  0.00     0.016 C 
HETATM   31  C6  UNL     1      43.294  41.689  54.904  1.00  0.00     0.016 C 
ENDBRANCH  27  29
ENDBRANCH   1  21
TORSDOF 5
ENDMDL
MODEL 3
REMARK VINA RESULT: -7.827962801      2.488      7.955
REMARK  5 active torsions:
REMARK  status: ('A' for Active; 'I' for Inactive)
REMARK    1  A    between atoms: C3_7  and  C4_8 
REMARK    2  A    between atoms: C7_11  and  N3_12 
REMARK       I    between atoms: N3_12  and  C8_14 
REMARK       I    between atoms: C8_14  and  N4_16 
REMARK    3  A    between atoms: N4_16  and  C9_18 
REMARK    4  A    between atoms: C10_21  and  S1_22 
REMARK    5  A    between atoms: S1_22  and  C11_23 
ROOT
HETATM    1  N3  UNL     1      42.941  37.317  53.313  1.00  0.00    -0.305 N 
ATOM      2  H3  UNL     1      43.148  37.726  52.402  1.00  0.00     0.171 HD
HETATM    3  C8  UNL     1      43.411  37.987  54.472  1.00  0.00     0.326 C 
HETATM    4  O1  UNL     1      43.195  37.549  55.640  1.00  0.00    -0.247 OA
HETATM    5  N4  UNL     1      44.149  39.192  54.296  1.00  0.00    -0.293 N 
ATOM      6  H4  UNL     1      44.250  39.567  53.353  1.00  0.00     0.172 HD
ENDROOT
BRANCH   5   7
HETATM    7  C9  UNL     1      44.695  39.829  55.272  1.00  0.00     0.136 A 
HETATM    8  N5  UNL     1      45.361  39.275  56.284  1.00  0.00    -0.321 N 
HETATM    9  C10 UNL     1      45.918  39.968  57.284  1.00  0.00     0.147 A 
ATOM     10  H5  UNL     1      45.453  38.260  56.296  1.00  0.00     0.169 HD
HETATM   11  N6  UNL     1      45.804  41.296  57.275  1.00  0.00    -0.324 N 
HETATM   12  C14 UNL     1      45.134  41.931  56.268  1.00  0.00     0.143 A 
ATOM     13  H6  UNL     1      46.222  41.844  58.026  1.00  0.00     0.169 HD
HETATM   14  N7  UNL     1      45.000  43.335  56.235  1.00  0.00    -0.081 NA
HETATM   15  C15 UNL     1      44.565  41.211  55.244  1.00  0.00     0.119 A 
HETATM   16 CL1  UNL     1      43.709  42.027  53.957  1.00  0.00    -0.077 Cl
BRANCH   9  17
HETATM   17  S1  UNL     1      46.782  39.125  58.582  1.00  0.00    -0.090 SA
BRANCH  17  18
HETATM   18  C11 UNL     1      47.990  40.151  59.419  1.00  0.00     0.047 C 
HETATM   19  C12 UNL     1      47.408  40.898  60.594  1.00  0.00     0.021 C 
HETATM   20  C13 UNL     1      49.216  39.363  59.749  1.00  0.00     0.021 C 
ENDBRANCH  17  18
ENDBRANCH   9  17
ENDBRANCH   5   7
BRANCH   1  21
HETATM   21  C7  UNL     1      42.195  36.104  53.355  1.00  0.00     0.084 A 
HETATM   22  C2  UNL     1      42.796  34.853  53.156  1.00  0.00     0.050 A 
HETATM   23  C1  UNL     1      44.233  34.613  52.865  1.00  0.00     0.072 C 
HETATM   24  N1  UNL     1      41.801  33.960  53.285  1.00  0.00    -0.303 N 
HETATM   25  N2  UNL     1      40.661  34.575  53.546  1.00  0.00    -0.302 N 
ATOM     26  H1  UNL     1      41.910  32.950  53.196  1.00  0.00     0.186 HD
HETATM   27  C3  UNL     1      40.856  35.927  53.600  1.00  0.00     0.058 A 
ATOM     28  H2  UNL     1      39.764  34.109  53.686  1.00  0.00     0.186 HD
BRANCH  27  29
HETATM   29  C4  UNL     1      39.846  36.971  53.870  1.00  0.00     0.031 C 
HETATM   30  C5  UNL     1      39.194  36.768  55.229  1.00  0.00     0.016 C 
HETATM   31  C6  UNL     1      38.801  37.101  52.785  1.00  0.00     0.016 C 
ENDBRANCH  27  29
ENDBRANCH   1  21
TORSDOF 5
ENDMDL
MODEL 4
REMARK VINA RESULT: -7.800016718      1.315      1.412
REMARK  5 active torsions:
REMARK  status: ('A' for Active; 'I' for Inactive)
REMARK    1  A    between atoms: C3_7  and  C4_8 
REMARK    2  A    between atoms: C7_11  and  N3_12 
REMARK       I    between atoms: N3_12  and  C8_14 
REMARK       I    between atoms: C8_14  and  N4_16 
REMARK    3  A    between atoms: N4_16  and  C9_18 
REMARK    4  A    between atoms: C10_21  and  S1_22 
REMARK    5  A    between atoms: S1_22  and  C11_23 
ROOT
HETATM    1  N3  UNL     1      45.704  38.848  55.991  1.00  0.00    -0.305 N 
ATOM      2  H3  UNL     1      46.556  38.421  55.627  1.00  0.00     0.171 HD
HETATM    3  C8  UNL     1      44.481  38.147  55.831  1.00  0.00     0.326 C 
HETATM    4  O1  UNL     1      43.380  38.605  56.256  1.00  0.00    -0.247 OA
HETATM    5  N4  UNL     1      44.513  36.889  55.166  1.00  0.00    -0.293 N 
ATOM      6  H4  UNL     1      45.418  36.503  54.896  1.00  0.00     0.172 HD
ENDROOT
BRANCH   5   7
HETATM    7  C9  UNL     1      43.451  36.214  54.891  1.00  0.00     0.136 A 
HETATM    8  N5  UNL     1      42.203  36.673  54.953  1.00  0.00    -0.321 N 
HETATM    9  C10 UNL     1      41.120  35.945  54.659  1.00  0.00     0.147 A 
ATOM     10  H5  UNL     1      42.063  37.641  55.243  1.00  0.00     0.169 HD
HETATM   11  N6  UNL     1      41.293  34.680  54.276  1.00  0.00    -0.324 N 
HETATM   12  C14 UNL     1      42.546  34.143  54.190  1.00  0.00     0.143 A 
ATOM     13  H6  UNL     1      40.481  34.107  54.046  1.00  0.00     0.169 HD
HETATM   14  N7  UNL     1      42.755  32.807  53.788  1.00  0.00    -0.081 NA
HETATM   15  C15 UNL     1      43.653  34.899  54.495  1.00  0.00     0.119 A 
HETATM   16 CL1  UNL     1      45.255  34.208  54.383  1.00  0.00    -0.077 Cl
BRANCH   9  17
HETATM   17  S1  UNL     1      39.502  36.659  54.778  1.00  0.00    -0.090 SA
BRANCH  17  18
HETATM   18  C11 UNL     1      38.849  37.218  53.205  1.00  0.00     0.047 C 
HETATM   19  C12 UNL     1      39.481  38.506  52.736  1.00  0.00     0.021 C 
HETATM   20  C13 UNL     1      38.891  36.119  52.195  1.00  0.00     0.021 C 
ENDBRANCH  17  18
ENDBRANCH   9  17
ENDBRANCH   5   7
BRANCH   1  21
HETATM   21  C7  UNL     1      45.806  40.115  56.634  1.00  0.00     0.084 A 
HETATM   22  C2  UNL     1      45.308  41.289  56.051  1.00  0.00     0.050 A 
HETATM   23  C1  UNL     1      44.646  41.388  54.725  1.00  0.00     0.072 C 
HETATM   24  N1  UNL     1      45.563  42.260  56.942  1.00  0.00    -0.303 N 
HETATM   25  N2  UNL     1      46.169  41.763  58.005  1.00  0.00    -0.302 N 
ATOM     26  H1  UNL     1      45.322  43.244  56.815  1.00  0.00     0.186 HD
HETATM   27  C3  UNL     1      46.345  40.415  57.860  1.00  0.00     0.058 A 
ATOM     28  H2  UNL     1      46.464  42.306  58.817  1.00  0.00     0.186 HD
BRANCH  27  29
HETATM   29  C4  UNL     1      46.974  39.483  58.819  1.00  0.00     0.031 C 
HETATM   30  C5  UNL     1      47.480  40.218  60.051  1.00  0.00     0.016 C 
HETATM   31  C6  UNL     1      48.067  38.632  58.211  1.00  0.00     0.016 C 
ENDBRANCH  27  29
ENDBRANCH   1  21
TORSDOF 5
ENDMDL
MODEL 5
REMARK VINA RESULT: -7.680648496      2.965      7.819
REMARK  5 active torsions:
REMARK  status: ('A' for Active; 'I' for Inactive)
REMARK    1  A    between atoms: C3_7  and  C4_8 
REMARK    2  A    between atoms: C7_11  and  N3_12 
REMARK       I    between atoms: N3_12  and  C8_14 
REMARK       I    between atoms: C8_14  and  N4_16 
REMARK    3  A    between atoms: N4_16  and  C9_18 
REMARK    4  A    between atoms: C10_21  and  S1_22 
REMARK    5  A    between atoms: S1_22  and  C11_23 
ROOT
HETATM    1  N3  UNL     1      42.191  38.252  52.911  1.00  0.00    -0.305 N 
ATOM      2  H3  UNL     1      42.769  38.251  52.070  1.00  0.00     0.171 HD
HETATM    3  C8  UNL     1      42.681  38.923  54.061  1.00  0.00     0.326 C 
HETATM    4  O1  UNL     1      42.027  38.974  55.144  1.00  0.00    -0.247 OA
HETATM    5  N4  UNL     1      43.954  39.555  53.975  1.00  0.00    -0.293 N 
ATOM      6  H4  UNL     1      44.433  39.565  53.074  1.00  0.00     0.172 HD
ENDROOT
BRANCH   5   7
HETATM    7  C9  UNL     1      44.529  40.113  54.983  1.00  0.00     0.136 A 
HETATM    8  N5  UNL     1      45.201  39.480  55.942  1.00  0.00    -0.321 N 
HETATM    9  C10 UNL     1      45.789  40.091  56.977  1.00  0.00     0.147 A 
ATOM     10  H5  UNL     1      45.273  38.464  55.884  1.00  0.00     0.169 HD
HETATM   11  N6  UNL     1      45.701  41.419  57.060  1.00  0.00    -0.324 N 
HETATM   12  C14 UNL     1      45.027  42.133  56.111  1.00  0.00     0.143 A 
ATOM     13  H6  UNL     1      46.143  41.906  57.840  1.00  0.00     0.169 HD
HETATM   14  N7  UNL     1      44.921  43.539  56.176  1.00  0.00    -0.081 NA
HETATM   15  C15 UNL     1      44.427  41.496  55.051  1.00  0.00     0.119 A 
HETATM   16 CL1  UNL     1      43.565  42.414  53.839  1.00  0.00    -0.077 Cl
BRANCH   9  17
HETATM   17  S1  UNL     1      46.657  39.146  58.199  1.00  0.00    -0.090 SA
BRANCH  17  18
HETATM   18  C11 UNL     1      47.773  40.127  59.202  1.00  0.00     0.047 C 
HETATM   19  C12 UNL     1      47.066  40.853  60.321  1.00  0.00     0.021 C 
HETATM   20  C13 UNL     1      48.939  39.309  59.651  1.00  0.00     0.021 C 
ENDBRANCH  17  18
ENDBRANCH   9  17
ENDBRANCH   5   7
BRANCH   1  21
HETATM   21  C7  UNL     1      40.935  37.580  52.869  1.00  0.00     0.084 A 
HETATM   22  C2  UNL     1      39.805  38.150  52.267  1.00  0.00     0.050 A 
HETATM   23  C1  UNL     1      39.742  39.488  51.626  1.00  0.00     0.072 C 
HETATM   24  N1  UNL     1      38.834  37.232  52.403  1.00  0.00    -0.303 N 
HETATM   25  N2  UNL     1      39.293  36.166  53.034  1.00  0.00    -0.302 N 
ATOM     26  H1  UNL     1      37.877  37.343  52.066  1.00  0.00     0.186 HD
HETATM   27  C3  UNL     1      40.612  36.336  53.349  1.00  0.00     0.058 A 
ATOM     28  H2  UNL     1      38.742  35.336  53.254  1.00  0.00     0.186 HD
BRANCH  27  29
HETATM   29  C4  UNL     1      41.498  35.382  54.049  1.00  0.00     0.031 C 
HETATM   30  C5  UNL     1      41.773  34.155  53.192  1.00  0.00     0.016 C 
HETATM   31  C6  UNL     1      41.000  34.983  55.419  1.00  0.00     0.016 C 
ENDBRANCH  27  29
ENDBRANCH   1  21
TORSDOF 5
ENDMDL
