MODEL 1
REMARK VINA RESULT: -9.387740806      0.000      0.000
REMARK  5 active torsions:
REMARK  status: ('A' for Active; 'I' for Inactive)
REMARK    1  A    between atoms: C1_2  and  C2_4 
REMARK    2  A    between atoms: C5_8  and  S1_9 
REMARK    3  A    between atoms: S1_9  and  C6_10 
REMARK    4  A    between atoms: C16_20  and  C17_21 
REMARK    5  A    between atoms: N4_23  and  O2_25 
ROOT
HETATM    1  C2  UNL     1      40.755  37.137  55.293  1.00  0.00     0.070 A 
HETATM    2  C3  UNL     1      41.131  38.451  55.431  1.00  0.00     0.047 A 
HETATM    3  C4  UNL     1      42.473  38.828  55.467  1.00  0.00     0.065 A 
HETATM    4  N2  UNL     1      42.715  40.245  55.559  1.00  0.00    -0.101 NA
HETATM    5  C5  UNL     1      43.471  37.886  55.365  1.00  0.00     0.042 A 
HETATM    6  C16 UNL     1      43.128  36.557  55.217  1.00  0.00     0.065 A 
HETATM    7  C18 UNL     1      41.771  36.227  55.189  1.00  0.00     0.146 A 
HETATM    8  F1  UNL     1      41.405  34.923  55.051  1.00  0.00    -0.204 F 
ENDROOT
BRANCH   5   9
HETATM    9  S1  UNL     1      45.142  38.380  55.458  1.00  0.00    -0.122 SA
BRANCH   9  10
HETATM   10  C6  UNL     1      45.684  39.376  56.832  1.00  0.00     0.052 C 
HETATM   11  C7  UNL     1      46.344  38.614  57.969  1.00  0.00     0.015 C 
HETATM   12  C8  UNL     1      47.812  38.552  57.972  1.00  0.00     0.001 C 
HETATM   13  C9  UNL     1      48.549  39.391  58.980  1.00  0.00     0.000 C 
HETATM   14  C10 UNL     1      47.831  39.780  60.200  1.00  0.00     0.000 C 
HETATM   15  C11 UNL     1      47.088  41.034  60.296  1.00  0.00     0.000 C 
HETATM   16  C12 UNL     1      47.044  41.985  59.153  1.00  0.00     0.000 C 
HETATM   17  C13 UNL     1      45.689  42.017  58.479  1.00  0.00     0.000 C 
HETATM   18  C14 UNL     1      45.739  41.893  56.989  1.00  0.00     0.001 C 
HETATM   19  C15 UNL     1      46.417  40.630  56.508  1.00  0.00     0.015 C 
ENDBRANCH   9  10
ENDBRANCH   5   9
BRANCH   6  20
HETATM   20  C17 UNL     1      44.068  35.496  54.912  1.00  0.00     0.150 C 
HETATM   21  N3  UNL     1      44.410  35.197  53.574  1.00  0.00    -0.080 NA
HETATM   22  N4  UNL     1      44.617  34.797  55.826  1.00  0.00    -0.254 N 
ATOM     23  H4  UNL     1      44.378  35.000  56.797  1.00  0.00     0.195 HD
BRANCH  22  24
HETATM   24  O2  UNL     1      45.508  33.790  55.580  1.00  0.00    -0.288 OA
ATOM     25  H2  UNL     1      45.256  32.923  55.285  1.00  0.00     0.244 HD
ENDBRANCH  22  24
ENDBRANCH   6  20
BRANCH   1  26
HETATM   26  C1  UNL     1      39.352  36.790  55.264  1.00  0.00     0.268 C 
HETATM   27  N1  UNL     1      38.502  37.090  54.159  1.00  0.00    -0.057 NA
HETATM   28  O1  UNL     1      38.825  36.195  56.240  1.00  0.00    -0.271 OA
ENDBRANCH   1  26
TORSDOF 5
ENDMDL
MODEL 2
REMARK VINA RESULT: -8.711085934      4.187      6.525
REMARK  5 active torsions:
REMARK  status: ('A' for Active; 'I' for Inactive)
REMARK    1  A    between atoms: C1_2  and  C2_4 
REMARK    2  A    between atoms: C5_8  and  S1_9 
REMARK    3  A    between atoms: S1_9  and  C6_10 
REMARK    4  A    between atoms: C16_20  and  C17_21 
REMARK    5  A    between atoms: N4_23  and  O2_25 
ROOT
HETATM    1  C2  UNL     1      41.421  36.984  55.591  1.00  0.00     0.070 A 
HETATM    2  C3  UNL     1      42.675  37.542  55.640  1.00  0.00     0.047 A 
HETATM    3  C4  UNL     1      43.754  36.977  54.962  1.00  0.00     0.065 A 
HETATM    4  N2  UNL     1      44.995  37.702  55.060  1.00  0.00    -0.101 NA
HETATM    5  C5  UNL     1      43.595  35.831  54.217  1.00  0.00     0.042 A 
HETATM    6  C16 UNL     1      42.345  35.249  54.139  1.00  0.00     0.065 A 
HETATM    7  C18 UNL     1      41.295  35.850  54.837  1.00  0.00     0.146 A 
HETATM    8  F1  UNL     1      40.054  35.291  54.783  1.00  0.00    -0.204 F 
ENDROOT
BRANCH   5   9
HETATM    9  S1  UNL     1      44.972  35.119  53.415  1.00  0.00    -0.122 SA
BRANCH   9  10
HETATM   10  C6  UNL     1      45.382  35.633  51.761  1.00  0.00     0.052 C 
HETATM   11  C7  UNL     1      44.484  36.708  51.170  1.00  0.00     0.015 C 
HETATM   12  C8  UNL     1      44.948  38.098  51.271  1.00  0.00     0.001 C 
HETATM   13  C9  UNL     1      45.457  38.762  50.020  1.00  0.00     0.000 C 
HETATM   14  C10 UNL     1      44.991  38.238  48.731  1.00  0.00     0.000 C 
HETATM   15  C11 UNL     1      45.725  37.207  48.002  1.00  0.00     0.000 C 
HETATM   16  C12 UNL     1      46.998  36.653  48.536  1.00  0.00     0.000 C 
HETATM   17  C13 UNL     1      46.845  35.235  49.041  1.00  0.00     0.000 C 
HETATM   18  C14 UNL     1      47.414  35.001  50.405  1.00  0.00     0.001 C 
HETATM   19  C15 UNL     1      46.819  35.893  51.472  1.00  0.00     0.015 C 
ENDBRANCH   9  10
ENDBRANCH   5   9
BRANCH   6  20
HETATM   20  C17 UNL     1      42.002  34.160  53.245  1.00  0.00     0.150 C 
HETATM   21  N3  UNL     1      42.193  32.816  53.637  1.00  0.00    -0.080 NA
HETATM   22  N4  UNL     1      41.519  34.366  52.083  1.00  0.00    -0.254 N 
ATOM     23  H4  UNL     1      41.377  35.332  51.786  1.00  0.00     0.195 HD
BRANCH  22  24
HETATM   24  O2  UNL     1      41.182  33.368  51.213  1.00  0.00    -0.288 OA
ATOM     25  H2  UNL     1      41.810  32.906  50.670  1.00  0.00     0.244 HD
ENDBRANCH  22  24
ENDBRANCH   6  20
BRANCH   1  26
HETATM   26  C1  UNL     1      40.331  37.601  56.312  1.00  0.00     0.268 C 
HETATM   27  N1  UNL     1      39.191  38.162  55.662  1.00  0.00    -0.057 NA
HETATM   28  O1  UNL     1      40.354  37.662  57.569  1.00  0.00    -0.271 OA
ENDBRANCH   1  26
TORSDOF 5
ENDMDL
MODEL 3
REMARK VINA RESULT: -8.635060476      3.852      6.551
REMARK  5 active torsions:
REMARK  status: ('A' for Active; 'I' for Inactive)
REMARK    1  A    between atoms: C1_2  and  C2_4 
REMARK    2  A    between atoms: C5_8  and  S1_9 
REMARK    3  A    between atoms: S1_9  and  C6_10 
REMARK    4  A    between atoms: C16_20  and  C17_21 
REMARK    5  A    between atoms: N4_23  and  O2_25 
ROOT
HETATM    1  C2  UNL     1      40.783  36.269  55.362  1.00  0.00     0.070 A 
HETATM    2  C3  UNL     1      40.951  35.066  54.722  1.00  0.00     0.047 A 
HETATM    3  C4  UNL     1      42.187  34.678  54.206  1.00  0.00     0.065 A 
HETATM    4  N2  UNL     1      42.225  33.366  53.612  1.00  0.00    -0.101 NA
HETATM    5  C5  UNL     1      43.286  35.498  54.321  1.00  0.00     0.042 A 
HETATM    6  C16 UNL     1      43.154  36.712  54.966  1.00  0.00     0.065 A 
HETATM    7  C18 UNL     1      41.896  37.058  55.464  1.00  0.00     0.146 A 
HETATM    8  F1  UNL     1      41.737  38.253  56.098  1.00  0.00    -0.204 F 
ENDROOT
BRANCH   5   9
HETATM    9  S1  UNL     1      44.810  35.009  53.625  1.00  0.00    -0.122 SA
BRANCH   9  10
HETATM   10  C6  UNL     1      45.228  35.537  51.977  1.00  0.00     0.052 C 
HETATM   11  C7  UNL     1      44.252  36.511  51.337  1.00  0.00     0.015 C 
HETATM   12  C8  UNL     1      44.574  37.941  51.429  1.00  0.00     0.001 C 
HETATM   13  C9  UNL     1      45.061  38.634  50.186  1.00  0.00     0.000 C 
HETATM   14  C10 UNL     1      44.695  38.049  48.890  1.00  0.00     0.000 C 
HETATM   15  C11 UNL     1      45.552  37.084  48.205  1.00  0.00     0.000 C 
HETATM   16  C12 UNL     1      46.853  36.665  48.793  1.00  0.00     0.000 C 
HETATM   17  C13 UNL     1      46.820  35.246  49.317  1.00  0.00     0.000 C 
HETATM   18  C14 UNL     1      47.359  35.088  50.704  1.00  0.00     0.001 C 
HETATM   19  C15 UNL     1      46.642  35.933  51.733  1.00  0.00     0.015 C 
ENDBRANCH   9  10
ENDBRANCH   5   9
BRANCH   6  20
HETATM   20  C17 UNL     1      44.262  37.578  55.319  1.00  0.00     0.150 C 
HETATM   21  N3  UNL     1      44.572  38.710  54.533  1.00  0.00    -0.080 NA
HETATM   22  N4  UNL     1      44.993  37.357  56.340  1.00  0.00    -0.254 N 
ATOM     23  H4  UNL     1      44.782  36.542  56.916  1.00  0.00     0.195 HD
BRANCH  22  24
HETATM   24  O2  UNL     1      46.044  38.149  56.707  1.00  0.00    -0.288 OA
ATOM     25  H2  UNL     1      46.669  37.918  57.384  1.00  0.00     0.244 HD
ENDBRANCH  22  24
ENDBRANCH   6  20
BRANCH   1  26
HETATM   26  C1  UNL     1      39.484  36.633  55.879  1.00  0.00     0.268 C 
HETATM   27  N1  UNL     1      38.942  36.076  57.076  1.00  0.00    -0.057 NA
HETATM   28  O1  UNL     1      38.772  37.476  55.274  1.00  0.00    -0.271 OA
ENDBRANCH   1  26
TORSDOF 5
ENDMDL
MODEL 4
REMARK VINA RESULT: -8.465476917      0.867      2.059
REMARK  5 active torsions:
REMARK  status: ('A' for Active; 'I' for Inactive)
REMARK    1  A    between atoms: C1_2  and  C2_4 
REMARK    2  A    between atoms: C5_8  and  S1_9 
REMARK    3  A    between atoms: S1_9  and  C6_10 
REMARK    4  A    between atoms: C16_20  and  C17_21 
REMARK    5  A    between atoms: N4_23  and  O2_25 
ROOT
HETATM    1  C2  UNL     1      40.890  37.199  55.374  1.00  0.00     0.070 A 
HETATM    2  C3  UNL     1      41.217  38.530  55.302  1.00  0.00     0.047 A 
HETATM    3  C4  UNL     1      42.535  38.951  55.125  1.00  0.00     0.065 A 
HETATM    4  N2  UNL     1      42.719  40.376  55.012  1.00  0.00    -0.101 NA
HETATM    5  C5  UNL     1      43.557  38.037  55.017  1.00  0.00     0.042 A 
HETATM    6  C16 UNL     1      43.262  36.689  55.076  1.00  0.00     0.065 A 
HETATM    7  C18 UNL     1      41.928  36.315  55.258  1.00  0.00     0.146 A 
HETATM    8  F1  UNL     1      41.611  34.993  55.327  1.00  0.00    -0.204 F 
ENDROOT
BRANCH   5   9
HETATM    9  S1  UNL     1      45.203  38.591  54.842  1.00  0.00    -0.122 SA
BRANCH   9  10
HETATM   10  C6  UNL     1      46.005  39.393  56.214  1.00  0.00     0.052 C 
HETATM   11  C7  UNL     1      46.158  40.900  56.090  1.00  0.00     0.015 C 
HETATM   12  C8  UNL     1      45.137  41.733  56.739  1.00  0.00     0.001 C 
HETATM   13  C9  UNL     1      45.518  42.458  58.001  1.00  0.00     0.000 C 
HETATM   14  C10 UNL     1      46.941  42.742  58.222  1.00  0.00     0.000 C 
HETATM   15  C11 UNL     1      47.808  41.828  58.961  1.00  0.00     0.000 C 
HETATM   16  C12 UNL     1      47.271  40.567  59.541  1.00  0.00     0.000 C 
HETATM   17  C13 UNL     1      47.747  39.339  58.794  1.00  0.00     0.000 C 
HETATM   18  C14 UNL     1      46.658  38.380  58.430  1.00  0.00     0.001 C 
HETATM   19  C15 UNL     1      45.569  38.993  57.579  1.00  0.00     0.015 C 
ENDBRANCH   9  10
ENDBRANCH   5   9
BRANCH   6  20
HETATM   20  C17 UNL     1      44.208  35.628  54.790  1.00  0.00     0.150 C 
HETATM   21  N3  UNL     1      44.665  35.404  53.472  1.00  0.00    -0.080 NA
HETATM   22  N4  UNL     1      44.661  34.862  55.704  1.00  0.00    -0.254 N 
ATOM     23  H4  UNL     1      44.338  35.011  56.660  1.00  0.00     0.195 HD
BRANCH  22  24
HETATM   24  O2  UNL     1      45.553  33.853  55.475  1.00  0.00    -0.288 OA
ATOM     25  H2  UNL     1      46.404  33.796  55.892  1.00  0.00     0.244 HD
ENDBRANCH  22  24
ENDBRANCH   6  20
BRANCH   1  26
HETATM   26  C1  UNL     1      39.512  36.806  55.562  1.00  0.00     0.268 C 
HETATM   27  N1  UNL     1      39.054  36.117  56.723  1.00  0.00    -0.057 NA
HETATM   28  O1  UNL     1      38.651  37.069  54.683  1.00  0.00    -0.271 OA
ENDBRANCH   1  26
TORSDOF 5
ENDMDL
MODEL 5
REMARK VINA RESULT: -8.392335845      4.164      6.211
REMARK  5 active torsions:
REMARK  status: ('A' for Active; 'I' for Inactive)
REMARK    1  A    between atoms: C1_2  and  C2_4 
REMARK    2  A    between atoms: C5_8  and  S1_9 
REMARK    3  A    between atoms: S1_9  and  C6_10 
REMARK    4  A    between atoms: C16_20  and  C17_21 
REMARK    5  A    between atoms: N4_23  and  O2_25 
ROOT
HETATM    1  C2  UNL     1      40.841  37.009  55.060  1.00  0.00     0.070 A 
HETATM    2  C3  UNL     1      41.228  38.192  54.479  1.00  0.00     0.047 A 
HETATM    3  C4  UNL     1      42.519  38.376  53.984  1.00  0.00     0.065 A 
HETATM    4  N2  UNL     1      42.763  39.648  53.352  1.00  0.00    -0.101 NA
HETATM    5  C5  UNL     1      43.453  37.370  54.065  1.00  0.00     0.042 A 
HETATM    6  C16 UNL     1      43.095  36.165  54.635  1.00  0.00     0.065 A 
HETATM    7  C18 UNL     1      41.792  36.028  55.119  1.00  0.00     0.146 A 
HETATM    8  F1  UNL     1      41.415  34.851  55.693  1.00  0.00    -0.204 F 
ENDROOT
BRANCH   5   9
HETATM    9  S1  UNL     1      45.075  37.643  53.479  1.00  0.00    -0.122 SA
BRANCH   9  10
HETATM   10  C6  UNL     1      45.423  37.441  51.744  1.00  0.00     0.052 C 
HETATM   11  C7  UNL     1      45.666  36.012  51.290  1.00  0.00     0.015 C 
HETATM   12  C8  UNL     1      44.522  35.287  50.719  1.00  0.00     0.001 C 
HETATM   13  C9  UNL     1      44.504  35.062  49.231  1.00  0.00     0.000 C 
HETATM   14  C10 UNL     1      45.790  35.073  48.523  1.00  0.00     0.000 C 
HETATM   15  C11 UNL     1      46.337  36.290  47.929  1.00  0.00     0.000 C 
HETATM   16  C12 UNL     1      45.594  37.577  48.003  1.00  0.00     0.000 C 
HETATM   17  C13 UNL     1      46.237  38.562  48.956  1.00  0.00     0.000 C 
HETATM   18  C14 UNL     1      45.287  39.187  49.929  1.00  0.00     0.001 C 
HETATM   19  C15 UNL     1      44.555  38.184  50.792  1.00  0.00     0.015 C 
ENDBRANCH   9  10
ENDBRANCH   5   9
BRANCH   6  20
HETATM   20  C17 UNL     1      43.916  34.970  54.613  1.00  0.00     0.150 C 
HETATM   21  N3  UNL     1      43.692  33.957  53.654  1.00  0.00    -0.080 NA
HETATM   22  N4  UNL     1      44.863  34.785  55.448  1.00  0.00    -0.254 N 
ATOM     23  H4  UNL     1      45.035  35.507  56.147  1.00  0.00     0.195 HD
BRANCH  22  24
HETATM   24  O2  UNL     1      45.659  33.674  55.459  1.00  0.00    -0.288 OA
ATOM     25  H2  UNL     1      45.334  32.793  55.597  1.00  0.00     0.244 HD
ENDBRANCH  22  24
ENDBRANCH   6  20
BRANCH   1  26
HETATM   26  C1  UNL     1      39.494  36.862  55.562  1.00  0.00     0.268 C 
HETATM   27  N1  UNL     1      39.206  36.408  56.884  1.00  0.00    -0.057 NA
HETATM   28  O1  UNL     1      38.509  37.137  54.830  1.00  0.00    -0.271 OA
ENDBRANCH   1  26
TORSDOF 5
ENDMDL
