MODEL 1
REMARK VINA RESULT: -6.702765148      0.000      0.000
REMARK  5 active torsions:
REMARK  status: ('A' for Active; 'I' for Inactive)
REMARK    1  A    between atoms: S1_2  and  C2_3 
REMARK    2  A    between atoms: C2_3  and  C3_4 
REMARK    3  A    between atoms: C3_4  and  S2_5 
REMARK    4  A    between atoms: S2_5  and  C4_6 
REMARK    5  A    between atoms: C8_14  and  N3_15 
REMARK       I    between atoms: N3_15  and  C9_17 
ROOT
HETATM    1  C4  UNL     1      46.673  42.679  58.431  1.00  0.00     0.145 A 
HETATM    2  N1  UNL     1      46.835  41.365  58.664  1.00  0.00    -0.335 N 
ATOM      3  H1  UNL     1      47.363  40.965  59.440  1.00  0.00     0.168 HD
HETATM    4  C5  UNL     1      46.182  40.646  57.702  1.00  0.00     0.065 A 
HETATM    5  C6  UNL     1      46.077  39.287  57.541  1.00  0.00     0.063 A 
HETATM    6  C7  UNL     1      45.338  38.767  56.453  1.00  0.00     0.055 A 
HETATM    7  N2  UNL     1      45.155  37.493  56.177  1.00  0.00    -0.335 N 
ATOM      8  H2  UNL     1      45.559  36.768  56.769  1.00  0.00     0.168 HD
HETATM    9  C8  UNL     1      44.431  37.175  55.108  1.00  0.00     0.152 A 
HETATM   10  S3  UNL     1      43.990  38.685  54.466  1.00  0.00    -0.050 SA
HETATM   11  C10 UNL     1      44.766  39.687  55.615  1.00  0.00     0.059 A 
HETATM   12  C11 UNL     1      44.890  41.073  55.803  1.00  0.00     0.082 A 
HETATM   13 CL1  UNL     1      44.101  42.115  54.650  1.00  0.00    -0.080 Cl
HETATM   14  C12 UNL     1      45.609  41.579  56.864  1.00  0.00     0.084 A 
HETATM   15  N6  UNL     1      45.910  42.799  57.312  1.00  0.00    -0.334 N 
ATOM     16  H6  UNL     1      45.616  43.677  56.884  1.00  0.00     0.168 HD
ENDROOT
BRANCH   9  17
HETATM   17  N3  UNL     1      44.125  36.001  54.653  1.00  0.00    -0.311 N 
HETATM   18  C9  UNL     1      45.133  35.173  54.106  1.00  0.00     0.187 C 
HETATM   19  N4  UNL     1      45.477  34.101  54.752  1.00  0.00    -0.373 N 
HETATM   20  N5  UNL     1      45.722  35.553  52.871  1.00  0.00    -0.064 NA
ATOM     21  H42 UNL     1      45.054  33.827  55.639  1.00  0.00     0.158 HD
ATOM     22  H41 UNL     1      46.204  33.503  54.358  1.00  0.00     0.158 HD
ATOM     23  H3  UNL     1      43.159  35.674  54.689  1.00  0.00     0.170 HD
ENDBRANCH   9  17
BRANCH   1  24
HETATM   24  S2  UNL     1      47.310  44.053  59.374  1.00  0.00    -0.093 SA
BRANCH  24  25
HETATM   25  C3  UNL     1      46.077  44.618  60.574  1.00  0.00     0.092 C 
BRANCH  25  26
HETATM   26  C2  UNL     1      46.794  45.557  61.535  1.00  0.00     0.084 C 
BRANCH  26  27
HETATM   27  S1  UNL     1      48.335  46.142  60.774  1.00  0.00    -0.173 SA
HETATM   28  C1  UNL     1      49.653  45.903  62.009  1.00  0.00     0.089 C 
ENDBRANCH  26  27
ENDBRANCH  25  26
ENDBRANCH  24  25
ENDBRANCH   1  24
TORSDOF 5
ENDMDL
MODEL 2
REMARK VINA RESULT: -6.676374137      2.620      3.666
REMARK  5 active torsions:
REMARK  status: ('A' for Active; 'I' for Inactive)
REMARK    1  A    between atoms: S1_2  and  C2_3 
REMARK    2  A    between atoms: C2_3  and  C3_4 
REMARK    3  A    between atoms: C3_4  and  S2_5 
REMARK    4  A    between atoms: S2_5  and  C4_6 
REMARK    5  A    between atoms: C8_14  and  N3_15 
REMARK       I    between atoms: N3_15  and  C9_17 
ROOT
HETATM    1  C4  UNL     1      46.287  39.182  57.661  1.00  0.00     0.145 A 
HETATM    2  N1  UNL     1      45.862  37.942  57.362  1.00  0.00    -0.335 N 
ATOM      3  H1  UNL     1      46.093  37.098  57.886  1.00  0.00     0.168 HD
HETATM    4  C5  UNL     1      45.072  37.985  56.248  1.00  0.00     0.065 A 
HETATM    5  C6  UNL     1      44.428  36.969  55.588  1.00  0.00     0.063 A 
HETATM    6  C7  UNL     1      43.655  37.260  54.440  1.00  0.00     0.055 A 
HETATM    7  N2  UNL     1      42.988  36.390  53.712  1.00  0.00    -0.335 N 
ATOM      8  H2  UNL     1      42.990  35.398  53.951  1.00  0.00     0.168 HD
HETATM    9  C8  UNL     1      42.310  36.833  52.657  1.00  0.00     0.152 A 
HETATM   10  S3  UNL     1      42.606  38.507  52.674  1.00  0.00    -0.050 SA
HETATM   11  C10 UNL     1      43.607  38.575  54.060  1.00  0.00     0.059 A 
HETATM   12  C11 UNL     1      44.277  39.596  54.754  1.00  0.00     0.082 A 
HETATM   13 CL1  UNL     1      44.117  41.221  54.145  1.00  0.00    -0.080 Cl
HETATM   14  C12 UNL     1      45.029  39.311  55.873  1.00  0.00     0.084 A 
HETATM   15  N6  UNL     1      45.762  40.022  56.730  1.00  0.00    -0.334 N 
ATOM     16  H6  UNL     1      45.906  41.032  56.692  1.00  0.00     0.168 HD
ENDROOT
BRANCH   9  17
HETATM   17  N3  UNL     1      41.592  36.165  51.811  1.00  0.00    -0.311 N 
HETATM   18  C9  UNL     1      40.465  35.439  52.263  1.00  0.00     0.187 C 
HETATM   19  N4  UNL     1      39.282  35.853  51.927  1.00  0.00    -0.373 N 
HETATM   20  N5  UNL     1      40.682  34.287  53.064  1.00  0.00    -0.064 NA
ATOM     21  H42 UNL     1      39.126  36.681  51.351  1.00  0.00     0.158 HD
ATOM     22  H41 UNL     1      38.469  35.330  52.252  1.00  0.00     0.158 HD
ATOM     23  H3  UNL     1      41.837  36.163  50.821  1.00  0.00     0.170 HD
ENDBRANCH   9  17
BRANCH   1  24
HETATM   24  S2  UNL     1      47.338  39.693  59.009  1.00  0.00    -0.093 SA
BRANCH  24  25
HETATM   25  C3  UNL     1      46.576  41.064  59.916  1.00  0.00     0.092 C 
BRANCH  25  26
HETATM   26  C2  UNL     1      47.049  42.349  59.249  1.00  0.00     0.084 C 
BRANCH  26  27
HETATM   27  S1  UNL     1      46.069  43.748  59.865  1.00  0.00    -0.173 SA
HETATM   28  C1  UNL     1      47.150  44.689  60.991  1.00  0.00     0.089 C 
ENDBRANCH  26  27
ENDBRANCH  25  26
ENDBRANCH  24  25
ENDBRANCH   1  24
TORSDOF 5
ENDMDL
MODEL 3
REMARK VINA RESULT: -6.624166385      2.718      8.723
REMARK  5 active torsions:
REMARK  status: ('A' for Active; 'I' for Inactive)
REMARK    1  A    between atoms: S1_2  and  C2_3 
REMARK    2  A    between atoms: C2_3  and  C3_4 
REMARK    3  A    between atoms: C3_4  and  S2_5 
REMARK    4  A    between atoms: S2_5  and  C4_6 
REMARK    5  A    between atoms: C8_14  and  N3_15 
REMARK       I    between atoms: N3_15  and  C9_17 
ROOT
HETATM    1  C4  UNL     1      44.877  37.982  54.696  1.00  0.00     0.145 A 
HETATM    2  N1  UNL     1      44.553  39.276  54.526  1.00  0.00    -0.335 N 
ATOM      3  H1  UNL     1      44.015  39.651  53.745  1.00  0.00     0.168 HD
HETATM    4  C5  UNL     1      45.055  40.013  55.562  1.00  0.00     0.065 A 
HETATM    5  C6  UNL     1      44.972  41.362  55.802  1.00  0.00     0.063 A 
HETATM    6  C7  UNL     1      45.580  41.905  56.957  1.00  0.00     0.055 A 
HETATM    7  N2  UNL     1      45.579  43.173  57.311  1.00  0.00    -0.335 N 
ATOM      8  H2  UNL     1      45.112  43.875  56.738  1.00  0.00     0.168 HD
HETATM    9  C8  UNL     1      46.203  43.517  58.433  1.00  0.00     0.152 A 
HETATM   10  S3  UNL     1      46.808  42.041  59.017  1.00  0.00    -0.050 SA
HETATM   11  C10 UNL     1      46.227  41.018  57.775  1.00  0.00     0.059 A 
HETATM   12  C11 UNL     1      46.298  39.641  57.505  1.00  0.00     0.082 A 
HETATM   13 CL1  UNL     1      47.158  38.641  58.645  1.00  0.00    -0.080 Cl
HETATM   14  C12 UNL     1      45.705  39.112  56.380  1.00  0.00     0.084 A 
HETATM   15  N6  UNL     1      45.591  37.894  55.850  1.00  0.00    -0.334 N 
ATOM     16  H6  UNL     1      45.976  37.036  56.246  1.00  0.00     0.168 HD
ENDROOT
BRANCH   9  17
HETATM   17  N3  UNL     1      46.328  44.691  58.969  1.00  0.00    -0.311 N 
HETATM   18  C9  UNL     1      45.313  45.190  59.817  1.00  0.00     0.187 C 
HETATM   19  N4  UNL     1      45.566  45.316  61.084  1.00  0.00    -0.373 N 
HETATM   20  N5  UNL     1      44.060  45.531  59.242  1.00  0.00    -0.064 NA
ATOM     21  H42 UNL     1      46.466  45.071  61.497  1.00  0.00     0.158 HD
ATOM     22  H41 UNL     1      44.834  45.676  61.697  1.00  0.00     0.158 HD
ATOM     23  H3  UNL     1      47.158  45.254  58.779  1.00  0.00     0.170 HD
ENDBRANCH   9  17
BRANCH   1  24
HETATM   24  S2  UNL     1      44.476  36.597  53.645  1.00  0.00    -0.093 SA
BRANCH  24  25
HETATM   25  C3  UNL     1      42.687  36.307  53.644  1.00  0.00     0.092 C 
BRANCH  25  26
HETATM   26  C2  UNL     1      42.243  36.288  55.101  1.00  0.00     0.084 C 
BRANCH  26  27
HETATM   27  S1  UNL     1      41.063  34.932  55.357  1.00  0.00    -0.173 SA
HETATM   28  C1  UNL     1      39.448  35.703  55.702  1.00  0.00     0.089 C 
ENDBRANCH  26  27
ENDBRANCH  25  26
ENDBRANCH  24  25
ENDBRANCH   1  24
TORSDOF 5
ENDMDL
MODEL 4
REMARK VINA RESULT: -6.613018108      2.919      8.918
REMARK  5 active torsions:
REMARK  status: ('A' for Active; 'I' for Inactive)
REMARK    1  A    between atoms: S1_2  and  C2_3 
REMARK    2  A    between atoms: C2_3  and  C3_4 
REMARK    3  A    between atoms: C3_4  and  S2_5 
REMARK    4  A    between atoms: S2_5  and  C4_6 
REMARK    5  A    between atoms: C8_14  and  N3_15 
REMARK       I    between atoms: N3_15  and  C9_17 
ROOT
HETATM    1  C4  UNL     1      45.889  40.075  56.397  1.00  0.00     0.145 A 
HETATM    2  N1  UNL     1      46.512  40.038  57.589  1.00  0.00    -0.335 N 
ATOM      3  H1  UNL     1      46.969  39.218  57.989  1.00  0.00     0.168 HD
HETATM    4  C5  UNL     1      46.441  41.267  58.180  1.00  0.00     0.065 A 
HETATM    5  C6  UNL     1      46.932  41.690  59.391  1.00  0.00     0.063 A 
HETATM    6  C7  UNL     1      46.731  43.029  59.798  1.00  0.00     0.055 A 
HETATM    7  N2  UNL     1      47.144  43.568  60.925  1.00  0.00    -0.335 N 
ATOM      8  H2  UNL     1      47.664  43.017  61.608  1.00  0.00     0.168 HD
HETATM    9  C8  UNL     1      46.868  44.848  61.154  1.00  0.00     0.152 A 
HETATM   10  S3  UNL     1      46.011  45.321  59.765  1.00  0.00    -0.050 SA
HETATM   11  C10 UNL     1      46.040  43.829  58.928  1.00  0.00     0.059 A 
HETATM   12  C11 UNL     1      45.547  43.371  57.695  1.00  0.00     0.082 A 
HETATM   13 CL1  UNL     1      44.686  44.513  56.698  1.00  0.00    -0.080 Cl
HETATM   14  C12 UNL     1      45.743  42.066  57.299  1.00  0.00     0.084 A 
HETATM   15  N6  UNL     1      45.417  41.339  56.230  1.00  0.00    -0.334 N 
ATOM     16  H6  UNL     1      44.898  41.677  55.419  1.00  0.00     0.168 HD
ENDROOT
BRANCH   9  17
HETATM   17  N3  UNL     1      47.173  45.576  62.182  1.00  0.00    -0.311 N 
HETATM   18  C9  UNL     1      48.402  46.276  62.210  1.00  0.00     0.187 C 
HETATM   19  N4  UNL     1      48.383  47.571  62.133  1.00  0.00    -0.373 N 
HETATM   20  N5  UNL     1      49.602  45.526  62.322  1.00  0.00    -0.064 NA
ATOM     21  H42 UNL     1      47.520  48.110  62.052  1.00  0.00     0.158 HD
ATOM     22  H41 UNL     1      49.269  48.077  62.153  1.00  0.00     0.158 HD
ATOM     23  H3  UNL     1      46.528  45.645  62.970  1.00  0.00     0.170 HD
ENDBRANCH   9  17
BRANCH   1  24
HETATM   24  S2  UNL     1      45.687  38.753  55.217  1.00  0.00    -0.093 SA
BRANCH  24  25
HETATM   25  C3  UNL     1      44.395  37.609  55.769  1.00  0.00     0.092 C 
BRANCH  25  26
HETATM   26  C2  UNL     1      43.061  38.223  55.365  1.00  0.00     0.084 C 
BRANCH  26  27
HETATM   27  S1  UNL     1      41.766  36.952  55.421  1.00  0.00    -0.173 SA
HETATM   28  C1  UNL     1      42.592  35.351  55.141  1.00  0.00     0.089 C 
ENDBRANCH  26  27
ENDBRANCH  25  26
ENDBRANCH  24  25
ENDBRANCH   1  24
TORSDOF 5
ENDMDL
MODEL 5
REMARK VINA RESULT: -6.607413295      2.805      8.721
REMARK  5 active torsions:
REMARK  status: ('A' for Active; 'I' for Inactive)
REMARK    1  A    between atoms: S1_2  and  C2_3 
REMARK    2  A    between atoms: C2_3  and  C3_4 
REMARK    3  A    between atoms: C3_4  and  S2_5 
REMARK    4  A    between atoms: S2_5  and  C4_6 
REMARK    5  A    between atoms: C8_14  and  N3_15 
REMARK       I    between atoms: N3_15  and  C9_17 
ROOT
HETATM    1  C4  UNL     1      44.388  37.792  54.796  1.00  0.00     0.145 A 
HETATM    2  N1  UNL     1      44.172  39.098  54.553  1.00  0.00    -0.335 N 
ATOM      3  H1  UNL     1      43.635  39.470  53.769  1.00  0.00     0.168 HD
HETATM    4  C5  UNL     1      44.782  39.849  55.518  1.00  0.00     0.065 A 
HETATM    5  C6  UNL     1      44.828  41.212  55.671  1.00  0.00     0.063 A 
HETATM    6  C7  UNL     1      45.531  41.770  56.764  1.00  0.00     0.055 A 
HETATM    7  N2  UNL     1      45.658  43.052  57.033  1.00  0.00    -0.335 N 
ATOM      8  H2  UNL     1      45.229  43.756  56.433  1.00  0.00     0.168 HD
HETATM    9  C8  UNL     1      46.358  43.408  58.106  1.00  0.00     0.152 A 
HETATM   10  S3  UNL     1      46.856  41.921  58.762  1.00  0.00    -0.050 SA
HETATM   11  C10 UNL     1      46.133  40.880  57.613  1.00  0.00     0.059 A 
HETATM   12  C11 UNL     1      46.071  39.489  57.432  1.00  0.00     0.082 A 
HETATM   13 CL1  UNL     1      46.890  38.488  58.602  1.00  0.00    -0.080 Cl
HETATM   14  C12 UNL     1      45.385  38.946  56.368  1.00  0.00     0.084 A 
HETATM   15  N6  UNL     1      45.142  37.712  55.925  1.00  0.00    -0.334 N 
ATOM     16  H6  UNL     1      45.468  36.850  56.361  1.00  0.00     0.168 HD
ENDROOT
BRANCH   9  17
HETATM   17  N3  UNL     1      46.609  44.596  58.557  1.00  0.00    -0.311 N 
HETATM   18  C9  UNL     1      47.525  45.430  57.874  1.00  0.00     0.187 C 
HETATM   19  N4  UNL     1      47.073  46.480  57.260  1.00  0.00    -0.373 N 
HETATM   20  N5  UNL     1      48.900  45.078  57.893  1.00  0.00    -0.064 NA
ATOM     21  H42 UNL     1      46.085  46.733  57.247  1.00  0.00     0.158 HD
ATOM     22  H41 UNL     1      47.733  47.082  56.768  1.00  0.00     0.158 HD
ATOM     23  H3  UNL     1      46.146  44.930  59.403  1.00  0.00     0.170 HD
ENDBRANCH   9  17
BRANCH   1  24
HETATM   24  S2  UNL     1      43.821  36.387  53.854  1.00  0.00    -0.093 SA
BRANCH  24  25
HETATM   25  C3  UNL     1      42.015  36.270  53.926  1.00  0.00     0.092 C 
BRANCH  25  26
HETATM   26  C2  UNL     1      41.675  35.447  55.162  1.00  0.00     0.084 C 
BRANCH  26  27
HETATM   27  S1  UNL     1      39.879  35.454  55.421  1.00  0.00    -0.173 SA
HETATM   28  C1  UNL     1      39.224  36.890  54.510  1.00  0.00     0.089 C 
ENDBRANCH  26  27
ENDBRANCH  25  26
ENDBRANCH  24  25
ENDBRANCH   1  24
TORSDOF 5
ENDMDL
