MODEL 1
REMARK VINA RESULT: -8.355167619      0.000      0.000
REMARK  6 active torsions:
REMARK  status: ('A' for Active; 'I' for Inactive)
REMARK    1  A    between atoms: C4_6  and  C5_7 
REMARK    2  A    between atoms: C6_10  and  C7_11 
REMARK    3  A    between atoms: C7_11  and  C8_12 
REMARK    4  A    between atoms: C8_12  and  C9_14 
REMARK    5  A    between atoms: C18_23  and  O1_24 
REMARK    6  A    between atoms: C19_26  and  O2_27 
ROOT
HETATM    1  C5  UNL     1      41.505  39.976  53.693  1.00  0.00     0.093 A 
HETATM    2  N2  UNL     1      42.721  40.114  54.275  1.00  0.00    -0.354 N 
ATOM      3  H2  UNL     1      43.262  40.978  54.273  1.00  0.00     0.166 HD
HETATM    4  C6  UNL     1      43.121  38.983  54.849  1.00  0.00     0.038 A 
HETATM    5  C15 UNL     1      42.095  38.065  54.621  1.00  0.00     0.061 A 
HETATM    6  C16 UNL     1      41.096  38.695  53.901  1.00  0.00     0.004 A 
HETATM    7  C17 UNL     1      39.891  37.971  53.518  1.00  0.00     0.079 C 
HETATM    8  C18 UNL     1      39.485  36.906  54.492  1.00  0.00     0.171 C 
HETATM    9  C19 UNL     1      40.600  36.171  55.125  1.00  0.00     0.247 C 
HETATM   10  N3  UNL     1      41.908  36.714  54.965  1.00  0.00    -0.360 N 
ATOM     11  H3  UNL     1      42.720  36.113  55.102  1.00  0.00     0.162 HD
ENDROOT
BRANCH   4  12
HETATM   12  C7  UNL     1      44.366  38.676  55.587  1.00  0.00     0.080 C 
BRANCH  12  13
HETATM   13  C8  UNL     1      45.450  39.673  55.359  1.00  0.00     0.092 C 
HETATM   14 CL1  UNL     1      46.582  39.098  54.120  1.00  0.00    -0.124 Cl
BRANCH  13  15
HETATM   15  C9  UNL     1      46.234  40.002  56.602  1.00  0.00     0.004 C 
HETATM   16  C10 UNL     1      45.798  41.259  57.275  1.00  0.00     0.006 C 
HETATM   17  C11 UNL     1      46.731  41.487  58.457  1.00  0.00     0.000 C 
HETATM   18  C12 UNL     1      46.391  40.424  59.481  1.00  0.00     0.000 C 
HETATM   19  C13 UNL     1      46.777  39.092  58.882  1.00  0.00     0.000 C 
HETATM   20  C14 UNL     1      46.063  38.851  57.571  1.00  0.00     0.006 C 
ENDBRANCH  13  15
ENDBRANCH  12  13
ENDBRANCH   4  12
BRANCH   1  21
HETATM   21  C4  UNL     1      40.788  41.021  52.980  1.00  0.00     0.175 A 
HETATM   22  N1  UNL     1      40.672  42.324  53.279  1.00  0.00    -0.342 N 
HETATM   23  C3  UNL     1      39.920  42.949  52.360  1.00  0.00     0.122 A 
ATOM     24  H1  UNL     1      41.096  42.775  54.090  1.00  0.00     0.167 HD
HETATM   25  C2  UNL     1      39.561  41.974  51.457  1.00  0.00     0.067 A 
HETATM   26  C1  UNL     1      38.712  42.209  50.246  1.00  0.00     0.078 C 
HETATM   27  O3  UNL     1      40.095  40.850  51.861  1.00  0.00    -0.295 OA
ENDBRANCH   1  21
BRANCH   9  28
HETATM   28  O2  UNL     1      40.359  35.971  56.498  1.00  0.00    -0.374 OA
ATOM     29  H2  UNL     1      40.903  35.272  56.842  1.00  0.00     0.212 HD
ENDBRANCH   9  28
BRANCH   8  30
HETATM   30  O1  UNL     1      38.755  37.547  55.521  1.00  0.00    -0.391 OA
ATOM     31  H1  UNL     1      39.296  38.261  55.837  1.00  0.00     0.210 HD
ENDBRANCH   8  30
TORSDOF 6
ENDMDL
MODEL 2
REMARK VINA RESULT: -8.213211629      0.511      1.078
REMARK  6 active torsions:
REMARK  status: ('A' for Active; 'I' for Inactive)
REMARK    1  A    between atoms: C4_6  and  C5_7 
REMARK    2  A    between atoms: C6_10  and  C7_11 
REMARK    3  A    between atoms: C7_11  and  C8_12 
REMARK    4  A    between atoms: C8_12  and  C9_14 
REMARK    5  A    between atoms: C18_23  and  O1_24 
REMARK    6  A    between atoms: C19_26  and  O2_27 
ROOT
HETATM    1  C5  UNL     1      41.345  39.625  53.446  1.00  0.00     0.093 A 
HETATM    2  N2  UNL     1      42.617  39.708  53.903  1.00  0.00    -0.354 N 
ATOM      3  H2  UNL     1      43.194  40.547  53.844  1.00  0.00     0.166 HD
HETATM    4  C6  UNL     1      43.022  38.561  54.440  1.00  0.00     0.038 A 
HETATM    5  C15 UNL     1      41.940  37.689  54.319  1.00  0.00     0.061 A 
HETATM    6  C16 UNL     1      40.903  38.363  53.698  1.00  0.00     0.004 A 
HETATM    7  C17 UNL     1      39.634  37.693  53.441  1.00  0.00     0.079 C 
HETATM    8  C18 UNL     1      39.281  36.647  54.455  1.00  0.00     0.171 C 
HETATM    9  C19 UNL     1      40.419  35.864  54.977  1.00  0.00     0.247 C 
HETATM   10  N3  UNL     1      41.727  36.348  54.686  1.00  0.00    -0.360 N 
ATOM     11  H3  UNL     1      42.522  35.712  54.744  1.00  0.00     0.162 HD
ENDROOT
BRANCH   4  12
HETATM   12  C7  UNL     1      44.319  38.198  55.052  1.00  0.00     0.080 C 
BRANCH  12  13
HETATM   13  C8  UNL     1      45.208  39.371  55.293  1.00  0.00     0.092 C 
HETATM   14 CL1  UNL     1      46.779  39.142  54.500  1.00  0.00    -0.124 Cl
BRANCH  13  15
HETATM   15  C9  UNL     1      45.450  39.651  56.753  1.00  0.00     0.004 C 
HETATM   16  C10 UNL     1      46.511  38.798  57.362  1.00  0.00     0.006 C 
HETATM   17  C11 UNL     1      46.578  39.146  58.843  1.00  0.00     0.000 C 
HETATM   18  C12 UNL     1      47.176  40.535  58.928  1.00  0.00     0.000 C 
HETATM   19  C13 UNL     1      46.178  41.486  58.309  1.00  0.00     0.000 C 
HETATM   20  C14 UNL     1      45.865  41.101  56.881  1.00  0.00     0.006 C 
ENDBRANCH  13  15
ENDBRANCH  12  13
ENDBRANCH   4  12
BRANCH   1  21
HETATM   21  C4  UNL     1      40.608  40.701  52.802  1.00  0.00     0.175 A 
HETATM   22  N1  UNL     1      40.681  42.023  53.016  1.00  0.00    -0.342 N 
HETATM   23  C3  UNL     1      39.828  42.674  52.210  1.00  0.00     0.122 A 
ATOM     24  H1  UNL     1      41.298  42.470  53.694  1.00  0.00     0.167 HD
HETATM   25  C2  UNL     1      39.205  41.695  51.469  1.00  0.00     0.067 A 
HETATM   26  C1  UNL     1      38.161  41.954  50.427  1.00  0.00     0.078 C 
HETATM   27  O3  UNL     1      39.695  40.544  51.851  1.00  0.00    -0.295 OA
ENDBRANCH   1  21
BRANCH   9  28
HETATM   28  O2  UNL     1      40.307  35.675  56.369  1.00  0.00    -0.374 OA
ATOM     29  H2  UNL     1      41.162  35.669  56.782  1.00  0.00     0.212 HD
ENDBRANCH   9  28
BRANCH   8  30
HETATM   30  O1  UNL     1      38.686  37.320  55.547  1.00  0.00    -0.391 OA
ATOM     31  H1  UNL     1      39.285  37.240  56.280  1.00  0.00     0.210 HD
ENDBRANCH   8  30
TORSDOF 6
ENDMDL
MODEL 3
REMARK VINA RESULT: -8.164054841      0.779      1.102
REMARK  6 active torsions:
REMARK  status: ('A' for Active; 'I' for Inactive)
REMARK    1  A    between atoms: C4_6  and  C5_7 
REMARK    2  A    between atoms: C6_10  and  C7_11 
REMARK    3  A    between atoms: C7_11  and  C8_12 
REMARK    4  A    between atoms: C8_12  and  C9_14 
REMARK    5  A    between atoms: C18_23  and  O1_24 
REMARK    6  A    between atoms: C19_26  and  O2_27 
ROOT
HETATM    1  C5  UNL     1      41.659  40.209  53.915  1.00  0.00     0.093 A 
HETATM    2  N2  UNL     1      42.881  40.287  54.494  1.00  0.00    -0.354 N 
ATOM      3  H2  UNL     1      43.438  41.140  54.543  1.00  0.00     0.166 HD
HETATM    4  C6  UNL     1      43.265  39.115  54.990  1.00  0.00     0.038 A 
HETATM    5  C15 UNL     1      42.222  38.231  54.711  1.00  0.00     0.061 A 
HETATM    6  C16 UNL     1      41.229  38.924  54.042  1.00  0.00     0.004 A 
HETATM    7  C17 UNL     1      40.008  38.247  53.624  1.00  0.00     0.079 C 
HETATM    8  C18 UNL     1      39.591  37.128  54.530  1.00  0.00     0.171 C 
HETATM    9  C19 UNL     1      40.697  36.335  55.104  1.00  0.00     0.247 C 
HETATM   10  N3  UNL     1      42.013  36.864  54.969  1.00  0.00    -0.360 N 
ATOM     11  H3  UNL     1      42.816  36.242  55.059  1.00  0.00     0.162 HD
ENDROOT
BRANCH   4  12
HETATM   12  C7  UNL     1      44.510  38.738  55.695  1.00  0.00     0.080 C 
BRANCH  12  13
HETATM   13  C8  UNL     1      45.626  39.703  55.481  1.00  0.00     0.092 C 
HETATM   14 CL1  UNL     1      46.799  39.059  54.317  1.00  0.00    -0.124 Cl
BRANCH  13  15
HETATM   15  C9  UNL     1      46.362  40.061  56.746  1.00  0.00     0.004 C 
HETATM   16  C10 UNL     1      45.877  41.315  57.391  1.00  0.00     0.006 C 
HETATM   17  C11 UNL     1      46.765  41.575  58.600  1.00  0.00     0.000 C 
HETATM   18  C12 UNL     1      46.413  40.515  59.624  1.00  0.00     0.000 C 
HETATM   19  C13 UNL     1      46.847  39.186  59.052  1.00  0.00     0.000 C 
HETATM   20  C14 UNL     1      46.182  38.917  57.721  1.00  0.00     0.006 C 
ENDBRANCH  13  15
ENDBRANCH  12  13
ENDBRANCH   4  12
BRANCH   1  21
HETATM   21  C4  UNL     1      40.955  41.310  53.277  1.00  0.00     0.175 A 
HETATM   22  N1  UNL     1      40.041  41.275  52.296  1.00  0.00    -0.342 N 
HETATM   23  C3  UNL     1      39.636  42.518  51.992  1.00  0.00     0.122 A 
ATOM     24  H1  UNL     1      39.702  40.425  51.846  1.00  0.00     0.167 HD
HETATM   25  C2  UNL     1      40.341  43.349  52.832  1.00  0.00     0.067 A 
HETATM   26  C1  UNL     1      40.215  44.842  52.853  1.00  0.00     0.078 C 
HETATM   27  O3  UNL     1      41.109  42.595  53.575  1.00  0.00    -0.295 OA
ENDBRANCH   1  21
BRANCH   9  28
HETATM   28  O2  UNL     1      40.462  36.050  56.464  1.00  0.00    -0.374 OA
ATOM     29  H2  UNL     1      39.654  35.563  56.575  1.00  0.00     0.212 HD
ENDBRANCH   9  28
BRANCH   8  30
HETATM   30  O1  UNL     1      38.880  37.714  55.604  1.00  0.00    -0.391 OA
ATOM     31  H1  UNL     1      39.044  37.174  56.369  1.00  0.00     0.210 HD
ENDBRANCH   8  30
TORSDOF 6
ENDMDL
MODEL 4
REMARK VINA RESULT: -7.941492889      2.285      3.009
REMARK  6 active torsions:
REMARK  status: ('A' for Active; 'I' for Inactive)
REMARK    1  A    between atoms: C4_6  and  C5_7 
REMARK    2  A    between atoms: C6_10  and  C7_11 
REMARK    3  A    between atoms: C7_11  and  C8_12 
REMARK    4  A    between atoms: C8_12  and  C9_14 
REMARK    5  A    between atoms: C18_23  and  O1_24 
REMARK    6  A    between atoms: C19_26  and  O2_27 
ROOT
HETATM    1  C5  UNL     1      42.441  38.000  54.027  1.00  0.00     0.093 A 
HETATM    2  N2  UNL     1      42.969  38.718  55.048  1.00  0.00    -0.354 N 
ATOM      3  H2  UNL     1      42.551  39.567  55.428  1.00  0.00     0.166 HD
HETATM    4  C6  UNL     1      44.100  38.179  55.493  1.00  0.00     0.038 A 
HETATM    5  C15 UNL     1      44.308  37.044  54.707  1.00  0.00     0.061 A 
HETATM    6  C16 UNL     1      43.269  36.945  53.800  1.00  0.00     0.004 A 
HETATM    7  C17 UNL     1      43.223  35.844  52.845  1.00  0.00     0.079 C 
HETATM    8  C18 UNL     1      43.833  34.572  53.352  1.00  0.00     0.171 C 
HETATM    9  C19 UNL     1      45.027  34.741  54.205  1.00  0.00     0.247 C 
HETATM   10  N3  UNL     1      45.309  36.056  54.674  1.00  0.00    -0.360 N 
ATOM     11  H3  UNL     1      46.250  36.285  54.991  1.00  0.00     0.162 HD
ENDROOT
BRANCH   4  12
HETATM   12  C7  UNL     1      45.006  38.619  56.576  1.00  0.00     0.080 C 
BRANCH  12  13
HETATM   13  C8  UNL     1      45.839  39.800  56.206  1.00  0.00     0.092 C 
HETATM   14 CL1  UNL     1      46.931  39.404  54.865  1.00  0.00    -0.124 Cl
BRANCH  13  15
HETATM   15  C9  UNL     1      46.664  40.333  57.348  1.00  0.00     0.004 C 
HETATM   16  C10 UNL     1      46.086  41.545  57.995  1.00  0.00     0.006 C 
HETATM   17  C11 UNL     1      47.068  42.000  59.066  1.00  0.00     0.000 C 
HETATM   18  C12 UNL     1      47.003  40.967  60.172  1.00  0.00     0.000 C 
HETATM   19  C13 UNL     1      47.551  39.677  59.607  1.00  0.00     0.000 C 
HETATM   20  C14 UNL     1      46.774  39.237  58.387  1.00  0.00     0.006 C 
ENDBRANCH  13  15
ENDBRANCH  12  13
ENDBRANCH   4  12
BRANCH   1  21
HETATM   21  C4  UNL     1      41.213  38.321  53.317  1.00  0.00     0.175 A 
HETATM   22  N1  UNL     1      40.105  37.580  53.166  1.00  0.00    -0.342 N 
HETATM   23  C3  UNL     1      39.195  38.246  52.437  1.00  0.00     0.122 A 
ATOM     24  H1  UNL     1      39.973  36.645  53.550  1.00  0.00     0.167 HD
HETATM   25  C2  UNL     1      39.782  39.452  52.131  1.00  0.00     0.067 A 
HETATM   26  C1  UNL     1      39.132  40.533  51.323  1.00  0.00     0.078 C 
HETATM   27  O3  UNL     1      40.974  39.455  52.670  1.00  0.00    -0.295 OA
ENDBRANCH   1  21
BRANCH   9  28
HETATM   28  O2  UNL     1      44.988  33.866  55.309  1.00  0.00    -0.374 OA
ATOM     29  H2  UNL     1      44.972  34.349  56.127  1.00  0.00     0.212 HD
ENDBRANCH   9  28
BRANCH   8  30
HETATM   30  O1  UNL     1      42.842  33.922  54.125  1.00  0.00    -0.391 OA
ATOM     31  H1  UNL     1      42.722  34.441  54.912  1.00  0.00     0.210 HD
ENDBRANCH   8  30
TORSDOF 6
ENDMDL
MODEL 5
REMARK VINA RESULT: -7.934201092      3.570      6.513
REMARK  6 active torsions:
REMARK  status: ('A' for Active; 'I' for Inactive)
REMARK    1  A    between atoms: C4_6  and  C5_7 
REMARK    2  A    between atoms: C6_10  and  C7_11 
REMARK    3  A    between atoms: C7_11  and  C8_12 
REMARK    4  A    between atoms: C8_12  and  C9_14 
REMARK    5  A    between atoms: C18_23  and  O1_24 
REMARK    6  A    between atoms: C19_26  and  O2_27 
ROOT
HETATM    1  C5  UNL     1      43.970  37.567  55.440  1.00  0.00     0.093 A 
HETATM    2  N2  UNL     1      44.341  36.401  54.858  1.00  0.00    -0.354 N 
ATOM      3  H2  UNL     1      45.292  36.035  54.864  1.00  0.00     0.166 HD
HETATM    4  C6  UNL     1      43.310  35.793  54.278  1.00  0.00     0.038 A 
HETATM    5  C15 UNL     1      42.211  36.623  54.504  1.00  0.00     0.061 A 
HETATM    6  C16 UNL     1      42.635  37.723  55.228  1.00  0.00     0.004 A 
HETATM    7  C17 UNL     1      41.691  38.764  55.613  1.00  0.00     0.079 C 
HETATM    8  C18 UNL     1      40.297  38.265  55.851  1.00  0.00     0.171 C 
HETATM    9  C19 UNL     1      39.852  37.181  54.951  1.00  0.00     0.247 C 
HETATM   10  N3  UNL     1      40.850  36.548  54.155  1.00  0.00    -0.360 N 
ATOM     11  H3  UNL     1      40.574  36.032  53.320  1.00  0.00     0.162 HD
ENDROOT
BRANCH   4  12
HETATM   12  C7  UNL     1      43.251  34.518  53.532  1.00  0.00     0.080 C 
BRANCH  12  13
HETATM   13  C8  UNL     1      44.386  34.335  52.581  1.00  0.00     0.092 C 
HETATM   14 CL1  UNL     1      45.935  34.336  53.445  1.00  0.00    -0.124 Cl
BRANCH  13  15
HETATM   15  C9  UNL     1      44.442  35.388  51.505  1.00  0.00     0.004 C 
HETATM   16  C10 UNL     1      45.682  36.215  51.535  1.00  0.00     0.006 C 
HETATM   17  C11 UNL     1      45.550  37.271  50.446  1.00  0.00     0.000 C 
HETATM   18  C12 UNL     1      45.668  36.538  49.125  1.00  0.00     0.000 C 
HETATM   19  C13 UNL     1      44.457  35.643  49.004  1.00  0.00     0.000 C 
HETATM   20  C14 UNL     1      44.365  34.682  50.168  1.00  0.00     0.006 C 
ENDBRANCH  13  15
ENDBRANCH  12  13
ENDBRANCH   4  12
BRANCH   1  21
HETATM   21  C4  UNL     1      44.856  38.473  56.154  1.00  0.00     0.175 A 
HETATM   22  N1  UNL     1      45.208  39.730  55.846  1.00  0.00    -0.342 N 
HETATM   23  C3  UNL     1      46.051  40.218  56.770  1.00  0.00     0.122 A 
ATOM     24  H1  UNL     1      44.881  40.242  55.027  1.00  0.00     0.167 HD
HETATM   25  C2  UNL     1      46.218  39.204  57.685  1.00  0.00     0.067 A 
HETATM   26  C1  UNL     1      47.084  39.294  58.904  1.00  0.00     0.078 C 
HETATM   27  O3  UNL     1      45.495  38.190  57.283  1.00  0.00    -0.295 OA
ENDBRANCH   1  21
BRANCH   9  28
HETATM   28  O2  UNL     1      39.145  36.192  55.661  1.00  0.00    -0.374 OA
ATOM     29  H2  UNL     1      38.656  35.632  55.070  1.00  0.00     0.212 HD
ENDBRANCH   9  28
BRANCH   8  30
HETATM   30  O1  UNL     1      40.261  37.765  57.174  1.00  0.00    -0.391 OA
ATOM     31  H1  UNL     1      39.749  38.380  57.686  1.00  0.00     0.210 HD
ENDBRANCH   8  30
TORSDOF 6
ENDMDL
