MODEL 1
REMARK VINA RESULT: -8.260992593      0.000      0.000
REMARK  7 active torsions:
REMARK  status: ('A' for Active; 'I' for Inactive)
REMARK    1  A    between atoms: C2_2  and  C3_3 
REMARK    2  A    between atoms: C3_3  and  O1_4 
REMARK    3  A    between atoms: C3_3  and  O2_6 
REMARK    4  A    between atoms: O2_6  and  C4_7 
REMARK    5  A    between atoms: C12_18  and  C14_20 
REMARK    6  A    between atoms: C14_20  and  C15_21 
REMARK    7  A    between atoms: C15_21  and  C16_22 
ROOT
HETATM    1  C4  UNL     1       8.392  19.108  51.055  1.00  0.00     0.210 C 
HETATM    2  C5  UNL     1       8.250  20.298  52.013  1.00  0.00     0.158 C 
HETATM    3  O3  UNL     1       7.961  20.262  53.166  1.00  0.00    -0.295 OA
HETATM    4  C6  UNL     1       8.551  21.502  51.201  1.00  0.00     0.105 C 
HETATM    5  C7  UNL     1       9.253  20.994  49.926  1.00  0.00     0.082 C 
HETATM    6  C8  UNL     1      10.392  21.915  49.717  1.00  0.00    -0.008 C 
HETATM    7  C9  UNL     1      10.106  23.166  49.301  1.00  0.00    -0.003 C 
HETATM    8  C10 UNL     1       8.743  23.638  49.056  1.00  0.00     0.206 C 
HETATM    9  O4  UNL     1       7.891  22.550  48.665  1.00  0.00    -0.317 OA
HETATM   10  C11 UNL     1       8.319  21.225  48.831  1.00  0.00     0.273 C 
HETATM   11  O5  UNL     1       7.838  20.416  48.009  1.00  0.00    -0.264 OA
HETATM   12  C12 UNL     1       9.596  19.631  50.286  1.00  0.00     0.010 C 
HETATM   13  C13 UNL     1      10.661  19.752  51.416  1.00  0.00     0.020 C 
ENDROOT
BRANCH  12  14
HETATM   14  C14 UNL     1      10.152  18.666  49.336  1.00  0.00     0.014 C 
BRANCH  14  15
HETATM   15  C15 UNL     1      11.627  18.398  49.428  1.00  0.00     0.010 C 
BRANCH  15  16
HETATM   16  C16 UNL     1      12.269  18.234  48.090  1.00  0.00     0.021 C 
HETATM   17  C17 UNL     1      13.228  19.271  47.678  1.00  0.00    -0.084 C 
HETATM   18  C18 UNL     1      13.960  19.991  48.480  1.00  0.00     0.014 C 
HETATM   19  C19 UNL     1      13.358  19.464  46.182  1.00  0.00     0.034 C 
HETATM   20  C20 UNL     1      13.066  18.059  45.624  1.00  0.00     0.005 C 
HETATM   21  C21 UNL     1      13.694  17.032  46.559  1.00  0.00     0.010 C 
HETATM   22  C22 UNL     1      12.787  16.845  47.793  1.00  0.00    -0.040 C 
HETATM   23  C23 UNL     1      11.689  15.888  47.377  1.00  0.00     0.015 C 
HETATM   24  C24 UNL     1      13.635  16.250  48.863  1.00  0.00     0.015 C 
ENDBRANCH  15  16
ENDBRANCH  14  15
ENDBRANCH  12  14
BRANCH   1  25
HETATM   25  O2  UNL     1       7.197  19.045  50.395  1.00  0.00    -0.317 OA
BRANCH  25  26
HETATM   26  C3  UNL     1       6.490  17.954  49.982  1.00  0.00     0.177 C 
BRANCH  26  27
HETATM   27  C2  UNL     1       5.783  17.767  48.736  1.00  0.00     0.053 C 
HETATM   28  C1  UNL     1       5.375  16.587  48.351  1.00  0.00     0.016 C 
ENDBRANCH  26  27
BRANCH  26  29
HETATM   29  O1  UNL     1       6.471  16.973  50.853  1.00  0.00    -0.341 OA
ATOM     30  H1  UNL     1       6.654  16.094  50.540  1.00  0.00     0.220 HD
ENDBRANCH  26  29
ENDBRANCH  25  26
ENDBRANCH   1  25
TORSDOF 7
ENDMDL
MODEL 2
REMARK VINA RESULT: -8.117553438      2.313      4.774
REMARK  7 active torsions:
REMARK  status: ('A' for Active; 'I' for Inactive)
REMARK    1  A    between atoms: C2_2  and  C3_3 
REMARK    2  A    between atoms: C3_3  and  O1_4 
REMARK    3  A    between atoms: C3_3  and  O2_6 
REMARK    4  A    between atoms: O2_6  and  C4_7 
REMARK    5  A    between atoms: C12_18  and  C14_20 
REMARK    6  A    between atoms: C14_20  and  C15_21 
REMARK    7  A    between atoms: C15_21  and  C16_22 
ROOT
HETATM    1  C4  UNL     1      11.193  20.985  49.536  1.00  0.00     0.210 C 
HETATM    2  C5  UNL     1      10.655  22.289  50.140  1.00  0.00     0.158 C 
HETATM    3  O3  UNL     1      10.924  23.399  49.810  1.00  0.00    -0.295 OA
HETATM    4  C6  UNL     1       9.727  21.875  51.220  1.00  0.00     0.105 C 
HETATM    5  C7  UNL     1       9.417  20.385  50.971  1.00  0.00     0.082 C 
HETATM    6  C8  UNL     1       7.957  20.254  51.167  1.00  0.00    -0.008 C 
HETATM    7  C9  UNL     1       7.493  20.345  52.430  1.00  0.00    -0.003 C 
HETATM    8  C10 UNL     1       8.359  20.565  53.590  1.00  0.00     0.206 C 
HETATM    9  O4  UNL     1       9.669  20.028  53.354  1.00  0.00    -0.317 OA
HETATM   10  C11 UNL     1      10.055  19.652  52.058  1.00  0.00     0.273 C 
HETATM   11  O5  UNL     1      10.898  18.732  52.012  1.00  0.00    -0.264 OA
HETATM   12  C12 UNL     1       9.896  20.194  49.614  1.00  0.00     0.010 C 
HETATM   13  C13 UNL     1       8.953  21.048  48.715  1.00  0.00     0.020 C 
ENDROOT
BRANCH  12  14
HETATM   14  C14 UNL     1       9.965  18.884  48.966  1.00  0.00     0.014 C 
BRANCH  14  15
HETATM   15  C15 UNL     1      10.479  18.854  47.554  1.00  0.00     0.010 C 
BRANCH  15  16
HETATM   16  C16 UNL     1      11.730  18.053  47.412  1.00  0.00     0.021 C 
HETATM   17  C17 UNL     1      11.636  16.611  47.694  1.00  0.00    -0.084 C 
HETATM   18  C18 UNL     1      10.571  15.876  47.543  1.00  0.00     0.014 C 
HETATM   19  C19 UNL     1      12.919  15.968  48.176  1.00  0.00     0.034 C 
HETATM   20  C20 UNL     1      14.009  16.807  47.483  1.00  0.00     0.005 C 
HETATM   21  C21 UNL     1      13.527  17.152  46.078  1.00  0.00     0.010 C 
HETATM   22  C22 UNL     1      12.527  18.325  46.156  1.00  0.00    -0.040 C 
HETATM   23  C23 UNL     1      13.355  19.589  46.251  1.00  0.00     0.015 C 
HETATM   24  C24 UNL     1      11.737  18.300  44.894  1.00  0.00     0.015 C 
ENDBRANCH  15  16
ENDBRANCH  14  15
ENDBRANCH  12  14
BRANCH   1  25
HETATM   25  O2  UNL     1      12.215  20.610  50.362  1.00  0.00    -0.317 OA
BRANCH  25  26
HETATM   26  C3  UNL     1      13.322  19.862  50.090  1.00  0.00     0.177 C 
BRANCH  26  27
HETATM   27  C2  UNL     1      14.520  20.262  49.388  1.00  0.00     0.053 C 
HETATM   28  C1  UNL     1      15.572  20.700  50.025  1.00  0.00     0.016 C 
ENDBRANCH  26  27
BRANCH  26  29
HETATM   29  O1  UNL     1      13.253  18.630  50.537  1.00  0.00    -0.341 OA
ATOM     30  H1  UNL     1      13.501  18.468  51.440  1.00  0.00     0.220 HD
ENDBRANCH  26  29
ENDBRANCH  25  26
ENDBRANCH   1  25
TORSDOF 7
ENDMDL
MODEL 3
REMARK VINA RESULT: -7.876550900      1.171      1.797
REMARK  7 active torsions:
REMARK  status: ('A' for Active; 'I' for Inactive)
REMARK    1  A    between atoms: C2_2  and  C3_3 
REMARK    2  A    between atoms: C3_3  and  O1_4 
REMARK    3  A    between atoms: C3_3  and  O2_6 
REMARK    4  A    between atoms: O2_6  and  C4_7 
REMARK    5  A    between atoms: C12_18  and  C14_20 
REMARK    6  A    between atoms: C14_20  and  C15_21 
REMARK    7  A    between atoms: C15_21  and  C16_22 
ROOT
HETATM    1  C4  UNL     1       8.119  18.948  50.164  1.00  0.00     0.210 C 
HETATM    2  C5  UNL     1       8.099  20.025  51.257  1.00  0.00     0.158 C 
HETATM    3  O3  UNL     1       7.837  19.877  52.408  1.00  0.00    -0.295 OA
HETATM    4  C6  UNL     1       8.479  21.289  50.580  1.00  0.00     0.105 C 
HETATM    5  C7  UNL     1       9.106  20.880  49.232  1.00  0.00     0.082 C 
HETATM    6  C8  UNL     1      10.312  21.725  49.092  1.00  0.00    -0.008 C 
HETATM    7  C9  UNL     1      10.121  23.036  48.833  1.00  0.00    -0.003 C 
HETATM    8  C10 UNL     1       8.795  23.640  48.690  1.00  0.00     0.206 C 
HETATM    9  O4  UNL     1       7.847  22.678  48.206  1.00  0.00    -0.317 OA
HETATM   10  C11 UNL     1       8.168  21.312  48.202  1.00  0.00     0.273 C 
HETATM   11  O5  UNL     1       7.602  20.646  47.310  1.00  0.00    -0.264 OA
HETATM   12  C12 UNL     1       9.343  19.461  49.420  1.00  0.00     0.010 C 
HETATM   13  C13 UNL     1      10.442  19.363  50.520  1.00  0.00     0.020 C 
ENDROOT
BRANCH  12  14
HETATM   14  C14 UNL     1       9.794  18.574  48.347  1.00  0.00     0.014 C 
BRANCH  14  15
HETATM   15  C15 UNL     1      10.741  19.158  47.338  1.00  0.00     0.010 C 
BRANCH  15  16
HETATM   16  C16 UNL     1      11.716  18.157  46.813  1.00  0.00     0.021 C 
HETATM   17  C17 UNL     1      11.969  18.168  45.363  1.00  0.00    -0.084 C 
HETATM   18  C18 UNL     1      11.877  19.208  44.584  1.00  0.00     0.014 C 
HETATM   19  C19 UNL     1      12.393  16.838  44.778  1.00  0.00     0.034 C 
HETATM   20  C20 UNL     1      13.144  16.169  45.943  1.00  0.00     0.005 C 
HETATM   21  C21 UNL     1      13.944  17.241  46.676  1.00  0.00     0.010 C 
HETATM   22  C22 UNL     1      13.000  18.036  47.602  1.00  0.00    -0.040 C 
HETATM   23  C23 UNL     1      12.837  17.209  48.861  1.00  0.00     0.015 C 
HETATM   24  C24 UNL     1      13.677  19.329  47.899  1.00  0.00     0.015 C 
ENDBRANCH  15  16
ENDBRANCH  14  15
ENDBRANCH  12  14
BRANCH   1  25
HETATM   25  O2  UNL     1       6.907  19.059  49.541  1.00  0.00    -0.317 OA
BRANCH  25  26
HETATM   26  C3  UNL     1       6.171  18.106  48.899  1.00  0.00     0.177 C 
BRANCH  26  27
HETATM   27  C2  UNL     1       6.127  16.686  49.160  1.00  0.00     0.053 C 
HETATM   28  C1  UNL     1       6.865  15.844  48.488  1.00  0.00     0.016 C 
ENDBRANCH  26  27
BRANCH  26  29
HETATM   29  O1  UNL     1       5.424  18.578  47.929  1.00  0.00    -0.341 OA
ATOM     30  H1  UNL     1       4.835  19.297  48.129  1.00  0.00     0.220 HD
ENDBRANCH  26  29
ENDBRANCH  25  26
ENDBRANCH   1  25
TORSDOF 7
ENDMDL
MODEL 4
REMARK VINA RESULT: -7.833800751      2.243      5.813
REMARK  7 active torsions:
REMARK  status: ('A' for Active; 'I' for Inactive)
REMARK    1  A    between atoms: C2_2  and  C3_3 
REMARK    2  A    between atoms: C3_3  and  O1_4 
REMARK    3  A    between atoms: C3_3  and  O2_6 
REMARK    4  A    between atoms: O2_6  and  C4_7 
REMARK    5  A    between atoms: C12_18  and  C14_20 
REMARK    6  A    between atoms: C14_20  and  C15_21 
REMARK    7  A    between atoms: C15_21  and  C16_22 
ROOT
HETATM    1  C4  UNL     1      11.270  19.919  50.326  1.00  0.00     0.210 C 
HETATM    2  C5  UNL     1      11.420  19.721  51.841  1.00  0.00     0.158 C 
HETATM    3  O3  UNL     1      12.390  19.355  52.425  1.00  0.00    -0.295 OA
HETATM    4  C6  UNL     1      10.106  20.085  52.423  1.00  0.00     0.105 C 
HETATM    5  C7  UNL     1       9.354  20.867  51.328  1.00  0.00     0.082 C 
HETATM    6  C8  UNL     1       8.749  22.024  52.024  1.00  0.00    -0.008 C 
HETATM    7  C9  UNL     1       7.706  21.777  52.842  1.00  0.00    -0.003 C 
HETATM    8  C10 UNL     1       7.163  20.436  53.066  1.00  0.00     0.206 C 
HETATM    9  O4  UNL     1       7.372  19.604  51.915  1.00  0.00    -0.317 OA
HETATM   10  C11 UNL     1       8.254  20.010  50.902  1.00  0.00     0.273 C 
HETATM   11  O5  UNL     1       7.974  19.580  49.764  1.00  0.00    -0.264 OA
HETATM   12  C12 UNL     1      10.414  21.175  50.386  1.00  0.00     0.010 C 
HETATM   13  C13 UNL     1      11.361  22.163  51.131  1.00  0.00     0.020 C 
ENDROOT
BRANCH  12  14
HETATM   14  C14 UNL     1      10.173  21.786  49.079  1.00  0.00     0.014 C 
BRANCH  14  15
HETATM   15  C15 UNL     1      10.212  23.287  49.015  1.00  0.00     0.010 C 
BRANCH  15  16
HETATM   16  C16 UNL     1       8.999  23.869  48.370  1.00  0.00     0.021 C 
HETATM   17  C17 UNL     1       8.079  24.624  49.236  1.00  0.00    -0.084 C 
HETATM   18  C18 UNL     1       8.413  25.274  50.315  1.00  0.00     0.014 C 
HETATM   19  C19 UNL     1       6.635  24.635  48.781  1.00  0.00     0.034 C 
HETATM   20  C20 UNL     1       6.754  24.542  47.249  1.00  0.00     0.005 C 
HETATM   21  C21 UNL     1       7.949  25.380  46.809  1.00  0.00     0.010 C 
HETATM   22  C22 UNL     1       9.248  24.587  47.063  1.00  0.00    -0.040 C 
HETATM   23  C23 UNL     1       9.406  23.637  45.894  1.00  0.00     0.015 C 
HETATM   24  C24 UNL     1      10.358  25.579  47.095  1.00  0.00     0.015 C 
ENDBRANCH  15  16
ENDBRANCH  14  15
ENDBRANCH  12  14
BRANCH   1  25
HETATM   25  O2  UNL     1      10.678  18.770  49.880  1.00  0.00    -0.317 OA
BRANCH  25  26
HETATM   26  C3  UNL     1      10.790  18.148  48.671  1.00  0.00     0.177 C 
BRANCH  26  27
HETATM   27  C2  UNL     1      11.745  17.140  48.271  1.00  0.00     0.053 C 
HETATM   28  C1  UNL     1      11.431  16.199  47.422  1.00  0.00     0.016 C 
ENDBRANCH  26  27
BRANCH  26  29
HETATM   29  O1  UNL     1       9.904  18.542  47.788  1.00  0.00    -0.341 OA
ATOM     30  H1  UNL     1       9.655  19.459  47.784  1.00  0.00     0.220 HD
ENDBRANCH  26  29
ENDBRANCH  25  26
ENDBRANCH   1  25
TORSDOF 7
ENDMDL
MODEL 5
REMARK VINA RESULT: -7.744313757      1.227      2.286
REMARK  7 active torsions:
REMARK  status: ('A' for Active; 'I' for Inactive)
REMARK    1  A    between atoms: C2_2  and  C3_3 
REMARK    2  A    between atoms: C3_3  and  O1_4 
REMARK    3  A    between atoms: C3_3  and  O2_6 
REMARK    4  A    between atoms: O2_6  and  C4_7 
REMARK    5  A    between atoms: C12_18  and  C14_20 
REMARK    6  A    between atoms: C14_20  and  C15_21 
REMARK    7  A    between atoms: C15_21  and  C16_22 
ROOT
HETATM    1  C4  UNL     1       9.525  19.161  49.765  1.00  0.00     0.210 C 
HETATM    2  C5  UNL     1       9.480  19.575  51.242  1.00  0.00     0.158 C 
HETATM    3  O3  UNL     1       9.535  18.860  52.191  1.00  0.00    -0.295 OA
HETATM    4  C6  UNL     1       9.356  21.052  51.238  1.00  0.00     0.105 C 
HETATM    5  C7  UNL     1       9.739  21.511  49.817  1.00  0.00     0.082 C 
HETATM    6  C8  UNL     1      10.622  22.682  50.013  1.00  0.00    -0.008 C 
HETATM    7  C9  UNL     1      10.046  23.825  50.441  1.00  0.00    -0.003 C 
HETATM    8  C10 UNL     1       8.613  23.946  50.716  1.00  0.00     0.206 C 
HETATM    9  O4  UNL     1       7.860  23.037  49.900  1.00  0.00    -0.317 OA
HETATM   10  C11 UNL     1       8.512  22.006  49.206  1.00  0.00     0.273 C 
HETATM   11  O5  UNL     1       7.947  21.650  48.151  1.00  0.00    -0.264 OA
HETATM   12  C12 UNL     1      10.371  20.324  49.271  1.00  0.00     0.010 C 
HETATM   13  C13 UNL     1      11.680  20.131  50.094  1.00  0.00     0.020 C 
ENDROOT
BRANCH  12  14
HETATM   14  C14 UNL     1      10.777  20.204  47.870  1.00  0.00     0.014 C 
BRANCH  14  15
HETATM   15  C15 UNL     1      10.618  18.853  47.232  1.00  0.00     0.010 C 
BRANCH  15  16
HETATM   16  C16 UNL     1      11.835  18.001  47.373  1.00  0.00     0.021 C 
HETATM   17  C17 UNL     1      11.633  16.621  47.842  1.00  0.00    -0.084 C 
HETATM   18  C18 UNL     1      10.561  15.905  47.657  1.00  0.00     0.014 C 
HETATM   19  C19 UNL     1      12.810  16.016  48.576  1.00  0.00     0.034 C 
HETATM   20  C20 UNL     1      14.020  16.709  47.923  1.00  0.00     0.005 C 
HETATM   21  C21 UNL     1      13.739  16.858  46.432  1.00  0.00     0.010 C 
HETATM   22  C22 UNL     1      12.798  18.060  46.209  1.00  0.00    -0.040 C 
HETATM   23  C23 UNL     1      13.669  19.298  46.232  1.00  0.00     0.015 C 
HETATM   24  C24 UNL     1      12.174  17.874  44.870  1.00  0.00     0.015 C 
ENDBRANCH  15  16
ENDBRANCH  14  15
ENDBRANCH  12  14
BRANCH   1  25
HETATM   25  O2  UNL     1       8.216  19.118  49.373  1.00  0.00    -0.317 OA
BRANCH  25  26
HETATM   26  C3  UNL     1       7.261  18.180  49.637  1.00  0.00     0.177 C 
BRANCH  26  27
HETATM   27  C2  UNL     1       6.884  17.039  48.835  1.00  0.00     0.053 C 
HETATM   28  C1  UNL     1       5.649  16.619  48.781  1.00  0.00     0.016 C 
ENDBRANCH  26  27
BRANCH  26  29
HETATM   29  O1  UNL     1       6.626  18.374  50.769  1.00  0.00    -0.341 OA
ATOM     30  H1  UNL     1       7.002  18.005  51.560  1.00  0.00     0.220 HD
ENDBRANCH  26  29
ENDBRANCH  25  26
ENDBRANCH   1  25
TORSDOF 7
ENDMDL
