MODEL 1
REMARK VINA RESULT: -8.537253702      0.000      0.000
REMARK  5 active torsions:
REMARK  status: ('A' for Active; 'I' for Inactive)
REMARK    1  A    between atoms: C3_3  and  C5_5 
REMARK    2  A    between atoms: C5_5  and  O2_7 
REMARK    3  A    between atoms: O2_7  and  C6_8 
REMARK    4  A    between atoms: C17_21  and  C18_22 
REMARK    5  A    between atoms: C17_21  and  O5_24 
ROOT
HETATM    1  C6  UNL     1      13.465  16.770  47.134  1.00  0.00     0.164 C 
HETATM    2  C7  UNL     1      12.426  15.696  46.958  1.00  0.00     0.043 C 
HETATM    3  C8  UNL     1      11.091  16.384  47.100  1.00  0.00     0.027 C 
HETATM    4  C9  UNL     1      10.071  15.511  47.792  1.00  0.00     0.013 C 
HETATM    5  C10 UNL     1      11.321  17.692  47.789  1.00  0.00     0.157 A 
HETATM    6  O3  UNL     1      10.683  17.860  49.017  1.00  0.00    -0.223 OA
HETATM    7  O4  UNL     1      11.503  18.490  49.798  1.00  0.00    -0.229 OA
HETATM    8  C11 UNL     1      11.212  19.836  49.954  1.00  0.00     0.099 C 
HETATM    9  C12 UNL     1      12.237  20.382  50.946  1.00  0.00     0.041 C 
HETATM   10  C13 UNL     1      11.527  20.606  52.235  1.00  0.00     0.003 C 
HETATM   11  C14 UNL     1      10.148  20.045  52.128  1.00  0.00     0.003 C 
HETATM   12  C15 UNL     1       9.896  19.994  50.637  1.00  0.00     0.041 C 
HETATM   13  C16 UNL     1      11.364  20.643  48.705  1.00  0.00     0.082 C 
HETATM   14  C17 UNL     1      10.511  20.056  47.546  1.00  0.00     0.092 C 
HETATM   15  C21 UNL     1      11.264  18.907  46.929  1.00  0.00     0.197 A 
HETATM   16  O6  UNL     1      12.651  19.074  47.144  1.00  0.00    -0.368 OA
HETATM   17  C22 UNL     1      12.812  17.909  47.849  1.00  0.00     0.192 A 
ENDROOT
BRANCH   1  18
HETATM   18  O2  UNL     1      14.059  17.143  45.906  1.00  0.00    -0.309 OA
BRANCH  18  19
HETATM   19  C5  UNL     1      14.718  16.241  45.079  1.00  0.00     0.289 C 
HETATM   20  O1  UNL     1      15.827  15.823  45.472  1.00  0.00    -0.260 OA
BRANCH  19  21
HETATM   21  C3  UNL     1      14.173  15.790  43.823  1.00  0.00     0.009 C 
HETATM   22  C2  UNL     1      13.167  16.388  43.255  1.00  0.00    -0.018 C 
HETATM   23  C1  UNL     1      12.445  17.572  43.770  1.00  0.00     0.036 C 
HETATM   24  C4  UNL     1      14.796  14.608  43.182  1.00  0.00     0.054 C 
ENDBRANCH  19  21
ENDBRANCH  18  19
ENDBRANCH   1  18
BRANCH  14  25
HETATM   25  C18 UNL     1      10.538  21.192  46.552  1.00  0.00     0.036 C 
HETATM   26  C19 UNL     1      10.664  22.555  47.099  1.00  0.00     0.008 C 
ENDBRANCH  14  25
BRANCH  14  27
HETATM   27  O5  UNL     1       9.334  19.745  48.110  1.00  0.00    -0.382 OA
HETATM   28  C20 UNL     1       8.151  20.033  47.561  1.00  0.00     0.202 C 
ENDBRANCH  14  27
TORSDOF 5
ENDMDL
MODEL 2
REMARK VINA RESULT: -8.422953157      0.503      1.212
REMARK  5 active torsions:
REMARK  status: ('A' for Active; 'I' for Inactive)
REMARK    1  A    between atoms: C3_3  and  C5_5 
REMARK    2  A    between atoms: C5_5  and  O2_7 
REMARK    3  A    between atoms: O2_7  and  C6_8 
REMARK    4  A    between atoms: C17_21  and  C18_22 
REMARK    5  A    between atoms: C17_21  and  O5_24 
ROOT
HETATM    1  C6  UNL     1      13.611  16.665  47.152  1.00  0.00     0.164 C 
HETATM    2  C7  UNL     1      12.558  15.610  46.948  1.00  0.00     0.043 C 
HETATM    3  C8  UNL     1      11.232  16.322  47.041  1.00  0.00     0.027 C 
HETATM    4  C9  UNL     1      10.174  15.473  47.703  1.00  0.00     0.013 C 
HETATM    5  C10 UNL     1      11.463  17.631  47.728  1.00  0.00     0.157 A 
HETATM    6  O3  UNL     1      10.787  17.819  48.933  1.00  0.00    -0.223 OA
HETATM    7  O4  UNL     1      11.592  18.439  49.738  1.00  0.00    -0.229 OA
HETATM    8  C11 UNL     1      11.321  19.791  49.876  1.00  0.00     0.099 C 
HETATM    9  C12 UNL     1      12.323  20.324  50.898  1.00  0.00     0.041 C 
HETATM   10  C13 UNL     1      11.574  20.570  52.162  1.00  0.00     0.003 C 
HETATM   11  C14 UNL     1      10.189  20.034  52.012  1.00  0.00     0.003 C 
HETATM   12  C15 UNL     1       9.987  19.978  50.513  1.00  0.00     0.041 C 
HETATM   13  C16 UNL     1      11.530  20.586  48.628  1.00  0.00     0.082 C 
HETATM   14  C17 UNL     1      10.706  20.008  47.445  1.00  0.00     0.092 C 
HETATM   15  C21 UNL     1      11.458  18.841  46.860  1.00  0.00     0.197 A 
HETATM   16  O6  UNL     1      12.840  18.984  47.120  1.00  0.00    -0.368 OA
HETATM   17  C22 UNL     1      12.955  17.821  47.838  1.00  0.00     0.192 A 
ENDROOT
BRANCH   1  18
HETATM   18  O2  UNL     1      14.252  17.019  45.942  1.00  0.00    -0.309 OA
BRANCH  18  19
HETATM   19  C5  UNL     1      14.370  16.149  44.866  1.00  0.00     0.289 C 
HETATM   20  O1  UNL     1      15.202  15.224  44.977  1.00  0.00    -0.260 OA
BRANCH  19  21
HETATM   21  C3  UNL     1      13.584  16.280  43.665  1.00  0.00     0.009 C 
HETATM   22  C2  UNL     1      13.830  15.571  42.601  1.00  0.00    -0.018 C 
HETATM   23  C1  UNL     1      14.900  14.562  42.446  1.00  0.00     0.036 C 
HETATM   24  C4  UNL     1      12.470  17.258  43.669  1.00  0.00     0.054 C 
ENDBRANCH  19  21
ENDBRANCH  18  19
ENDBRANCH   1  18
BRANCH  14  25
HETATM   25  C18 UNL     1      10.787  21.137  46.445  1.00  0.00     0.036 C 
HETATM   26  C19 UNL     1      10.910  20.764  45.025  1.00  0.00     0.008 C 
ENDBRANCH  14  25
BRANCH  14  27
HETATM   27  O5  UNL     1       9.505  19.722  47.970  1.00  0.00    -0.382 OA
HETATM   28  C20 UNL     1       8.356  20.221  47.507  1.00  0.00     0.202 C 
ENDBRANCH  14  27
TORSDOF 5
ENDMDL
MODEL 3
REMARK VINA RESULT: -8.202610864      1.931      3.505
REMARK  5 active torsions:
REMARK  status: ('A' for Active; 'I' for Inactive)
REMARK    1  A    between atoms: C3_3  and  C5_5 
REMARK    2  A    between atoms: C5_5  and  O2_7 
REMARK    3  A    between atoms: O2_7  and  C6_8 
REMARK    4  A    between atoms: C17_21  and  C18_22 
REMARK    5  A    between atoms: C17_21  and  O5_24 
ROOT
HETATM    1  C6  UNL     1      12.390  19.354  45.949  1.00  0.00     0.164 C 
HETATM    2  C7  UNL     1      13.555  19.133  46.875  1.00  0.00     0.043 C 
HETATM    3  C8  UNL     1      12.993  19.194  48.273  1.00  0.00     0.027 C 
HETATM    4  C9  UNL     1      13.952  19.838  49.246  1.00  0.00     0.013 C 
HETATM    5  C10 UNL     1      11.665  19.880  48.202  1.00  0.00     0.157 A 
HETATM    6  O3  UNL     1      11.549  21.069  48.920  1.00  0.00    -0.223 OA
HETATM    7  O4  UNL     1      10.843  21.888  48.206  1.00  0.00    -0.229 OA
HETATM    8  C11 UNL     1       9.528  22.014  48.627  1.00  0.00     0.099 C 
HETATM    9  C12 UNL     1       8.885  23.055  47.712  1.00  0.00     0.041 C 
HETATM   10  C13 UNL     1       8.720  24.300  48.511  1.00  0.00     0.003 C 
HETATM   11  C14 UNL     1       9.406  24.124  49.825  1.00  0.00     0.003 C 
HETATM   12  C15 UNL     1       9.488  22.621  49.987  1.00  0.00     0.041 C 
HETATM   13  C16 UNL     1       8.718  20.766  48.479  1.00  0.00     0.082 C 
HETATM   14  C17 UNL     1       9.387  19.569  49.210  1.00  0.00     0.092 C 
HETATM   15  C21 UNL     1      10.465  19.006  48.322  1.00  0.00     0.197 A 
HETATM   16  O6  UNL     1      10.170  19.295  46.969  1.00  0.00    -0.368 OA
HETATM   17  C22 UNL     1      11.312  20.021  46.742  1.00  0.00     0.192 A 
ENDROOT
BRANCH   1  18
HETATM   18  O2  UNL     1      11.971  18.157  45.324  1.00  0.00    -0.309 OA
BRANCH  18  19
HETATM   19  C5  UNL     1      12.528  16.918  45.613  1.00  0.00     0.289 C 
HETATM   20  O1  UNL     1      12.045  16.293  46.581  1.00  0.00    -0.260 OA
BRANCH  19  21
HETATM   21  C3  UNL     1      13.613  16.351  44.851  1.00  0.00     0.009 C 
HETATM   22  C2  UNL     1      13.571  16.267  43.553  1.00  0.00    -0.018 C 
HETATM   23  C1  UNL     1      12.465  16.715  42.679  1.00  0.00     0.036 C 
HETATM   24  C4  UNL     1      14.797  15.857  45.593  1.00  0.00     0.054 C 
ENDBRANCH  19  21
ENDBRANCH  18  19
ENDBRANCH   1  18
BRANCH  14  25
HETATM   25  C18 UNL     1       8.258  18.566  49.231  1.00  0.00     0.036 C 
HETATM   26  C19 UNL     1       6.971  18.996  48.656  1.00  0.00     0.008 C 
ENDBRANCH  14  25
BRANCH  14  27
HETATM   27  O5  UNL     1       9.801  20.070  50.382  1.00  0.00    -0.382 OA
HETATM   28  C20 UNL     1       9.740  19.401  51.537  1.00  0.00     0.202 C 
ENDBRANCH  14  27
TORSDOF 5
ENDMDL
MODEL 4
REMARK VINA RESULT: -8.014338495      1.801      3.656
REMARK  5 active torsions:
REMARK  status: ('A' for Active; 'I' for Inactive)
REMARK    1  A    between atoms: C3_3  and  C5_5 
REMARK    2  A    between atoms: C5_5  and  O2_7 
REMARK    3  A    between atoms: O2_7  and  C6_8 
REMARK    4  A    between atoms: C17_21  and  C18_22 
REMARK    5  A    between atoms: C17_21  and  O5_24 
ROOT
HETATM    1  C6  UNL     1      12.432  18.671  46.255  1.00  0.00     0.164 C 
HETATM    2  C7  UNL     1      13.632  18.683  47.163  1.00  0.00     0.043 C 
HETATM    3  C8  UNL     1      13.126  19.115  48.516  1.00  0.00     0.027 C 
HETATM    4  C9  UNL     1      14.126  19.976  49.250  1.00  0.00     0.013 C 
HETATM    5  C10 UNL     1      11.799  19.778  48.318  1.00  0.00     0.157 A 
HETATM    6  O3  UNL     1      11.717  21.115  48.704  1.00  0.00    -0.223 OA
HETATM    7  O4  UNL     1      10.987  21.729  47.827  1.00  0.00    -0.229 OA
HETATM    8  C11 UNL     1       9.690  21.979  48.249  1.00  0.00     0.099 C 
HETATM    9  C12 UNL     1       9.016  22.754  47.119  1.00  0.00     0.041 C 
HETATM   10  C13 UNL     1       8.889  24.168  47.570  1.00  0.00     0.003 C 
HETATM   11  C14 UNL     1       9.625  24.331  48.858  1.00  0.00     0.003 C 
HETATM   12  C15 UNL     1       9.707  22.921  49.404  1.00  0.00     0.041 C 
HETATM   13  C16 UNL     1       8.869  20.749  48.463  1.00  0.00     0.082 C 
HETATM   14  C17 UNL     1       9.562  19.774  49.456  1.00  0.00     0.092 C 
HETATM   15  C21 UNL     1      10.602  18.983  48.706  1.00  0.00     0.197 A 
HETATM   16  O6  UNL     1      10.254  18.913  47.337  1.00  0.00    -0.368 OA
HETATM   17  C22 UNL     1      11.389  19.537  46.886  1.00  0.00     0.192 A 
ENDROOT
BRANCH   1  18
HETATM   18  O2  UNL     1      11.984  17.359  45.981  1.00  0.00    -0.309 OA
BRANCH  18  19
HETATM   19  C5  UNL     1      12.848  16.287  45.794  1.00  0.00     0.289 C 
HETATM   20  O1  UNL     1      12.901  15.439  46.709  1.00  0.00    -0.260 OA
BRANCH  19  21
HETATM   21  C3  UNL     1      13.657  16.134  44.611  1.00  0.00     0.009 C 
HETATM   22  C2  UNL     1      14.897  15.745  44.672  1.00  0.00    -0.018 C 
HETATM   23  C1  UNL     1      15.653  15.410  45.897  1.00  0.00     0.036 C 
HETATM   24  C4  UNL     1      13.033  16.434  43.300  1.00  0.00     0.054 C 
ENDBRANCH  19  21
ENDBRANCH  18  19
ENDBRANCH   1  18
BRANCH  14  25
HETATM   25  C18 UNL     1       8.430  18.828  49.781  1.00  0.00     0.036 C 
HETATM   26  C19 UNL     1       7.238  18.891  48.918  1.00  0.00     0.008 C 
ENDBRANCH  14  25
BRANCH  14  27
HETATM   27  O5  UNL     1      10.025  20.557  50.440  1.00  0.00    -0.382 OA
HETATM   28  C20 UNL     1      10.151  20.157  51.709  1.00  0.00     0.202 C 
ENDBRANCH  14  27
TORSDOF 5
ENDMDL
MODEL 5
REMARK VINA RESULT: -7.935449283      2.068      3.887
REMARK  5 active torsions:
REMARK  status: ('A' for Active; 'I' for Inactive)
REMARK    1  A    between atoms: C3_3  and  C5_5 
REMARK    2  A    between atoms: C5_5  and  O2_7 
REMARK    3  A    between atoms: O2_7  and  C6_8 
REMARK    4  A    between atoms: C17_21  and  C18_22 
REMARK    5  A    between atoms: C17_21  and  O5_24 
ROOT
HETATM    1  C6  UNL     1      12.233  19.590  46.505  1.00  0.00     0.164 C 
HETATM    2  C7  UNL     1      13.286  19.534  47.578  1.00  0.00     0.043 C 
HETATM    3  C8  UNL     1      12.542  19.515  48.890  1.00  0.00     0.027 C 
HETATM    4  C9  UNL     1      13.265  20.286  49.967  1.00  0.00     0.013 C 
HETATM    5  C10 UNL     1      11.152  20.007  48.634  1.00  0.00     0.157 A 
HETATM    6  O3  UNL     1      10.778  21.168  49.310  1.00  0.00    -0.223 OA
HETATM    7  O4  UNL     1      10.065  21.880  48.495  1.00  0.00    -0.229 OA
HETATM    8  C11 UNL     1       8.702  21.819  48.739  1.00  0.00     0.099 C 
HETATM    9  C12 UNL     1       8.046  22.760  47.730  1.00  0.00     0.041 C 
HETATM   10  C13 UNL     1       7.605  23.970  48.479  1.00  0.00     0.003 C 
HETATM   11  C14 UNL     1       8.130  23.890  49.874  1.00  0.00     0.003 C 
HETATM   12  C15 UNL     1       8.398  22.414  50.072  1.00  0.00     0.041 C 
HETATM   13  C16 UNL     1       8.100  20.470  48.510  1.00  0.00     0.082 C 
HETATM   14  C17 UNL     1       8.827  19.378  49.342  1.00  0.00     0.092 C 
HETATM   15  C21 UNL     1      10.081  18.973  48.612  1.00  0.00     0.197 A 
HETATM   16  O6  UNL     1       9.929  19.219  47.228  1.00  0.00    -0.368 OA
HETATM   17  C22 UNL     1      10.978  20.098  47.139  1.00  0.00     0.192 A 
ENDROOT
BRANCH   1  18
HETATM   18  O2  UNL     1      12.071  18.346  45.852  1.00  0.00    -0.309 OA
BRANCH  18  19
HETATM   19  C5  UNL     1      12.134  18.202  44.472  1.00  0.00     0.289 C 
HETATM   20  O1  UNL     1      11.619  19.109  43.786  1.00  0.00    -0.260 OA
BRANCH  19  21
HETATM   21  C3  UNL     1      12.758  17.071  43.832  1.00  0.00     0.009 C 
HETATM   22  C2  UNL     1      13.476  16.214  44.497  1.00  0.00    -0.018 C 
HETATM   23  C1  UNL     1      13.762  16.246  45.948  1.00  0.00     0.036 C 
HETATM   24  C4  UNL     1      12.560  16.904  42.372  1.00  0.00     0.054 C 
ENDBRANCH  19  21
ENDBRANCH  18  19
ENDBRANCH   1  18
BRANCH  14  25
HETATM   25  C18 UNL     1       7.856  18.227  49.234  1.00  0.00     0.036 C 
HETATM   26  C19 UNL     1       6.511  18.534  48.719  1.00  0.00     0.008 C 
ENDBRANCH  14  25
BRANCH  14  27
HETATM   27  O5  UNL     1       9.010  19.932  50.550  1.00  0.00    -0.382 OA
HETATM   28  C20 UNL     1       9.121  19.227  51.679  1.00  0.00     0.202 C 
ENDBRANCH  14  27
TORSDOF 5
ENDMDL
