MODEL 1
REMARK VINA RESULT: -7.584981045      0.000      0.000
REMARK  6 active torsions:
REMARK  status: ('A' for Active; 'I' for Inactive)
REMARK    1  A    between atoms: C5_5  and  O1_6 
REMARK    2  A    between atoms: O1_6  and  C6_7 
REMARK    3  A    between atoms: C8_10  and  O3_11 
REMARK    4  A    between atoms: O3_11  and  C9_12 
REMARK    5  A    between atoms: C9_12  and  C10_14 
REMARK    6  A    between atoms: C10_14  and  O5_15 
ROOT
HETATM    1  C1  UNL     1       6.514  24.863  49.237  1.00  0.00     0.014 C 
HETATM    2  C2  UNL     1       7.827  24.676  49.185  1.00  0.00    -0.089 C 
HETATM    3  C3  UNL     1       8.506  24.100  50.358  1.00  0.00     0.036 C 
HETATM    4  C4  UNL     1       8.323  22.599  50.456  1.00  0.00     0.042 C 
HETATM    5  C5  UNL     1       9.640  21.883  50.677  1.00  0.00     0.188 C 
HETATM    6  C8  UNL     1      10.018  21.038  49.451  1.00  0.00     0.299 C 
HETATM    7  O6  UNL     1      10.590  21.887  48.547  1.00  0.00    -0.347 OA
HETATM    8  C17 UNL     1      10.017  21.958  47.312  1.00  0.00     0.065 A 
HETATM    9  C18 UNL     1       9.205  20.800  46.763  1.00  0.00     0.046 C 
HETATM   10  C19 UNL     1      10.943  22.600  46.257  1.00  0.00     0.045 A 
HETATM   11  C20 UNL     1       9.730  23.279  46.769  1.00  0.00     0.023 A 
HETATM   12  C21 UNL     1       9.827  24.437  47.708  1.00  0.00     0.012 C 
HETATM   13  C22 UNL     1       8.495  25.075  47.927  1.00  0.00     0.034 C 
ENDROOT
BRANCH   6  14
HETATM   14  O3  UNL     1      10.862  19.973  49.852  1.00  0.00    -0.285 OA
BRANCH  14  15
HETATM   15  C9  UNL     1      10.924  18.743  49.264  1.00  0.00     0.296 C 
HETATM   16  O4  UNL     1       9.859  18.150  49.003  1.00  0.00    -0.262 OA
BRANCH  15  17
HETATM   17  C10 UNL     1      12.258  18.101  48.930  1.00  0.00     0.147 C 
HETATM   18  C12 UNL     1      13.195  19.215  48.553  1.00  0.00     0.049 C 
HETATM   19  C13 UNL     1      13.048  19.639  47.112  1.00  0.00     0.004 C 
HETATM   20  C14 UNL     1      13.095  18.453  46.172  1.00  0.00     0.000 C 
HETATM   21  C15 UNL     1      11.875  17.615  46.476  1.00  0.00     0.004 C 
HETATM   22  C16 UNL     1      12.013  17.082  47.881  1.00  0.00     0.049 C 
BRANCH  17  23
HETATM   23  O5  UNL     1      12.693  17.518  50.089  1.00  0.00    -0.375 OA
HETATM   24  C11 UNL     1      13.690  16.601  50.025  1.00  0.00     0.203 C 
ENDBRANCH  17  23
ENDBRANCH  15  17
ENDBRANCH  14  15
ENDBRANCH   6  14
BRANCH   5  25
HETATM   25  O1  UNL     1       9.639  21.095  51.844  1.00  0.00    -0.311 OA
BRANCH  25  26
HETATM   26  C6  UNL     1       8.509  20.478  52.339  1.00  0.00     0.255 C 
HETATM   27  C7  UNL     1       7.688  21.129  53.376  1.00  0.00     0.126 C 
HETATM   28  O2  UNL     1       8.198  19.353  51.888  1.00  0.00    -0.266 OA
ENDBRANCH  25  26
ENDBRANCH   5  25
TORSDOF 6
ENDMDL
MODEL 2
REMARK VINA RESULT: -7.403753812      2.662      7.238
REMARK  6 active torsions:
REMARK  status: ('A' for Active; 'I' for Inactive)
REMARK    1  A    between atoms: C5_5  and  O1_6 
REMARK    2  A    between atoms: O1_6  and  C6_7 
REMARK    3  A    between atoms: C8_10  and  O3_11 
REMARK    4  A    between atoms: O3_11  and  C9_12 
REMARK    5  A    between atoms: C9_12  and  C10_14 
REMARK    6  A    between atoms: C10_14  and  O5_15 
ROOT
HETATM    1  C1  UNL     1      11.325  16.332  41.921  1.00  0.00     0.014 C 
HETATM    2  C2  UNL     1      12.302  16.797  42.690  1.00  0.00    -0.089 C 
HETATM    3  C3  UNL     1      12.373  18.247  42.943  1.00  0.00     0.036 C 
HETATM    4  C4  UNL     1      11.371  18.704  43.983  1.00  0.00     0.042 C 
HETATM    5  C5  UNL     1      12.017  19.567  45.048  1.00  0.00     0.188 C 
HETATM    6  C8  UNL     1      12.024  18.852  46.406  1.00  0.00     0.299 C 
HETATM    7  O6  UNL     1      13.091  17.999  46.399  1.00  0.00    -0.347 OA
HETATM    8  C17 UNL     1      12.834  16.678  46.614  1.00  0.00     0.065 A 
HETATM    9  C18 UNL     1      11.599  16.241  47.379  1.00  0.00     0.046 C 
HETATM   10  C19 UNL     1      14.096  15.874  46.994  1.00  0.00     0.045 A 
HETATM   11  C20 UNL     1      13.412  15.712  45.690  1.00  0.00     0.023 A 
HETATM   12  C21 UNL     1      14.008  16.248  44.429  1.00  0.00     0.012 C 
HETATM   13  C22 UNL     1      13.245  15.794  43.228  1.00  0.00     0.034 C 
ENDROOT
BRANCH   6  14
HETATM   14  O3  UNL     1      12.064  19.811  47.448  1.00  0.00    -0.285 OA
BRANCH  14  15
HETATM   15  C9  UNL     1      11.952  19.542  48.781  1.00  0.00     0.296 C 
HETATM   16  O4  UNL     1      12.940  19.081  49.384  1.00  0.00    -0.262 OA
BRANCH  15  17
HETATM   17  C10 UNL     1      10.653  19.795  49.525  1.00  0.00     0.147 C 
HETATM   18  C12 UNL     1       9.915  20.861  48.762  1.00  0.00     0.049 C 
HETATM   19  C13 UNL     1      10.376  22.254  49.111  1.00  0.00     0.004 C 
HETATM   20  C14 UNL     1      10.401  22.476  50.608  1.00  0.00     0.000 C 
HETATM   21  C15 UNL     1      11.455  21.548  51.164  1.00  0.00     0.004 C 
HETATM   22  C16 UNL     1      11.000  20.130  50.927  1.00  0.00     0.049 C 
BRANCH  17  23
HETATM   23  O5  UNL     1       9.949  18.622  49.459  1.00  0.00    -0.375 OA
HETATM   24  C11 UNL     1       8.731  18.625  48.864  1.00  0.00     0.203 C 
ENDBRANCH  17  23
ENDBRANCH  15  17
ENDBRANCH  14  15
ENDBRANCH   6  14
BRANCH   5  25
HETATM   25  O1  UNL     1      11.415  20.836  45.157  1.00  0.00    -0.311 OA
BRANCH  25  26
HETATM   26  C6  UNL     1      11.084  21.612  44.065  1.00  0.00     0.255 C 
HETATM   27  C7  UNL     1      12.133  22.239  43.240  1.00  0.00     0.126 C 
HETATM   28  O2  UNL     1       9.874  21.772  43.792  1.00  0.00    -0.266 OA
ENDBRANCH  25  26
ENDBRANCH   5  25
TORSDOF 6
ENDMDL
MODEL 3
REMARK VINA RESULT: -7.391629645      2.264      6.878
REMARK  6 active torsions:
REMARK  status: ('A' for Active; 'I' for Inactive)
REMARK    1  A    between atoms: C5_5  and  O1_6 
REMARK    2  A    between atoms: O1_6  and  C6_7 
REMARK    3  A    between atoms: C8_10  and  O3_11 
REMARK    4  A    between atoms: O3_11  and  C9_12 
REMARK    5  A    between atoms: C9_12  and  C10_14 
REMARK    6  A    between atoms: C10_14  and  O5_15 
ROOT
HETATM    1  C1  UNL     1      11.765  16.832  42.351  1.00  0.00     0.014 C 
HETATM    2  C2  UNL     1      12.463  17.357  43.351  1.00  0.00    -0.089 C 
HETATM    3  C3  UNL     1      12.206  18.756  43.735  1.00  0.00     0.036 C 
HETATM    4  C4  UNL     1      10.949  18.908  44.567  1.00  0.00     0.042 C 
HETATM    5  C5  UNL     1      11.195  19.730  45.816  1.00  0.00     0.188 C 
HETATM    6  C8  UNL     1      11.067  18.865  47.078  1.00  0.00     0.299 C 
HETATM    7  O6  UNL     1      12.257  18.211  47.231  1.00  0.00    -0.347 OA
HETATM    8  C17 UNL     1      12.217  16.849  47.272  1.00  0.00     0.065 A 
HETATM    9  C18 UNL     1      10.961  16.120  47.710  1.00  0.00     0.046 C 
HETATM   10  C19 UNL     1      13.508  16.228  47.849  1.00  0.00     0.045 A 
HETATM   11  C20 UNL     1      13.140  16.114  46.418  1.00  0.00     0.023 A 
HETATM   12  C21 UNL     1      13.862  16.892  45.367  1.00  0.00     0.012 C 
HETATM   13  C22 UNL     1      13.453  16.467  43.995  1.00  0.00     0.034 C 
ENDROOT
BRANCH   6  14
HETATM   14  O3  UNL     1      10.716  19.682  48.180  1.00  0.00    -0.285 OA
BRANCH  14  15
HETATM   15  C9  UNL     1      10.162  19.247  49.348  1.00  0.00     0.296 C 
HETATM   16  O4  UNL     1      10.889  18.661  50.175  1.00  0.00    -0.262 OA
BRANCH  15  17
HETATM   17  C10 UNL     1       8.689  19.464  49.646  1.00  0.00     0.147 C 
HETATM   18  C12 UNL     1       8.290  20.740  48.956  1.00  0.00     0.049 C 
HETATM   19  C13 UNL     1       8.626  21.969  49.765  1.00  0.00     0.004 C 
HETATM   20  C14 UNL     1       8.124  21.857  51.189  1.00  0.00     0.000 C 
HETATM   21  C15 UNL     1       8.895  20.727  51.829  1.00  0.00     0.004 C 
HETATM   22  C16 UNL     1       8.524  19.448  51.119  1.00  0.00     0.049 C 
BRANCH  17  23
HETATM   23  O5  UNL     1       8.031  18.413  49.066  1.00  0.00    -0.375 OA
HETATM   24  C11 UNL     1       6.842  18.021  49.584  1.00  0.00     0.203 C 
ENDBRANCH  17  23
ENDBRANCH  15  17
ENDBRANCH  14  15
ENDBRANCH   6  14
BRANCH   5  25
HETATM   25  O1  UNL     1      10.353  20.857  45.897  1.00  0.00    -0.311 OA
BRANCH  25  26
HETATM   26  C6  UNL     1      10.768  22.135  45.586  1.00  0.00     0.255 C 
HETATM   27  C7  UNL     1      10.629  23.231  46.563  1.00  0.00     0.126 C 
HETATM   28  O2  UNL     1      11.265  22.343  44.457  1.00  0.00    -0.266 OA
ENDBRANCH  25  26
ENDBRANCH   5  25
TORSDOF 6
ENDMDL
MODEL 4
REMARK VINA RESULT: -7.346070123      1.632      2.212
REMARK  6 active torsions:
REMARK  status: ('A' for Active; 'I' for Inactive)
REMARK    1  A    between atoms: C5_5  and  O1_6 
REMARK    2  A    between atoms: O1_6  and  C6_7 
REMARK    3  A    between atoms: C8_10  and  O3_11 
REMARK    4  A    between atoms: O3_11  and  C9_12 
REMARK    5  A    between atoms: C9_12  and  C10_14 
REMARK    6  A    between atoms: C10_14  and  O5_15 
ROOT
HETATM    1  C1  UNL     1       7.999  24.944  50.345  1.00  0.00     0.014 C 
HETATM    2  C2  UNL     1       9.123  24.481  49.810  1.00  0.00    -0.089 C 
HETATM    3  C3  UNL     1       9.702  23.238  50.348  1.00  0.00     0.036 C 
HETATM    4  C4  UNL     1       8.985  22.000  49.849  1.00  0.00     0.042 C 
HETATM    5  C5  UNL     1       9.954  20.962  49.320  1.00  0.00     0.188 C 
HETATM    6  C8  UNL     1       9.800  20.791  47.801  1.00  0.00     0.299 C 
HETATM    7  O6  UNL     1      10.508  21.802  47.216  1.00  0.00    -0.347 OA
HETATM    8  C17 UNL     1       9.827  22.633  46.377  1.00  0.00     0.065 A 
HETATM    9  C18 UNL     1       8.568  22.166  45.672  1.00  0.00     0.046 C 
HETATM   10  C19 UNL     1      10.758  23.461  45.465  1.00  0.00     0.045 A 
HETATM   11  C20 UNL     1       9.980  24.069  46.569  1.00  0.00     0.023 A 
HETATM   12  C21 UNL     1      10.643  24.521  47.829  1.00  0.00     0.012 C 
HETATM   13  C22 UNL     1       9.696  25.276  48.704  1.00  0.00     0.034 C 
ENDROOT
BRANCH   6  14
HETATM   14  O3  UNL     1      10.231  19.496  47.424  1.00  0.00    -0.285 OA
BRANCH  14  15
HETATM   15  C9  UNL     1      11.303  19.216  46.626  1.00  0.00     0.296 C 
HETATM   16  O4  UNL     1      11.225  19.467  45.408  1.00  0.00    -0.262 OA
BRANCH  15  17
HETATM   17  C10 UNL     1      12.571  18.610  47.201  1.00  0.00     0.147 C 
HETATM   18  C12 UNL     1      13.371  18.090  46.038  1.00  0.00     0.049 C 
HETATM   19  C13 UNL     1      12.927  16.719  45.593  1.00  0.00     0.004 C 
HETATM   20  C14 UNL     1      12.837  15.754  46.756  1.00  0.00     0.000 C 
HETATM   21  C15 UNL     1      11.735  16.265  47.654  1.00  0.00     0.004 C 
HETATM   22  C16 UNL     1      12.166  17.600  48.208  1.00  0.00     0.049 C 
BRANCH  17  23
HETATM   23  O5  UNL     1      13.247  19.646  47.788  1.00  0.00    -0.375 OA
HETATM   24  C11 UNL     1      13.635  19.523  49.081  1.00  0.00     0.203 C 
ENDBRANCH  17  23
ENDBRANCH  15  17
ENDBRANCH  14  15
ENDBRANCH   6  14
BRANCH   5  25
HETATM   25  O1  UNL     1       9.831  19.721  49.975  1.00  0.00    -0.311 OA
BRANCH  25  26
HETATM   26  C6  UNL     1      10.133  19.537  51.308  1.00  0.00     0.255 C 
HETATM   27  C7  UNL     1      11.312  20.187  51.910  1.00  0.00     0.126 C 
HETATM   28  O2  UNL     1       9.386  18.806  51.994  1.00  0.00    -0.266 OA
ENDBRANCH  25  26
ENDBRANCH   5  25
TORSDOF 6
ENDMDL
MODEL 5
REMARK VINA RESULT: -7.335404687      2.689      7.219
REMARK  6 active torsions:
REMARK  status: ('A' for Active; 'I' for Inactive)
REMARK    1  A    between atoms: C5_5  and  O1_6 
REMARK    2  A    between atoms: O1_6  and  C6_7 
REMARK    3  A    between atoms: C8_10  and  O3_11 
REMARK    4  A    between atoms: O3_11  and  C9_12 
REMARK    5  A    between atoms: C9_12  and  C10_14 
REMARK    6  A    between atoms: C10_14  and  O5_15 
ROOT
HETATM    1  C1  UNL     1      11.306  16.332  41.915  1.00  0.00     0.014 C 
HETATM    2  C2  UNL     1      12.297  16.787  42.674  1.00  0.00    -0.089 C 
HETATM    3  C3  UNL     1      12.382  18.235  42.931  1.00  0.00     0.036 C 
HETATM    4  C4  UNL     1      11.396  18.695  43.987  1.00  0.00     0.042 C 
HETATM    5  C5  UNL     1      12.063  19.549  45.046  1.00  0.00     0.188 C 
HETATM    6  C8  UNL     1      12.082  18.827  46.402  1.00  0.00     0.299 C 
HETATM    7  O6  UNL     1      13.143  17.967  46.377  1.00  0.00    -0.347 OA
HETATM    8  C17 UNL     1      12.878  16.647  46.590  1.00  0.00     0.065 A 
HETATM    9  C18 UNL     1      11.650  16.216  47.369  1.00  0.00     0.046 C 
HETATM   10  C19 UNL     1      14.139  15.832  46.950  1.00  0.00     0.045 A 
HETATM   11  C20 UNL     1      13.437  15.680  45.654  1.00  0.00     0.023 A 
HETATM   12  C21 UNL     1      14.021  16.217  44.388  1.00  0.00     0.012 C 
HETATM   13  C22 UNL     1      13.239  15.774  43.195  1.00  0.00     0.034 C 
ENDROOT
BRANCH   6  14
HETATM   14  O3  UNL     1      12.142  19.782  47.447  1.00  0.00    -0.285 OA
BRANCH  14  15
HETATM   15  C9  UNL     1      11.707  19.589  48.725  1.00  0.00     0.296 C 
HETATM   16  O4  UNL     1      12.217  18.674  49.401  1.00  0.00    -0.262 OA
BRANCH  15  17
HETATM   17  C10 UNL     1      10.622  20.466  49.325  1.00  0.00     0.147 C 
HETATM   18  C12 UNL     1       9.764  19.574  50.178  1.00  0.00     0.049 C 
HETATM   19  C13 UNL     1       8.716  18.837  49.381  1.00  0.00     0.004 C 
HETATM   20  C14 UNL     1       7.930  19.773  48.488  1.00  0.00     0.000 C 
HETATM   21  C15 UNL     1       8.906  20.318  47.471  1.00  0.00     0.004 C 
HETATM   22  C16 UNL     1       9.930  21.148  48.205  1.00  0.00     0.049 C 
BRANCH  17  23
HETATM   23  O5  UNL     1      11.270  21.369  50.124  1.00  0.00    -0.375 OA
HETATM   24  C11 UNL     1      11.014  21.364  51.455  1.00  0.00     0.203 C 
ENDBRANCH  17  23
ENDBRANCH  15  17
ENDBRANCH  14  15
ENDBRANCH   6  14
BRANCH   5  25
HETATM   25  O1  UNL     1      11.472  20.821  45.168  1.00  0.00    -0.311 OA
BRANCH  25  26
HETATM   26  C6  UNL     1      11.114  21.596  44.084  1.00  0.00     0.255 C 
HETATM   27  C7  UNL     1      12.143  22.206  43.222  1.00  0.00     0.126 C 
HETATM   28  O2  UNL     1       9.898  21.770  43.850  1.00  0.00    -0.266 OA
ENDBRANCH  25  26
ENDBRANCH   5  25
TORSDOF 6
ENDMDL
