MODEL 1
REMARK VINA RESULT: -7.985594001      0.000      0.000
REMARK  6 active torsions:
REMARK  status: ('A' for Active; 'I' for Inactive)
REMARK    1  A    between atoms: C3_3  and  O1_4 
REMARK    2  A    between atoms: O1_4  and  C4_5 
REMARK    3  A    between atoms: C8_12  and  C9_13 
REMARK    4  A    between atoms: C9_13  and  C10_14 
REMARK    5  A    between atoms: C18_23  and  O3_24 
REMARK    6  A    between atoms: O3_24  and  C19_25 
ROOT
HETATM    1  C1  UNL     1       8.705  20.692  45.973  1.00  0.00     0.022 C 
HETATM    2  C2  UNL     1       9.824  20.344  46.557  1.00  0.00    -0.027 C 
HETATM    3  C3  UNL     1      11.018  19.871  45.814  1.00  0.00     0.081 C 
HETATM    4  C7  UNL     1      11.662  18.795  46.299  1.00  0.00    -0.027 C 
HETATM    5  C8  UNL     1      12.841  17.973  45.948  1.00  0.00     0.032 C 
HETATM    6  C14 UNL     1      13.315  17.558  47.285  1.00  0.00     0.060 C 
HETATM    7  C15 UNL     1      14.414  16.590  47.384  1.00  0.00     0.018 C 
HETATM    8  C16 UNL     1      12.059  17.211  47.986  1.00  0.00     0.142 C 
HETATM    9  O2  UNL     1      11.845  16.295  48.752  1.00  0.00    -0.297 OA
HETATM   10  C17 UNL     1      11.060  18.234  47.565  1.00  0.00     0.118 C 
HETATM   11  C18 UNL     1      10.980  19.394  48.528  1.00  0.00     0.155 C 
HETATM   12  C21 UNL     1       9.955  20.381  48.058  1.00  0.00     0.047 C 
HETATM   13  C22 UNL     1      10.358  21.772  48.495  1.00  0.00     0.018 C 
ENDROOT
BRANCH   3  14
HETATM   14  O1  UNL     1      11.455  20.450  44.732  1.00  0.00    -0.324 OA
BRANCH  14  15
HETATM   15  C4  UNL     1      11.684  21.546  44.007  1.00  0.00     0.237 C 
HETATM   16  C5  UNL     1      11.277  21.461  42.537  1.00  0.00     0.134 C 
HETATM   17  S1  UNL     1      11.413  23.274  42.205  1.00  0.00    -0.120 SA
HETATM   18  C6  UNL     1      10.988  23.730  43.911  1.00  0.00     0.131 C 
HETATM   19  N1  UNL     1      11.209  22.717  44.587  1.00  0.00    -0.367 N 
ATOM     20  H1  UNL     1      11.038  22.742  45.593  1.00  0.00     0.162 HD
ENDBRANCH  14  15
ENDBRANCH   3  14
BRANCH   5  21
HETATM   21  C9  UNL     1      12.530  16.918  44.946  1.00  0.00     0.037 C 
BRANCH  21  22
HETATM   22  C10 UNL     1      12.146  17.356  43.610  1.00  0.00    -0.024 C 
HETATM   23  C11 UNL     1      12.679  16.842  42.513  1.00  0.00    -0.091 C 
HETATM   24  C12 UNL     1      13.710  15.786  42.474  1.00  0.00     0.042 C 
HETATM   25  C13 UNL     1      12.221  17.349  41.162  1.00  0.00     0.042 C 
ENDBRANCH  21  22
ENDBRANCH   5  21
BRANCH  11  26
HETATM   26  O3  UNL     1      10.649  18.981  49.845  1.00  0.00    -0.315 OA
BRANCH  26  27
HETATM   27  C19 UNL     1      11.538  19.290  50.863  1.00  0.00     0.255 C 
HETATM   28  C20 UNL     1      12.766  20.079  50.628  1.00  0.00     0.126 C 
HETATM   29  O4  UNL     1      11.313  18.896  52.042  1.00  0.00    -0.266 OA
ENDBRANCH  26  27
ENDBRANCH  11  26
TORSDOF 6
ENDMDL
MODEL 2
REMARK VINA RESULT: -7.909655663      1.863      2.623
REMARK  6 active torsions:
REMARK  status: ('A' for Active; 'I' for Inactive)
REMARK    1  A    between atoms: C3_3  and  O1_4 
REMARK    2  A    between atoms: O1_4  and  C4_5 
REMARK    3  A    between atoms: C8_12  and  C9_13 
REMARK    4  A    between atoms: C9_13  and  C10_14 
REMARK    5  A    between atoms: C18_23  and  O3_24 
REMARK    6  A    between atoms: O3_24  and  C19_25 
ROOT
HETATM    1  C1  UNL     1       7.328  19.983  47.628  1.00  0.00     0.022 C 
HETATM    2  C2  UNL     1       8.488  20.401  48.070  1.00  0.00    -0.027 C 
HETATM    3  C3  UNL     1       9.742  20.305  47.283  1.00  0.00     0.081 C 
HETATM    4  C7  UNL     1      10.842  19.873  47.924  1.00  0.00    -0.027 C 
HETATM    5  C8  UNL     1      12.265  19.613  47.606  1.00  0.00     0.032 C 
HETATM    6  C14 UNL     1      12.913  19.933  48.896  1.00  0.00     0.060 C 
HETATM    7  C15 UNL     1      14.347  19.668  49.058  1.00  0.00     0.018 C 
HETATM    8  C16 UNL     1      12.005  19.310  49.884  1.00  0.00     0.142 C 
HETATM    9  O2  UNL     1      12.286  18.713  50.902  1.00  0.00    -0.297 OA
HETATM   10  C17 UNL     1      10.624  19.559  49.384  1.00  0.00     0.118 C 
HETATM   11  C18 UNL     1      10.008  20.802  49.981  1.00  0.00     0.155 C 
HETATM   12  C21 UNL     1       8.620  20.993  49.450  1.00  0.00     0.047 C 
HETATM   13  C22 UNL     1       8.300  22.471  49.397  1.00  0.00     0.018 C 
ENDROOT
BRANCH   3  14
HETATM   14  O1  UNL     1       9.813  20.620  46.021  1.00  0.00    -0.324 OA
BRANCH  14  15
HETATM   15  C4  UNL     1      10.050  21.506  45.051  1.00  0.00     0.237 C 
HETATM   16  C5  UNL     1      10.290  22.942  45.515  1.00  0.00     0.134 C 
HETATM   17  S1  UNL     1      10.951  23.547  43.898  1.00  0.00    -0.120 SA
HETATM   18  C6  UNL     1      11.634  21.926  43.446  1.00  0.00     0.131 C 
HETATM   19  N1  UNL     1      11.029  21.106  44.148  1.00  0.00    -0.367 N 
ATOM     20  H1  UNL     1      11.253  20.114  44.062  1.00  0.00     0.162 HD
ENDBRANCH  14  15
ENDBRANCH   3  14
BRANCH   5  21
HETATM   21  C9  UNL     1      12.487  18.266  47.015  1.00  0.00     0.037 C 
BRANCH  21  22
HETATM   22  C10 UNL     1      12.379  18.144  45.567  1.00  0.00    -0.024 C 
HETATM   23  C11 UNL     1      12.854  17.101  44.904  1.00  0.00    -0.091 C 
HETATM   24  C12 UNL     1      13.542  15.943  45.508  1.00  0.00     0.042 C 
HETATM   25  C13 UNL     1      12.697  17.048  43.399  1.00  0.00     0.042 C 
ENDBRANCH  21  22
ENDBRANCH   5  21
BRANCH  11  26
HETATM   26  O3  UNL     1       9.954  20.751  51.398  1.00  0.00    -0.315 OA
BRANCH  26  27
HETATM   27  C19 UNL     1       8.950  19.993  51.980  1.00  0.00     0.255 C 
HETATM   28  C20 UNL     1       7.744  20.604  52.580  1.00  0.00     0.126 C 
HETATM   29  O4  UNL     1       9.044  18.734  52.012  1.00  0.00    -0.266 OA
ENDBRANCH  26  27
ENDBRANCH  11  26
TORSDOF 6
ENDMDL
MODEL 3
REMARK VINA RESULT: -7.876305881      1.855      2.367
REMARK  6 active torsions:
REMARK  status: ('A' for Active; 'I' for Inactive)
REMARK    1  A    between atoms: C3_3  and  O1_4 
REMARK    2  A    between atoms: O1_4  and  C4_5 
REMARK    3  A    between atoms: C8_12  and  C9_13 
REMARK    4  A    between atoms: C9_13  and  C10_14 
REMARK    5  A    between atoms: C18_23  and  O3_24 
REMARK    6  A    between atoms: O3_24  and  C19_25 
ROOT
HETATM    1  C1  UNL     1       7.490  19.991  47.147  1.00  0.00     0.022 C 
HETATM    2  C2  UNL     1       8.568  20.223  47.854  1.00  0.00    -0.027 C 
HETATM    3  C3  UNL     1       9.883  20.550  47.249  1.00  0.00     0.081 C 
HETATM    4  C7  UNL     1      10.965  19.932  47.752  1.00  0.00    -0.027 C 
HETATM    5  C8  UNL     1      12.427  19.911  47.513  1.00  0.00     0.032 C 
HETATM    6  C14 UNL     1      12.940  19.652  48.875  1.00  0.00     0.060 C 
HETATM    7  C15 UNL     1      14.376  19.413  49.062  1.00  0.00     0.018 C 
HETATM    8  C16 UNL     1      12.020  18.610  49.381  1.00  0.00     0.142 C 
HETATM    9  O2  UNL     1      12.276  17.635  50.057  1.00  0.00    -0.297 OA
HETATM   10  C17 UNL     1      10.665  18.988  48.891  1.00  0.00     0.118 C 
HETATM   11  C18 UNL     1       9.892  19.801  49.902  1.00  0.00     0.155 C 
HETATM   12  C21 UNL     1       8.537  20.142  49.358  1.00  0.00     0.047 C 
HETATM   13  C22 UNL     1       8.086  21.470  49.926  1.00  0.00     0.018 C 
ENDROOT
BRANCH   3  14
HETATM   14  O1  UNL     1      10.022  21.399  46.271  1.00  0.00    -0.324 OA
BRANCH  14  15
HETATM   15  C4  UNL     1      10.182  22.646  45.822  1.00  0.00     0.237 C 
HETATM   16  C5  UNL     1      10.692  23.655  46.850  1.00  0.00     0.134 C 
HETATM   17  S1  UNL     1      11.104  24.973  45.620  1.00  0.00    -0.120 SA
HETATM   18  C6  UNL     1      11.470  23.781  44.300  1.00  0.00     0.131 C 
HETATM   19  N1  UNL     1      10.909  22.731  44.640  1.00  0.00    -0.367 N 
ATOM     20  H1  UNL     1      10.981  21.910  44.038  1.00  0.00     0.162 HD
ENDBRANCH  14  15
ENDBRANCH   3  14
BRANCH   5  21
HETATM   21  C9  UNL     1      12.818  18.982  46.418  1.00  0.00     0.037 C 
BRANCH  21  22
HETATM   22  C10 UNL     1      12.205  19.190  45.113  1.00  0.00    -0.024 C 
HETATM   23  C11 UNL     1      12.199  18.257  44.174  1.00  0.00    -0.091 C 
HETATM   24  C12 UNL     1      12.792  16.911  44.299  1.00  0.00     0.042 C 
HETATM   25  C13 UNL     1      11.536  18.551  42.845  1.00  0.00     0.042 C 
ENDBRANCH  21  22
ENDBRANCH   5  21
BRANCH  11  26
HETATM   26  O3  UNL     1       9.733  19.120  51.136  1.00  0.00    -0.315 OA
BRANCH  26  27
HETATM   27  C19 UNL     1      10.259  19.711  52.274  1.00  0.00     0.255 C 
HETATM   28  C20 UNL     1      11.280  20.779  52.211  1.00  0.00     0.126 C 
HETATM   29  O4  UNL     1       9.869  19.342  53.418  1.00  0.00    -0.266 OA
ENDBRANCH  26  27
ENDBRANCH  11  26
TORSDOF 6
ENDMDL
MODEL 4
REMARK VINA RESULT: -7.843075629      1.779      2.434
REMARK  6 active torsions:
REMARK  status: ('A' for Active; 'I' for Inactive)
REMARK    1  A    between atoms: C3_3  and  O1_4 
REMARK    2  A    between atoms: O1_4  and  C4_5 
REMARK    3  A    between atoms: C8_12  and  C9_13 
REMARK    4  A    between atoms: C9_13  and  C10_14 
REMARK    5  A    between atoms: C18_23  and  O3_24 
REMARK    6  A    between atoms: O3_24  and  C19_25 
ROOT
HETATM    1  C1  UNL     1       7.277  20.595  46.235  1.00  0.00     0.022 C 
HETATM    2  C2  UNL     1       8.367  20.870  46.908  1.00  0.00    -0.027 C 
HETATM    3  C3  UNL     1       9.731  20.603  46.391  1.00  0.00     0.081 C 
HETATM    4  C7  UNL     1      10.614  20.046  47.238  1.00  0.00    -0.027 C 
HETATM    5  C8  UNL     1      12.027  19.602  47.214  1.00  0.00     0.032 C 
HETATM    6  C14 UNL     1      12.435  19.860  48.612  1.00  0.00     0.060 C 
HETATM    7  C15 UNL     1      13.761  19.418  49.060  1.00  0.00     0.018 C 
HETATM    8  C16 UNL     1      11.274  19.374  49.389  1.00  0.00     0.142 C 
HETATM    9  O2  UNL     1      11.265  18.763  50.437  1.00  0.00    -0.297 OA
HETATM   10  C17 UNL     1      10.066  19.787  48.621  1.00  0.00     0.118 C 
HETATM   11  C18 UNL     1       9.506  21.108  49.092  1.00  0.00     0.155 C 
HETATM   12  C21 UNL     1       8.290  21.464  48.291  1.00  0.00     0.047 C 
HETATM   13  C22 UNL     1       8.178  22.969  48.188  1.00  0.00     0.018 C 
ENDROOT
BRANCH   3  14
HETATM   14  O1  UNL     1      10.097  20.885  45.173  1.00  0.00    -0.324 OA
BRANCH  14  15
HETATM   15  C4  UNL     1      10.337  21.768  44.203  1.00  0.00     0.237 C 
HETATM   16  C5  UNL     1      10.002  23.221  44.536  1.00  0.00     0.134 C 
HETATM   17  S1  UNL     1      10.899  23.950  43.094  1.00  0.00    -0.120 SA
HETATM   18  C6  UNL     1      12.125  22.612  43.039  1.00  0.00     0.131 C 
HETATM   19  N1  UNL     1      11.608  21.666  43.648  1.00  0.00    -0.367 N 
ATOM     20  H1  UNL     1      12.126  20.793  43.745  1.00  0.00     0.162 HD
ENDBRANCH  14  15
ENDBRANCH   3  14
BRANCH   5  21
HETATM   21  C9  UNL     1      12.191  18.228  46.669  1.00  0.00     0.037 C 
BRANCH  21  22
HETATM   22  C10 UNL     1      12.238  18.085  45.219  1.00  0.00    -0.024 C 
HETATM   23  C11 UNL     1      12.847  17.071  44.625  1.00  0.00    -0.091 C 
HETATM   24  C12 UNL     1      13.548  15.969  45.314  1.00  0.00     0.042 C 
HETATM   25  C13 UNL     1      12.846  16.992  43.113  1.00  0.00     0.042 C 
ENDBRANCH  21  22
ENDBRANCH   5  21
BRANCH  11  26
HETATM   26  O3  UNL     1       9.160  21.088  50.467  1.00  0.00    -0.315 OA
BRANCH  26  27
HETATM   27  C19 UNL     1       9.631  22.116  51.268  1.00  0.00     0.255 C 
HETATM   28  C20 UNL     1      11.075  22.381  51.449  1.00  0.00     0.126 C 
HETATM   29  O4  UNL     1       8.819  22.869  51.876  1.00  0.00    -0.266 OA
ENDBRANCH  26  27
ENDBRANCH  11  26
TORSDOF 6
ENDMDL
MODEL 5
REMARK VINA RESULT: -7.797506554      1.097      1.336
REMARK  6 active torsions:
REMARK  status: ('A' for Active; 'I' for Inactive)
REMARK    1  A    between atoms: C3_3  and  O1_4 
REMARK    2  A    between atoms: O1_4  and  C4_5 
REMARK    3  A    between atoms: C8_12  and  C9_13 
REMARK    4  A    between atoms: C9_13  and  C10_14 
REMARK    5  A    between atoms: C18_23  and  O3_24 
REMARK    6  A    between atoms: O3_24  and  C19_25 
ROOT
HETATM    1  C1  UNL     1       8.820  20.995  45.800  1.00  0.00     0.022 C 
HETATM    2  C2  UNL     1       9.982  20.546  46.206  1.00  0.00    -0.027 C 
HETATM    3  C3  UNL     1      11.049  20.094  45.281  1.00  0.00     0.081 C 
HETATM    4  C7  UNL     1      11.687  18.950  45.585  1.00  0.00    -0.027 C 
HETATM    5  C8  UNL     1      12.769  18.114  45.018  1.00  0.00     0.032 C 
HETATM    6  C14 UNL     1      13.378  17.555  46.244  1.00  0.00     0.060 C 
HETATM    7  C15 UNL     1      14.426  16.536  46.119  1.00  0.00     0.018 C 
HETATM    8  C16 UNL     1      12.198  17.199  47.064  1.00  0.00     0.142 C 
HETATM    9  O2  UNL     1      12.029  16.225  47.767  1.00  0.00    -0.297 OA
HETATM   10  C17 UNL     1      11.214  18.299  46.862  1.00  0.00     0.118 C 
HETATM   11  C18 UNL     1      11.314  19.366  47.926  1.00  0.00     0.155 C 
HETATM   12  C21 UNL     1      10.295  20.436  47.677  1.00  0.00     0.047 C 
HETATM   13  C22 UNL     1      10.823  21.761  48.180  1.00  0.00     0.018 C 
ENDROOT
BRANCH   3  14
HETATM   14  O1  UNL     1      11.383  20.752  44.208  1.00  0.00    -0.324 OA
BRANCH  14  15
HETATM   15  C4  UNL     1      11.117  21.656  43.264  1.00  0.00     0.237 C 
HETATM   16  C5  UNL     1      11.692  23.051  43.507  1.00  0.00     0.134 C 
HETATM   17  S1  UNL     1      11.396  23.671  41.791  1.00  0.00    -0.120 SA
HETATM   18  C6  UNL     1      11.576  22.025  41.047  1.00  0.00     0.131 C 
HETATM   19  N1  UNL     1      11.395  21.223  41.972  1.00  0.00    -0.367 N 
ATOM     20  H1  UNL     1      11.449  20.222  41.783  1.00  0.00     0.162 HD
ENDBRANCH  14  15
ENDBRANCH   3  14
BRANCH   5  21
HETATM   21  C9  UNL     1      12.282  17.172  43.974  1.00  0.00     0.037 C 
BRANCH  21  22
HETATM   22  C10 UNL     1      12.128  17.693  42.622  1.00  0.00    -0.024 C 
HETATM   23  C11 UNL     1      11.696  16.946  41.618  1.00  0.00    -0.091 C 
HETATM   24  C12 UNL     1      11.319  15.521  41.709  1.00  0.00     0.042 C 
HETATM   25  C13 UNL     1      11.558  17.565  40.243  1.00  0.00     0.042 C 
ENDBRANCH  21  22
ENDBRANCH   5  21
BRANCH  11  26
HETATM   26  O3  UNL     1      11.123  18.846  49.232  1.00  0.00    -0.315 OA
BRANCH  26  27
HETATM   27  C19 UNL     1      12.171  18.957  50.133  1.00  0.00     0.255 C 
HETATM   28  C20 UNL     1      13.462  19.579  49.771  1.00  0.00     0.126 C 
HETATM   29  O4  UNL     1      12.043  18.519  51.311  1.00  0.00    -0.266 OA
ENDBRANCH  26  27
ENDBRANCH  11  26
TORSDOF 6
ENDMDL
