MODEL 1
REMARK VINA RESULT: -8.326838730      0.000      0.000
REMARK  6 active torsions:
REMARK  status: ('A' for Active; 'I' for Inactive)
REMARK    1  A    between atoms: O1_2  and  C2_3 
REMARK    2  A    between atoms: C2_3  and  C3_5 
REMARK    3  A    between atoms: C3_5  and  S1_6 
REMARK    4  A    between atoms: S1_6  and  C4_7 
REMARK    5  A    between atoms: C4_7  and  C16_21 
REMARK    6  A    between atoms: N1_8  and  C5_10 
ROOT
HETATM    1  C4  UNL     1      10.394  21.260  48.656  1.00  0.00     0.061 C 
HETATM    2  N1  UNL     1      11.285  20.414  48.603  1.00  0.00    -0.382 N 
ATOM      3  H1  UNL     1      11.400  20.000  49.528  1.00  0.00     0.160 HD
ENDROOT
BRANCH   1   4
HETATM    4  S1  UNL     1       9.726  22.313  47.410  1.00  0.00    -0.106 SA
BRANCH   4   5
HETATM    5  C3  UNL     1       9.174  23.914  47.915  1.00  0.00     0.191 C 
BRANCH   5   6
HETATM    6  C2  UNL     1      10.284  24.851  48.256  1.00  0.00     0.268 C 
HETATM    7  O2  UNL     1      10.758  24.816  49.412  1.00  0.00    -0.264 OA
BRANCH   6   8
HETATM    8  O1  UNL     1      10.807  25.754  47.352  1.00  0.00    -0.326 OA
HETATM    9  C1  UNL     1      11.582  25.331  46.247  1.00  0.00     0.213 C 
ENDBRANCH   6   8
ENDBRANCH   5   6
ENDBRANCH   4   5
ENDBRANCH   1   4
BRANCH   1  10
HETATM   10  C16 UNL     1       9.783  21.476  50.043  1.00  0.00     0.181 C 
HETATM   11  C17 UNL     1      10.848  21.407  51.083  1.00  0.00     0.144 C 
HETATM   12  O3  UNL     1      11.629  22.322  51.273  1.00  0.00    -0.297 OA
HETATM   13  C18 UNL     1      10.905  20.145  51.884  1.00  0.00     0.080 C 
HETATM   14  C19 UNL     1       9.588  19.913  52.604  1.00  0.00     0.015 C 
HETATM   15  C20 UNL     1       8.394  20.257  51.776  1.00  0.00     0.080 C 
HETATM   16  C21 UNL     1       8.819  20.383  50.354  1.00  0.00     0.144 C 
HETATM   17  O4  UNL     1       8.395  19.625  49.493  1.00  0.00    -0.297 OA
ENDBRANCH   1  10
BRANCH   2  18
HETATM   18  C5  UNL     1      12.187  19.825  47.737  1.00  0.00     0.082 C 
HETATM   19  C6  UNL     1      13.130  18.843  48.427  1.00  0.00     0.025 C 
HETATM   20  C7  UNL     1      12.528  17.567  48.853  1.00  0.00     0.002 C 
HETATM   21  C8  UNL     1      13.657  16.631  49.249  1.00  0.00     0.000 C 
HETATM   22  C9  UNL     1      14.514  16.218  48.097  1.00  0.00     0.000 C 
HETATM   23  C10 UNL     1      13.788  15.578  46.962  1.00  0.00     0.000 C 
HETATM   24  C11 UNL     1      13.882  16.396  45.667  1.00  0.00     0.000 C 
HETATM   25  C12 UNL     1      12.544  16.614  45.044  1.00  0.00     0.000 C 
HETATM   26  C13 UNL     1      12.318  17.969  44.471  1.00  0.00     0.000 C 
HETATM   27  C14 UNL     1      12.548  19.100  45.437  1.00  0.00     0.002 C 
HETATM   28  C15 UNL     1      11.535  19.175  46.524  1.00  0.00     0.025 C 
ENDBRANCH   2  18
TORSDOF 6
ENDMDL
MODEL 2
REMARK VINA RESULT: -8.124010545      0.856      1.221
REMARK  6 active torsions:
REMARK  status: ('A' for Active; 'I' for Inactive)
REMARK    1  A    between atoms: O1_2  and  C2_3 
REMARK    2  A    between atoms: C2_3  and  C3_5 
REMARK    3  A    between atoms: C3_5  and  S1_6 
REMARK    4  A    between atoms: S1_6  and  C4_7 
REMARK    5  A    between atoms: C4_7  and  C16_21 
REMARK    6  A    between atoms: N1_8  and  C5_10 
ROOT
HETATM    1  C4  UNL     1      10.488  21.352  48.768  1.00  0.00     0.061 C 
HETATM    2  N1  UNL     1      11.268  20.407  48.659  1.00  0.00    -0.382 N 
ATOM      3  H1  UNL     1      11.241  19.858  49.518  1.00  0.00     0.160 HD
ENDROOT
BRANCH   1   4
HETATM    4  S1  UNL     1      10.079  22.647  47.643  1.00  0.00    -0.106 SA
BRANCH   4   5
HETATM    5  C3  UNL     1       8.875  23.826  48.173  1.00  0.00     0.191 C 
BRANCH   5   6
HETATM    6  C2  UNL     1       9.458  25.002  48.882  1.00  0.00     0.268 C 
HETATM    7  O2  UNL     1      10.646  24.936  49.266  1.00  0.00    -0.264 OA
BRANCH   6   8
HETATM    8  O1  UNL     1       8.744  26.157  49.133  1.00  0.00    -0.326 OA
HETATM    9  C1  UNL     1       8.022  26.335  50.337  1.00  0.00     0.213 C 
ENDBRANCH   6   8
ENDBRANCH   5   6
ENDBRANCH   4   5
ENDBRANCH   1   4
BRANCH   1  10
HETATM   10  C16 UNL     1       9.778  21.458  50.120  1.00  0.00     0.181 C 
HETATM   11  C17 UNL     1      10.785  21.558  51.214  1.00  0.00     0.144 C 
HETATM   12  O3  UNL     1      11.395  22.588  51.442  1.00  0.00    -0.297 OA
HETATM   13  C18 UNL     1      11.005  20.318  52.022  1.00  0.00     0.080 C 
HETATM   14  C19 UNL     1       9.709  19.871  52.673  1.00  0.00     0.015 C 
HETATM   15  C20 UNL     1       8.519  20.020  51.783  1.00  0.00     0.080 C 
HETATM   16  C21 UNL     1       8.991  20.220  50.384  1.00  0.00     0.144 C 
HETATM   17  O4  UNL     1       8.742  19.408  49.505  1.00  0.00    -0.297 OA
ENDBRANCH   1  10
BRANCH   2  18
HETATM   18  C5  UNL     1      12.168  19.823  47.787  1.00  0.00     0.082 C 
HETATM   19  C6  UNL     1      13.113  18.838  48.469  1.00  0.00     0.025 C 
HETATM   20  C7  UNL     1      12.513  17.559  48.888  1.00  0.00     0.002 C 
HETATM   21  C8  UNL     1      13.643  16.621  49.275  1.00  0.00     0.000 C 
HETATM   22  C9  UNL     1      14.498  16.216  48.118  1.00  0.00     0.000 C 
HETATM   23  C10 UNL     1      13.770  15.582  46.982  1.00  0.00     0.000 C 
HETATM   24  C11 UNL     1      13.860  16.409  45.691  1.00  0.00     0.000 C 
HETATM   25  C12 UNL     1      12.521  16.630  45.073  1.00  0.00     0.000 C 
HETATM   26  C13 UNL     1      12.292  17.988  44.509  1.00  0.00     0.000 C 
HETATM   27  C14 UNL     1      12.525  19.114  45.482  1.00  0.00     0.002 C 
HETATM   28  C15 UNL     1      11.513  19.181  46.571  1.00  0.00     0.025 C 
ENDBRANCH   2  18
TORSDOF 6
ENDMDL
MODEL 3
REMARK VINA RESULT: -8.081334162      1.755      3.926
REMARK  6 active torsions:
REMARK  status: ('A' for Active; 'I' for Inactive)
REMARK    1  A    between atoms: O1_2  and  C2_3 
REMARK    2  A    between atoms: C2_3  and  C3_5 
REMARK    3  A    between atoms: C3_5  and  S1_6 
REMARK    4  A    between atoms: S1_6  and  C4_7 
REMARK    5  A    between atoms: C4_7  and  C16_21 
REMARK    6  A    between atoms: N1_8  and  C5_10 
ROOT
HETATM    1  C4  UNL     1      10.092  20.273  48.716  1.00  0.00     0.061 C 
HETATM    2  N1  UNL     1      11.143  20.455  48.104  1.00  0.00    -0.382 N 
ATOM      3  H1  UNL     1      11.413  21.434  48.200  1.00  0.00     0.160 HD
ENDROOT
BRANCH   1   4
HETATM    4  S1  UNL     1       9.119  18.818  48.934  1.00  0.00    -0.106 SA
BRANCH   4   5
HETATM    5  C3  UNL     1       7.764  18.914  50.063  1.00  0.00     0.191 C 
BRANCH   5   6
HETATM    6  C2  UNL     1       8.173  19.211  51.467  1.00  0.00     0.268 C 
HETATM    7  O2  UNL     1       9.281  18.793  51.865  1.00  0.00    -0.264 OA
BRANCH   6   8
HETATM    8  O1  UNL     1       7.380  19.924  52.344  1.00  0.00    -0.326 OA
HETATM    9  C1  UNL     1       7.819  21.142  52.917  1.00  0.00     0.213 C 
ENDBRANCH   6   8
ENDBRANCH   5   6
ENDBRANCH   4   5
ENDBRANCH   1   4
BRANCH   1  10
HETATM   10  C16 UNL     1       9.493  21.522  49.368  1.00  0.00     0.181 C 
HETATM   11  C17 UNL     1       9.192  22.543  48.325  1.00  0.00     0.144 C 
HETATM   12  O3  UNL     1       8.227  22.452  47.587  1.00  0.00    -0.297 OA
HETATM   13  C18 UNL     1      10.146  23.692  48.234  1.00  0.00     0.080 C 
HETATM   14  C19 UNL     1      10.208  24.436  49.556  1.00  0.00     0.015 C 
HETATM   15  C20 UNL     1      10.189  23.532  50.744  1.00  0.00     0.080 C 
HETATM   16  C21 UNL     1      10.483  22.143  50.292  1.00  0.00     0.144 C 
HETATM   17  O4  UNL     1      11.485  21.550  50.664  1.00  0.00    -0.297 OA
ENDBRANCH   1  10
BRANCH   2  18
HETATM   18  C5  UNL     1      12.088  19.806  47.332  1.00  0.00     0.082 C 
HETATM   19  C6  UNL     1      12.994  18.883  48.142  1.00  0.00     0.025 C 
HETATM   20  C7  UNL     1      12.371  17.640  48.631  1.00  0.00     0.002 C 
HETATM   21  C8  UNL     1      13.479  16.741  49.153  1.00  0.00     0.000 C 
HETATM   22  C9  UNL     1      14.395  16.246  48.081  1.00  0.00     0.000 C 
HETATM   23  C10 UNL     1      13.729  15.520  46.962  1.00  0.00     0.000 C 
HETATM   24  C11 UNL     1      13.890  16.240  45.615  1.00  0.00     0.000 C 
HETATM   25  C12 UNL     1      12.586  16.404  44.910  1.00  0.00     0.000 C 
HETATM   26  C13 UNL     1      12.389  17.712  44.226  1.00  0.00     0.000 C 
HETATM   27  C14 UNL     1      12.569  18.914  45.115  1.00  0.00     0.002 C 
HETATM   28  C15 UNL     1      11.500  19.065  46.140  1.00  0.00     0.025 C 
ENDBRANCH   2  18
TORSDOF 6
ENDMDL
MODEL 4
REMARK VINA RESULT: -8.035235331      1.635      4.078
REMARK  6 active torsions:
REMARK  status: ('A' for Active; 'I' for Inactive)
REMARK    1  A    between atoms: O1_2  and  C2_3 
REMARK    2  A    between atoms: C2_3  and  C3_5 
REMARK    3  A    between atoms: C3_5  and  S1_6 
REMARK    4  A    between atoms: S1_6  and  C4_7 
REMARK    5  A    between atoms: C4_7  and  C16_21 
REMARK    6  A    between atoms: N1_8  and  C5_10 
ROOT
HETATM    1  C4  UNL     1      10.769  20.748  49.219  1.00  0.00     0.061 C 
HETATM    2  N1  UNL     1      11.038  20.409  48.068  1.00  0.00    -0.382 N 
ATOM      3  H1  UNL     1      10.272  20.692  47.456  1.00  0.00     0.160 HD
ENDROOT
BRANCH   1   4
HETATM    4  S1  UNL     1      11.673  20.553  50.721  1.00  0.00    -0.106 SA
BRANCH   4   5
HETATM    5  C3  UNL     1      10.779  20.748  52.233  1.00  0.00     0.191 C 
BRANCH   5   6
HETATM    6  C2  UNL     1       9.832  19.631  52.519  1.00  0.00     0.268 C 
HETATM    7  O2  UNL     1      10.291  18.569  52.992  1.00  0.00    -0.264 OA
BRANCH   6   8
HETATM    8  O1  UNL     1       8.475  19.719  52.282  1.00  0.00    -0.326 OA
HETATM    9  C1  UNL     1       7.718  20.833  52.716  1.00  0.00     0.213 C 
ENDBRANCH   6   8
ENDBRANCH   5   6
ENDBRANCH   4   5
ENDBRANCH   1   4
BRANCH   1  10
HETATM   10  C16 UNL     1       9.403  21.416  49.400  1.00  0.00     0.181 C 
HETATM   11  C17 UNL     1       8.379  20.701  48.588  1.00  0.00     0.144 C 
HETATM   12  O3  UNL     1       7.912  19.629  48.930  1.00  0.00    -0.297 OA
HETATM   13  C18 UNL     1       7.952  21.376  47.323  1.00  0.00     0.080 C 
HETATM   14  C19 UNL     1       7.379  22.750  47.623  1.00  0.00     0.015 C 
HETATM   15  C20 UNL     1       8.130  23.485  48.683  1.00  0.00     0.080 C 
HETATM   16  C21 UNL     1       9.445  22.815  48.890  1.00  0.00     0.144 C 
HETATM   17  O4  UNL     1      10.497  23.388  48.650  1.00  0.00    -0.297 OA
ENDBRANCH   1  10
BRANCH   2  18
HETATM   18  C5  UNL     1      12.006  19.782  47.308  1.00  0.00     0.082 C 
HETATM   19  C6  UNL     1      12.887  18.835  48.119  1.00  0.00     0.025 C 
HETATM   20  C7  UNL     1      12.249  17.579  48.553  1.00  0.00     0.002 C 
HETATM   21  C8  UNL     1      13.339  16.664  49.084  1.00  0.00     0.000 C 
HETATM   22  C9  UNL     1      14.288  16.199  48.027  1.00  0.00     0.000 C 
HETATM   23  C10 UNL     1      13.657  15.506  46.867  1.00  0.00     0.000 C 
HETATM   24  C11 UNL     1      13.860  16.263  45.548  1.00  0.00     0.000 C 
HETATM   25  C12 UNL     1      12.579  16.449  44.807  1.00  0.00     0.000 C 
HETATM   26  C13 UNL     1      12.403  17.776  44.155  1.00  0.00     0.000 C 
HETATM   27  C14 UNL     1      12.556  18.952  45.082  1.00  0.00     0.002 C 
HETATM   28  C15 UNL     1      11.456  19.076  46.077  1.00  0.00     0.025 C 
ENDBRANCH   2  18
TORSDOF 6
ENDMDL
MODEL 5
REMARK VINA RESULT: -8.033358285      1.660      4.396
REMARK  6 active torsions:
REMARK  status: ('A' for Active; 'I' for Inactive)
REMARK    1  A    between atoms: O1_2  and  C2_3 
REMARK    2  A    between atoms: C2_3  and  C3_5 
REMARK    3  A    between atoms: C3_5  and  S1_6 
REMARK    4  A    between atoms: S1_6  and  C4_7 
REMARK    5  A    between atoms: C4_7  and  C16_21 
REMARK    6  A    between atoms: N1_8  and  C5_10 
ROOT
HETATM    1  C4  UNL     1      10.443  20.943  49.177  1.00  0.00     0.061 C 
HETATM    2  N1  UNL     1      11.275  20.189  48.677  1.00  0.00    -0.382 N 
ATOM      3  H1  UNL     1      12.080  20.740  48.377  1.00  0.00     0.160 HD
ENDROOT
BRANCH   1   4
HETATM    4  S1  UNL     1       8.859  20.613  49.878  1.00  0.00    -0.106 SA
BRANCH   4   5
HETATM    5  C3  UNL     1       8.748  19.282  51.034  1.00  0.00     0.191 C 
BRANCH   5   6
HETATM    6  C2  UNL     1       9.682  19.412  52.191  1.00  0.00     0.268 C 
HETATM    7  O2  UNL     1       9.289  20.024  53.207  1.00  0.00    -0.264 OA
BRANCH   6   8
HETATM    8  O1  UNL     1      10.959  18.889  52.185  1.00  0.00    -0.326 OA
HETATM    9  C1  UNL     1      12.102  19.723  52.158  1.00  0.00     0.213 C 
ENDBRANCH   6   8
ENDBRANCH   5   6
ENDBRANCH   4   5
ENDBRANCH   1   4
BRANCH   1  10
HETATM   10  C16 UNL     1      10.813  22.429  49.155  1.00  0.00     0.181 C 
HETATM   11  C17 UNL     1      10.352  23.085  50.411  1.00  0.00     0.144 C 
HETATM   12  O3  UNL     1      10.939  22.944  51.469  1.00  0.00    -0.297 OA
HETATM   13  C18 UNL     1       9.124  23.931  50.300  1.00  0.00     0.080 C 
HETATM   14  C19 UNL     1       9.335  25.043  49.288  1.00  0.00     0.015 C 
HETATM   15  C20 UNL     1      10.091  24.605  48.078  1.00  0.00     0.080 C 
HETATM   16  C21 UNL     1      10.106  23.116  48.037  1.00  0.00     0.144 C 
HETATM   17  O4  UNL     1       9.566  22.498  47.132  1.00  0.00    -0.297 OA
ENDBRANCH   1  10
BRANCH   2  18
HETATM   18  C5  UNL     1      11.510  18.861  48.377  1.00  0.00     0.082 C 
HETATM   19  C6  UNL     1      11.334  18.540  46.895  1.00  0.00     0.025 C 
HETATM   20  C7  UNL     1      12.387  19.049  45.999  1.00  0.00     0.002 C 
HETATM   21  C8  UNL     1      12.194  18.398  44.640  1.00  0.00     0.000 C 
HETATM   22  C9  UNL     1      12.454  16.927  44.645  1.00  0.00     0.000 C 
HETATM   23  C10 UNL     1      13.802  16.522  45.139  1.00  0.00     0.000 C 
HETATM   24  C11 UNL     1      13.729  15.675  46.418  1.00  0.00     0.000 C 
HETATM   25  C12 UNL     1      14.635  16.192  47.484  1.00  0.00     0.000 C 
HETATM   26  C13 UNL     1      14.081  16.163  48.865  1.00  0.00     0.000 C 
HETATM   27  C14 UNL     1      12.761  16.870  49.021  1.00  0.00     0.002 C 
HETATM   28  C15 UNL     1      12.853  18.348  48.878  1.00  0.00     0.025 C 
ENDBRANCH   2  18
TORSDOF 6
ENDMDL
