MODEL 1
REMARK VINA RESULT: -7.183809676      0.000      0.000
REMARK  10 active torsions:
REMARK  status: ('A' for Active; 'I' for Inactive)
REMARK    1  A    between atoms: C2_2  and  C3_3 
REMARK    2  A    between atoms: C6_6  and  O1_7 
REMARK    3  A    between atoms: O1_7  and  C7_8 
REMARK    4  A    between atoms: C14_16  and  O3_17 
REMARK    5  A    between atoms: O3_17  and  C15_18 
REMARK    6  A    between atoms: C15_18  and  C16_20 
REMARK    7  A    between atoms: C16_20  and  N1_21 
REMARK    8  A    between atoms: C19_24  and  O5_25 
REMARK    9  A    between atoms: O5_25  and  C20_26 
REMARK   10  A    between atoms: C20_26  and  O7_28 
ROOT
HETATM    1  C3  UNL     1       8.505  20.957  48.046  1.00  0.00     0.004 A 
HETATM    2  C4  UNL     1       8.698  22.443  48.117  1.00  0.00     0.025 C 
HETATM    3  C5  UNL     1       8.396  20.409  49.420  1.00  0.00     0.026 A 
HETATM    4  C6  UNL     1       9.352  19.515  49.627  1.00  0.00     0.090 A 
HETATM    5  C9  UNL     1      10.187  19.372  48.438  1.00  0.00     0.042 A 
HETATM    6  C10 UNL     1       9.666  20.242  47.501  1.00  0.00    -0.029 A 
HETATM    7  C11 UNL     1      10.287  20.301  46.261  1.00  0.00     0.019 A 
HETATM    8  C12 UNL     1      11.382  19.504  46.010  1.00  0.00    -0.025 A 
HETATM    9  C13 UNL     1      12.013  19.601  44.671  1.00  0.00     0.051 C 
HETATM   10  C14 UNL     1      11.891  18.640  46.957  1.00  0.00     0.120 A 
HETATM   11  C19 UNL     1      11.288  18.573  48.180  1.00  0.00     0.129 A 
ENDROOT
BRANCH  10  12
HETATM   12  O3  UNL     1      12.998  17.879  46.608  1.00  0.00    -0.274 OA
BRANCH  12  13
HETATM   13  C15 UNL     1      12.862  16.560  46.150  1.00  0.00     0.292 C 
HETATM   14  O4  UNL     1      13.003  15.666  47.024  1.00  0.00    -0.263 OA
BRANCH  13  15
HETATM   15  C16 UNL     1      12.576  16.209  44.752  1.00  0.00     0.382 C 
BRANCH  15  16
HETATM   16  N1  UNL     1      13.670  16.485  43.863  1.00  0.00     0.089 N 
HETATM   17  C17 UNL     1      14.610  15.379  43.870  1.00  0.00     0.310 C 
HETATM   18  C18 UNL     1      13.209  16.631  42.494  1.00  0.00     0.310 C 
ENDBRANCH  15  16
ENDBRANCH  13  15
ENDBRANCH  12  13
ENDBRANCH  10  12
BRANCH  11  19
HETATM   19  O5  UNL     1      11.801  17.709  49.119  1.00  0.00    -0.252 OA
BRANCH  19  20
HETATM   20  C20 UNL     1      12.880  17.990  49.935  1.00  0.00     0.411 C 
HETATM   21  O6  UNL     1      12.920  17.479  51.084  1.00  0.00    -0.229 OA
BRANCH  20  22
HETATM   22  O7  UNL     1      13.934  18.811  49.552  1.00  0.00    -0.303 OA
HETATM   23  C21 UNL     1      14.038  20.167  49.875  1.00  0.00     0.215 C 
ENDBRANCH  20  22
ENDBRANCH  19  20
ENDBRANCH  11  19
BRANCH   4  24
HETATM   24  O1  UNL     1       9.558  18.792  50.812  1.00  0.00    -0.279 OA
BRANCH  24  25
HETATM   25  C7  UNL     1      10.156  19.397  51.909  1.00  0.00     0.260 C 
HETATM   26  C8  UNL     1      10.808  20.718  51.864  1.00  0.00     0.126 C 
HETATM   27  O2  UNL     1      10.136  18.781  53.000  1.00  0.00    -0.265 OA
ENDBRANCH  24  25
ENDBRANCH   4  24
BRANCH   1  28
HETATM   28  C2  UNL     1       7.213  20.628  47.332  1.00  0.00     0.014 C 
HETATM   29  C1  UNL     1       6.793  21.694  46.361  1.00  0.00     0.006 C 
ENDBRANCH   1  28
TORSDOF 10
ENDMDL
MODEL 2
REMARK VINA RESULT: -7.147334663      2.381      6.520
REMARK  10 active torsions:
REMARK  status: ('A' for Active; 'I' for Inactive)
REMARK    1  A    between atoms: C2_2  and  C3_3 
REMARK    2  A    between atoms: C6_6  and  O1_7 
REMARK    3  A    between atoms: O1_7  and  C7_8 
REMARK    4  A    between atoms: C14_16  and  O3_17 
REMARK    5  A    between atoms: O3_17  and  C15_18 
REMARK    6  A    between atoms: C15_18  and  C16_20 
REMARK    7  A    between atoms: C16_20  and  N1_21 
REMARK    8  A    between atoms: C19_24  and  O5_25 
REMARK    9  A    between atoms: O5_25  and  C20_26 
REMARK   10  A    between atoms: C20_26  and  O7_28 
ROOT
HETATM    1  C3  UNL     1      12.793  16.080  43.024  1.00  0.00     0.004 A 
HETATM    2  C4  UNL     1      11.639  15.391  42.359  1.00  0.00     0.025 C 
HETATM    3  C5  UNL     1      13.291  15.238  44.139  1.00  0.00     0.026 A 
HETATM    4  C6  UNL     1      13.212  15.906  45.281  1.00  0.00     0.090 A 
HETATM    5  C9  UNL     1      12.662  17.240  45.058  1.00  0.00     0.042 A 
HETATM    6  C10 UNL     1      12.417  17.328  43.702  1.00  0.00    -0.029 A 
HETATM    7  C11 UNL     1      11.883  18.515  43.219  1.00  0.00     0.019 A 
HETATM    8  C12 UNL     1      11.620  19.547  44.092  1.00  0.00    -0.025 A 
HETATM    9  C13 UNL     1      11.050  20.796  43.532  1.00  0.00     0.051 C 
HETATM   10  C14 UNL     1      11.871  19.444  45.444  1.00  0.00     0.120 A 
HETATM   11  C19 UNL     1      12.396  18.281  45.931  1.00  0.00     0.129 A 
ENDROOT
BRANCH  10  12
HETATM   12  O3  UNL     1      11.572  20.539  46.242  1.00  0.00    -0.274 OA
BRANCH  12  13
HETATM   13  C15 UNL     1      10.430  20.558  47.058  1.00  0.00     0.292 C 
HETATM   14  O4  UNL     1       9.354  20.241  46.491  1.00  0.00    -0.263 OA
BRANCH  13  15
HETATM   15  C16 UNL     1      10.454  20.921  48.482  1.00  0.00     0.382 C 
BRANCH  15  16
HETATM   16  N1  UNL     1       9.301  20.461  49.204  1.00  0.00     0.089 N 
HETATM   17  C17 UNL     1       9.712  19.684  50.359  1.00  0.00     0.310 C 
HETATM   18  C18 UNL     1       8.520  21.575  49.708  1.00  0.00     0.310 C 
ENDBRANCH  15  16
ENDBRANCH  13  15
ENDBRANCH  12  13
ENDBRANCH  10  12
BRANCH  11  19
HETATM   19  O5  UNL     1      12.643  18.186  47.280  1.00  0.00    -0.252 OA
BRANCH  19  20
HETATM   20  C20 UNL     1      11.840  17.510  48.178  1.00  0.00     0.411 C 
HETATM   21  O6  UNL     1      10.652  17.251  47.854  1.00  0.00    -0.229 OA
BRANCH  20  22
HETATM   22  O7  UNL     1      12.276  17.093  49.431  1.00  0.00    -0.303 OA
HETATM   23  C21 UNL     1      13.041  17.875  50.302  1.00  0.00     0.215 C 
ENDBRANCH  20  22
ENDBRANCH  19  20
ENDBRANCH  11  19
BRANCH   4  24
HETATM   24  O1  UNL     1      13.595  15.425  46.542  1.00  0.00    -0.279 OA
BRANCH  24  25
HETATM   25  C7  UNL     1      14.911  15.543  46.969  1.00  0.00     0.260 C 
HETATM   26  C8  UNL     1      16.078  15.287  46.108  1.00  0.00     0.126 C 
HETATM   27  O2  UNL     1      15.111  15.888  48.158  1.00  0.00    -0.265 OA
ENDBRANCH  24  25
ENDBRANCH   4  24
BRANCH   1  28
HETATM   28  C2  UNL     1      13.936  16.252  42.050  1.00  0.00     0.014 C 
HETATM   29  C1  UNL     1      14.952  15.147  42.139  1.00  0.00     0.006 C 
ENDBRANCH   1  28
TORSDOF 10
ENDMDL
MODEL 3
REMARK VINA RESULT: -7.094787525      2.571      6.686
REMARK  10 active torsions:
REMARK  status: ('A' for Active; 'I' for Inactive)
REMARK    1  A    between atoms: C2_2  and  C3_3 
REMARK    2  A    between atoms: C6_6  and  O1_7 
REMARK    3  A    between atoms: O1_7  and  C7_8 
REMARK    4  A    between atoms: C14_16  and  O3_17 
REMARK    5  A    between atoms: O3_17  and  C15_18 
REMARK    6  A    between atoms: C15_18  and  C16_20 
REMARK    7  A    between atoms: C16_20  and  N1_21 
REMARK    8  A    between atoms: C19_24  and  O5_25 
REMARK    9  A    between atoms: O5_25  and  C20_26 
REMARK   10  A    between atoms: C20_26  and  O7_28 
ROOT
HETATM    1  C3  UNL     1      12.865  16.057  42.966  1.00  0.00     0.004 A 
HETATM    2  C4  UNL     1      11.652  15.314  42.487  1.00  0.00     0.025 C 
HETATM    3  C5  UNL     1      13.602  15.218  43.942  1.00  0.00     0.026 A 
HETATM    4  C6  UNL     1      13.688  15.847  45.105  1.00  0.00     0.090 A 
HETATM    5  C9  UNL     1      13.031  17.149  45.034  1.00  0.00     0.042 A 
HETATM    6  C10 UNL     1      12.544  17.259  43.747  1.00  0.00    -0.029 A 
HETATM    7  C11 UNL     1      11.865  18.422  43.411  1.00  0.00     0.019 A 
HETATM    8  C12 UNL     1      11.703  19.411  44.357  1.00  0.00    -0.025 A 
HETATM    9  C13 UNL     1      10.970  20.636  43.954  1.00  0.00     0.051 C 
HETATM   10  C14 UNL     1      12.195  19.286  45.638  1.00  0.00     0.120 A 
HETATM   11  C19 UNL     1      12.865  18.146  45.980  1.00  0.00     0.129 A 
ENDROOT
BRANCH  10  12
HETATM   12  O3  UNL     1      11.980  20.338  46.518  1.00  0.00    -0.274 OA
BRANCH  12  13
HETATM   13  C15 UNL     1      10.949  20.294  47.469  1.00  0.00     0.292 C 
HETATM   14  O4  UNL     1       9.912  19.677  47.116  1.00  0.00    -0.263 OA
BRANCH  13  15
HETATM   15  C16 UNL     1      11.040  20.919  48.796  1.00  0.00     0.382 C 
BRANCH  15  16
HETATM   16  N1  UNL     1      11.501  20.020  49.817  1.00  0.00     0.089 N 
HETATM   17  C17 UNL     1      12.805  20.437  50.298  1.00  0.00     0.310 C 
HETATM   18  C18 UNL     1      10.612  20.026  50.963  1.00  0.00     0.310 C 
ENDBRANCH  15  16
ENDBRANCH  13  15
ENDBRANCH  12  13
ENDBRANCH  10  12
BRANCH  11  19
HETATM   19  O5  UNL     1      13.354  18.029  47.260  1.00  0.00    -0.252 OA
BRANCH  19  20
HETATM   20  C20 UNL     1      12.784  17.249  48.247  1.00  0.00     0.411 C 
HETATM   21  O6  UNL     1      13.529  16.738  49.123  1.00  0.00    -0.229 OA
BRANCH  20  22
HETATM   22  O7  UNL     1      11.419  16.996  48.329  1.00  0.00    -0.303 OA
HETATM   23  C21 UNL     1      10.782  15.898  47.742  1.00  0.00     0.215 C 
ENDBRANCH  20  22
ENDBRANCH  19  20
ENDBRANCH  11  19
BRANCH   4  24
HETATM   24  O1  UNL     1      14.316  15.356  46.259  1.00  0.00    -0.279 OA
BRANCH  24  25
HETATM   25  C7  UNL     1      15.674  15.065  46.251  1.00  0.00     0.260 C 
HETATM   26  C8  UNL     1      16.644  15.703  45.343  1.00  0.00     0.126 C 
HETATM   27  O2  UNL     1      16.094  14.210  47.066  1.00  0.00    -0.265 OA
ENDBRANCH  24  25
ENDBRANCH   4  24
BRANCH   1  28
HETATM   28  C2  UNL     1      13.805  16.328  41.813  1.00  0.00     0.014 C 
HETATM   29  C1  UNL     1      14.983  15.396  41.787  1.00  0.00     0.006 C 
ENDBRANCH   1  28
TORSDOF 10
ENDMDL
MODEL 4
REMARK VINA RESULT: -6.970726686      4.012      7.284
REMARK  10 active torsions:
REMARK  status: ('A' for Active; 'I' for Inactive)
REMARK    1  A    between atoms: C2_2  and  C3_3 
REMARK    2  A    between atoms: C6_6  and  O1_7 
REMARK    3  A    between atoms: O1_7  and  C7_8 
REMARK    4  A    between atoms: C14_16  and  O3_17 
REMARK    5  A    between atoms: O3_17  and  C15_18 
REMARK    6  A    between atoms: C15_18  and  C16_20 
REMARK    7  A    between atoms: C16_20  and  N1_21 
REMARK    8  A    between atoms: C19_24  and  O5_25 
REMARK    9  A    between atoms: O5_25  and  C20_26 
REMARK   10  A    between atoms: C20_26  and  O7_28 
ROOT
HETATM    1  C3  UNL     1      11.800  19.503  47.956  1.00  0.00     0.004 A 
HETATM    2  C4  UNL     1      11.541  18.571  46.810  1.00  0.00     0.025 C 
HETATM    3  C5  UNL     1      11.319  18.883  49.214  1.00  0.00     0.026 A 
HETATM    4  C6  UNL     1      10.401  19.655  49.778  1.00  0.00     0.090 A 
HETATM    5  C9  UNL     1      10.173  20.852  48.973  1.00  0.00     0.042 A 
HETATM    6  C10 UNL     1      11.019  20.746  47.887  1.00  0.00    -0.029 A 
HETATM    7  C11 UNL     1      11.000  21.771  46.951  1.00  0.00     0.019 A 
HETATM    8  C12 UNL     1      10.152  22.842  47.135  1.00  0.00    -0.025 A 
HETATM    9  C13 UNL     1      10.165  23.914  46.110  1.00  0.00     0.051 C 
HETATM   10  C14 UNL     1       9.314  22.934  48.225  1.00  0.00     0.120 A 
HETATM   11  C19 UNL     1       9.325  21.931  49.152  1.00  0.00     0.129 A 
ENDROOT
BRANCH  10  12
HETATM   12  O3  UNL     1       8.498  24.052  48.320  1.00  0.00    -0.274 OA
BRANCH  12  13
HETATM   13  C15 UNL     1       8.814  25.116  49.179  1.00  0.00     0.292 C 
HETATM   14  O4  UNL     1       9.981  25.571  49.072  1.00  0.00    -0.263 OA
BRANCH  13  15
HETATM   15  C16 UNL     1       7.871  25.683  50.153  1.00  0.00     0.382 C 
BRANCH  15  16
HETATM   16  N1  UNL     1       7.686  27.100  50.006  1.00  0.00     0.089 N 
HETATM   17  C17 UNL     1       6.284  27.399  49.776  1.00  0.00     0.310 C 
HETATM   18  C18 UNL     1       8.071  27.808  51.212  1.00  0.00     0.310 C 
ENDBRANCH  15  16
ENDBRANCH  13  15
ENDBRANCH  12  13
ENDBRANCH  10  12
BRANCH  11  19
HETATM   19  O5  UNL     1       8.486  22.030  50.237  1.00  0.00    -0.252 OA
BRANCH  19  20
HETATM   20  C20 UNL     1       8.849  22.558  51.461  1.00  0.00     0.411 C 
HETATM   21  O6  UNL     1       9.975  23.108  51.575  1.00  0.00    -0.229 OA
BRANCH  20  22
HETATM   22  O7  UNL     1       8.030  22.517  52.584  1.00  0.00    -0.303 OA
HETATM   23  C21 UNL     1       7.558  21.341  53.176  1.00  0.00     0.215 C 
ENDBRANCH  20  22
ENDBRANCH  19  20
ENDBRANCH  11  19
BRANCH   4  24
HETATM   24  O1  UNL     1       9.726  19.387  50.977  1.00  0.00    -0.279 OA
BRANCH  24  25
HETATM   25  C7  UNL     1      10.408  19.405  52.187  1.00  0.00     0.260 C 
HETATM   26  C8  UNL     1      11.550  20.291  52.471  1.00  0.00     0.126 C 
HETATM   27  O2  UNL     1      10.025  18.620  53.086  1.00  0.00    -0.265 OA
ENDBRANCH  24  25
ENDBRANCH   4  24
BRANCH   1  28
HETATM   28  C2  UNL     1      13.285  19.740  48.117  1.00  0.00     0.014 C 
HETATM   29  C1  UNL     1      13.742  19.643  49.544  1.00  0.00     0.006 C 
ENDBRANCH   1  28
TORSDOF 10
ENDMDL
MODEL 5
REMARK VINA RESULT: -6.968527973      4.353      6.899
REMARK  10 active torsions:
REMARK  status: ('A' for Active; 'I' for Inactive)
REMARK    1  A    between atoms: C2_2  and  C3_3 
REMARK    2  A    between atoms: C6_6  and  O1_7 
REMARK    3  A    between atoms: O1_7  and  C7_8 
REMARK    4  A    between atoms: C14_16  and  O3_17 
REMARK    5  A    between atoms: O3_17  and  C15_18 
REMARK    6  A    between atoms: C15_18  and  C16_20 
REMARK    7  A    between atoms: C16_20  and  N1_21 
REMARK    8  A    between atoms: C19_24  and  O5_25 
REMARK    9  A    between atoms: O5_25  and  C20_26 
REMARK   10  A    between atoms: C20_26  and  O7_28 
ROOT
HETATM    1  C3  UNL     1      12.511  17.714  46.879  1.00  0.00     0.004 A 
HETATM    2  C4  UNL     1      13.182  18.898  47.509  1.00  0.00     0.025 C 
HETATM    3  C5  UNL     1      13.320  16.497  47.132  1.00  0.00     0.026 A 
HETATM    4  C6  UNL     1      13.685  15.949  45.983  1.00  0.00     0.090 A 
HETATM    5  C9  UNL     1      13.170  16.725  44.858  1.00  0.00     0.042 A 
HETATM    6  C10 UNL     1      12.469  17.777  45.412  1.00  0.00    -0.029 A 
HETATM    7  C11 UNL     1      11.869  18.680  44.545  1.00  0.00     0.019 A 
HETATM    8  C12 UNL     1      11.990  18.499  43.184  1.00  0.00    -0.025 A 
HETATM    9  C13 UNL     1      11.333  19.488  42.296  1.00  0.00     0.051 C 
HETATM   10  C14 UNL     1      12.694  17.442  42.647  1.00  0.00     0.120 A 
HETATM   11  C19 UNL     1      13.289  16.548  43.490  1.00  0.00     0.129 A 
ENDROOT
BRANCH  10  12
HETATM   12  O3  UNL     1      12.759  17.347  41.264  1.00  0.00    -0.274 OA
BRANCH  12  13
HETATM   13  C15 UNL     1      11.598  17.223  40.485  1.00  0.00     0.292 C 
HETATM   14  O4  UNL     1      10.658  16.576  41.013  1.00  0.00    -0.263 OA
BRANCH  13  15
HETATM   15  C16 UNL     1      11.456  17.796  39.140  1.00  0.00     0.382 C 
BRANCH  15  16
HETATM   16  N1  UNL     1      10.229  18.520  38.957  1.00  0.00     0.089 N 
HETATM   17  C17 UNL     1      10.509  19.872  38.510  1.00  0.00     0.310 C 
HETATM   18  C18 UNL     1       9.404  17.906  37.933  1.00  0.00     0.310 C 
ENDBRANCH  15  16
ENDBRANCH  13  15
ENDBRANCH  12  13
ENDBRANCH  10  12
BRANCH  11  19
HETATM   19  O5  UNL     1      13.988  15.497  42.946  1.00  0.00    -0.252 OA
BRANCH  19  20
HETATM   20  C20 UNL     1      13.420  14.302  42.546  1.00  0.00     0.411 C 
HETATM   21  O6  UNL     1      12.189  14.272  42.285  1.00  0.00    -0.229 OA
BRANCH  20  22
HETATM   22  O7  UNL     1      14.141  13.121  42.411  1.00  0.00    -0.303 OA
HETATM   23  C21 UNL     1      15.536  13.040  42.423  1.00  0.00     0.215 C 
ENDBRANCH  20  22
ENDBRANCH  19  20
ENDBRANCH  11  19
BRANCH   4  24
HETATM   24  O1  UNL     1      14.458  14.788  45.835  1.00  0.00    -0.279 OA
BRANCH  24  25
HETATM   25  C7  UNL     1      15.829  14.823  46.057  1.00  0.00     0.260 C 
HETATM   26  C8  UNL     1      16.761  15.674  45.297  1.00  0.00     0.126 C 
HETATM   27  O2  UNL     1      16.295  14.086  46.958  1.00  0.00    -0.265 OA
ENDBRANCH  24  25
ENDBRANCH   4  24
BRANCH   1  28
HETATM   28  C2  UNL     1      11.153  17.483  47.505  1.00  0.00     0.014 C 
HETATM   29  C1  UNL     1      10.862  16.031  47.754  1.00  0.00     0.006 C 
ENDBRANCH   1  28
TORSDOF 10
ENDMDL
