MODEL 1
REMARK VINA RESULT: -4.545923621      0.000      0.000
REMARK  2 active torsions:
REMARK  status: ('A' for Active; 'I' for Inactive)
REMARK    1  A    between atoms: C5_5  and  O1_7 
REMARK    2  A    between atoms: C8_11  and  O2_13 
ROOT
HETATM    1  C1  UNL     1      19.068   1.794  22.554  1.00  0.00     0.011 C 
HETATM    2  C2  UNL     1      20.255   2.638  22.799  1.00  0.00     0.003 C 
HETATM    3  C3  UNL     1      20.371   2.900  24.285  1.00  0.00     0.009 C 
HETATM    4  C4  UNL     1      21.079   1.843  25.038  1.00  0.00     0.040 C 
HETATM    5  C5  UNL     1      22.385   1.392  24.433  1.00  0.00     0.076 C 
HETATM    6  C6  UNL     1      22.841   0.201  25.291  1.00  0.00     0.047 C 
HETATM    7  C7  UNL     1      22.145   1.001  23.022  1.00  0.00     0.098 C 
HETATM    8 BR1  UNL     1      20.991  -0.507  22.907  1.00  0.00    -0.077 Br
HETATM    9  C8  UNL     1      23.383   0.736  22.214  1.00  0.00     0.089 C 
HETATM   10  C9  UNL     1      23.861  -0.677  22.274  1.00  0.00     0.049 C 
HETATM   11  C10 UNL     1      22.897   0.982  20.782  1.00  0.00     0.095 C 
HETATM   12 BR2  UNL     1      24.227   1.899  19.738  1.00  0.00    -0.088 Br
HETATM   13  C11 UNL     1      21.604   1.727  20.873  1.00  0.00     0.042 C 
HETATM   14  C12 UNL     1      21.549   2.173  22.288  1.00  0.00     0.046 C 
HETATM   15 BR3  UNL     1      22.767   3.708  22.396  1.00  0.00    -0.083 Br
ENDROOT
BRANCH   5  16
HETATM   16  O1  UNL     1      23.387   2.350  24.594  1.00  0.00    -0.388 OA
ATOM     17  H1  UNL     1      24.175   1.975  24.970  1.00  0.00     0.210 HD
ENDBRANCH   5  16
BRANCH   9  18
HETATM   18  O2  UNL     1      24.408   1.615  22.442  1.00  0.00    -0.387 OA
ATOM     19  H2  UNL     1      24.617   1.745  23.360  1.00  0.00     0.210 HD
ENDBRANCH   9  18
TORSDOF 2
ENDMDL
MODEL 2
REMARK VINA RESULT: -4.086570419      3.445      5.445
REMARK  2 active torsions:
REMARK  status: ('A' for Active; 'I' for Inactive)
REMARK    1  A    between atoms: C5_5  and  O1_7 
REMARK    2  A    between atoms: C8_11  and  O2_13 
ROOT
HETATM    1  C1  UNL     1      22.801   0.198  18.303  1.00  0.00     0.011 C 
HETATM    2  C2  UNL     1      23.548   0.580  19.518  1.00  0.00     0.003 C 
HETATM    3  C3  UNL     1      25.020   0.315  19.289  1.00  0.00     0.009 C 
HETATM    4  C4  UNL     1      25.740   1.414  18.611  1.00  0.00     0.040 C 
HETATM    5  C5  UNL     1      25.488   2.789  19.176  1.00  0.00     0.076 C 
HETATM    6  C6  UNL     1      26.203   3.759  18.222  1.00  0.00     0.047 C 
HETATM    7  C7  UNL     1      24.023   3.025  19.212  1.00  0.00     0.098 C 
HETATM    8 BR1  UNL     1      23.282   3.058  17.461  1.00  0.00    -0.077 Br
HETATM    9  C8  UNL     1      23.594   4.262  19.950  1.00  0.00     0.089 C 
HETATM   10  C9  UNL     1      23.531   5.488  19.102  1.00  0.00     0.049 C 
HETATM   11  C10 UNL     1      22.156   3.920  20.351  1.00  0.00     0.095 C 
HETATM   12 BR2  UNL     1      21.757   4.538  22.128  1.00  0.00    -0.088 Br
HETATM   13  C11 UNL     1      21.988   2.443  20.189  1.00  0.00     0.042 C 
HETATM   14  C12 UNL     1      23.376   1.942  20.034  1.00  0.00     0.046 C 
HETATM   15 BR3  UNL     1      24.136   1.944  21.844  1.00  0.00    -0.083 Br
ENDROOT
BRANCH   5  16
HETATM   16  O1  UNL     1      26.122   2.968  20.406  1.00  0.00    -0.388 OA
ATOM     17  H1  UNL     1      26.084   3.873  20.694  1.00  0.00     0.210 HD
ENDBRANCH   5  16
BRANCH   9  18
HETATM   18  O2  UNL     1      24.284   4.497  21.110  1.00  0.00    -0.387 OA
ATOM     19  H2  UNL     1      24.744   5.327  21.132  1.00  0.00     0.210 HD
ENDBRANCH   9  18
TORSDOF 2
ENDMDL
MODEL 3
REMARK VINA RESULT: -4.037541240      2.240      3.720
REMARK  2 active torsions:
REMARK  status: ('A' for Active; 'I' for Inactive)
REMARK    1  A    between atoms: C5_5  and  O1_7 
REMARK    2  A    between atoms: C8_11  and  O2_13 
ROOT
HETATM    1  C1  UNL     1      24.298   0.161  23.592  1.00  0.00     0.011 C 
HETATM    2  C2  UNL     1      23.534   0.146  22.329  1.00  0.00     0.003 C 
HETATM    3  C3  UNL     1      22.248  -0.622  22.544  1.00  0.00     0.009 C 
HETATM    4  C4  UNL     1      21.140   0.185  23.098  1.00  0.00     0.040 C 
HETATM    5  C5  UNL     1      20.908   1.508  22.414  1.00  0.00     0.076 C 
HETATM    6  C6  UNL     1      19.835   2.219  23.254  1.00  0.00     0.047 C 
HETATM    7  C7  UNL     1      22.186   2.262  22.393  1.00  0.00     0.098 C 
HETATM    8 BR1  UNL     1      22.763   2.701  24.150  1.00  0.00    -0.077 Br
HETATM    9  C8  UNL     1      22.178   3.508  21.552  1.00  0.00     0.089 C 
HETATM   10  C9  UNL     1      21.743   4.734  22.283  1.00  0.00     0.049 C 
HETATM   11  C10 UNL     1      23.663   3.688  21.221  1.00  0.00     0.095 C 
HETATM   12 BR2  UNL     1      23.912   4.269  19.405  1.00  0.00    -0.088 Br
HETATM   13  C11 UNL     1      24.347   2.393  21.525  1.00  0.00     0.042 C 
HETATM   14  C12 UNL     1      23.229   1.431  21.692  1.00  0.00     0.046 C 
HETATM   15 BR3  UNL     1      22.626   1.013  19.871  1.00  0.00    -0.083 Br
ENDROOT
BRANCH   5  16
HETATM   16  O1  UNL     1      20.324   1.345  21.157  1.00  0.00    -0.388 OA
ATOM     17  H1  UNL     1      20.928   1.564  20.456  1.00  0.00     0.210 HD
ENDBRANCH   5  16
BRANCH   9  18
HETATM   18  O2  UNL     1      21.518   3.382  20.359  1.00  0.00    -0.387 OA
ATOM     19  H2  UNL     1      21.668   4.095  19.750  1.00  0.00     0.210 HD
ENDBRANCH   9  18
TORSDOF 2
ENDMDL
MODEL 4
REMARK VINA RESULT: -3.928580073      2.303      4.239
REMARK  2 active torsions:
REMARK  status: ('A' for Active; 'I' for Inactive)
REMARK    1  A    between atoms: C5_5  and  O1_7 
REMARK    2  A    between atoms: C8_11  and  O2_13 
ROOT
HETATM    1  C1  UNL     1      25.713  -0.038  24.877  1.00  0.00     0.011 C 
HETATM    2  C2  UNL     1      24.557  -0.612  24.160  1.00  0.00     0.003 C 
HETATM    3  C3  UNL     1      24.052  -1.813  24.928  1.00  0.00     0.009 C 
HETATM    4  C4  UNL     1      23.102  -1.489  26.014  1.00  0.00     0.040 C 
HETATM    5  C5  UNL     1      21.990  -0.547  25.630  1.00  0.00     0.076 C 
HETATM    6  C6  UNL     1      21.245  -0.242  26.939  1.00  0.00     0.047 C 
HETATM    7  C7  UNL     1      22.585   0.673  25.033  1.00  0.00     0.098 C 
HETATM    8 BR1  UNL     1      23.635   1.626  26.301  1.00  0.00    -0.077 Br
HETATM    9  C8  UNL     1      21.604   1.618  24.398  1.00  0.00     0.089 C 
HETATM   10  C9  UNL     1      21.045   2.637  25.333  1.00  0.00     0.049 C 
HETATM   11  C10 UNL     1      22.479   2.368  23.389  1.00  0.00     0.095 C 
HETATM   12 BR2  UNL     1      21.545   2.666  21.734  1.00  0.00    -0.088 Br
HETATM   13  C11 UNL     1      23.740   1.581  23.221  1.00  0.00     0.042 C 
HETATM   14  C12 UNL     1      23.429   0.273  23.851  1.00  0.00     0.046 C 
HETATM   15 BR3  UNL     1      22.321  -0.683  22.543  1.00  0.00    -0.083 Br
ENDROOT
BRANCH   5  16
HETATM   16  O1  UNL     1      21.040  -1.170  24.819  1.00  0.00    -0.388 OA
ATOM     17  H1  UNL     1      20.322  -0.586  24.604  1.00  0.00     0.210 HD
ENDBRANCH   5  16
BRANCH   9  18
HETATM   18  O2  UNL     1      20.610   1.005  23.682  1.00  0.00    -0.387 OA
ATOM     19  H2  UNL     1      19.959   1.598  23.327  1.00  0.00     0.210 HD
ENDBRANCH   9  18
TORSDOF 2
ENDMDL
MODEL 5
REMARK VINA RESULT: -3.783626390      2.089      3.597
REMARK  2 active torsions:
REMARK  status: ('A' for Active; 'I' for Inactive)
REMARK    1  A    between atoms: C5_5  and  O1_7 
REMARK    2  A    between atoms: C8_11  and  O2_13 
ROOT
HETATM    1  C1  UNL     1      24.209   1.534  25.445  1.00  0.00     0.011 C 
HETATM    2  C2  UNL     1      24.317   1.061  24.050  1.00  0.00     0.003 C 
HETATM    3  C3  UNL     1      24.348  -0.452  24.048  1.00  0.00     0.009 C 
HETATM    4  C4  UNL     1      23.014  -1.090  24.066  1.00  0.00     0.040 C 
HETATM    5  C5  UNL     1      22.028  -0.537  23.069  1.00  0.00     0.076 C 
HETATM    6  C6  UNL     1      20.695  -1.236  23.385  1.00  0.00     0.047 C 
HETATM    7  C7  UNL     1      21.940   0.933  23.253  1.00  0.00     0.098 C 
HETATM    8 BR1  UNL     1      21.232   1.379  24.960  1.00  0.00    -0.077 Br
HETATM    9  C8  UNL     1      21.165   1.663  22.193  1.00  0.00     0.089 C 
HETATM   10  C9  UNL     1      19.705   1.781  22.477  1.00  0.00     0.049 C 
HETATM   11  C10 UNL     1      21.752   3.076  22.274  1.00  0.00     0.095 C 
HETATM   12 BR2  UNL     1      21.970   3.847  20.526  1.00  0.00    -0.088 Br
HETATM   13  C11 UNL     1      23.033   2.982  23.040  1.00  0.00     0.042 C 
HETATM   14  C12 UNL     1      23.315   1.525  23.085  1.00  0.00     0.046 C 
HETATM   15 BR3  UNL     1      24.015   1.077  21.307  1.00  0.00    -0.083 Br
ENDROOT
BRANCH   5  16
HETATM   16  O1  UNL     1      22.334  -0.929  21.766  1.00  0.00    -0.388 OA
ATOM     17  H1  UNL     1      21.583  -0.852  21.188  1.00  0.00     0.210 HD
ENDBRANCH   5  16
BRANCH   9  18
HETATM   18  O2  UNL     1      21.387   1.214  20.918  1.00  0.00    -0.387 OA
ATOM     19  H2  UNL     1      21.239   1.864  20.241  1.00  0.00     0.210 HD
ENDBRANCH   9  18
TORSDOF 2
ENDMDL
