MODEL 1
REMARK VINA RESULT: -5.414756008      0.000      0.000
REMARK  4 active torsions:
REMARK  status: ('A' for Active; 'I' for Inactive)
REMARK    1  A    between atoms: C3_3  and  O1_4 
REMARK    2  A    between atoms: C4_6  and  C15_21 
REMARK    3  A    between atoms: C7_11  and  C8_13 
REMARK    4  A    between atoms: C9_15  and  C10_16 
ROOT
HETATM    1  C1  UNL     1      21.039   2.673  25.720  1.00  0.00     0.015 C 
HETATM    2  C2  UNL     1      21.379   1.857  24.896  1.00  0.00    -0.076 C 
HETATM    3  C3  UNL     1      21.752   0.877  23.927  1.00  0.00     0.158 C 
HETATM    4  C4  UNL     1      21.450   1.314  22.475  1.00  0.00     0.069 C 
HETATM    5 BR1  UNL     1      19.616   1.531  22.117  1.00  0.00    -0.081 Br
HETATM    6  C5  UNL     1      22.119   0.153  21.777  1.00  0.00     0.047 C 
HETATM    7  C6  UNL     1      23.309  -0.195  22.615  1.00  0.00     0.109 C 
HETATM    8 CL1  UNL     1      23.158  -1.813  23.383  1.00  0.00    -0.123 Cl
HETATM    9  C7  UNL     1      23.263   0.856  23.735  1.00  0.00     0.100 C 
HETATM   10 BR2  UNL     1      24.227   0.351  25.282  1.00  0.00    -0.077 Br
ENDROOT
BRANCH   3  11
HETATM   11  O1  UNL     1      21.217  -0.382  24.165  1.00  0.00    -0.374 OA
ATOM     12  H1  UNL     1      20.359  -0.364  24.571  1.00  0.00     0.212 HD
ENDBRANCH   3  11
BRANCH   4  13
HETATM   13  C15 UNL     1      22.270   2.585  22.465  1.00  0.00     0.035 A 
HETATM   14  C8  UNL     1      22.828   2.665  21.060  1.00  0.00     0.069 A 
HETATM   15 CL2  UNL     1      24.561   2.943  20.898  1.00  0.00    -0.116 Cl
HETATM   16  C9  UNL     1      22.028   3.895  20.864  1.00  0.00     0.019 A 
HETATM   17  C14 UNL     1      21.498   3.855  22.282  1.00  0.00     0.015 A 
BRANCH  16  18
HETATM   18  C10 UNL     1      22.810   5.180  20.634  1.00  0.00    -0.046 C 
HETATM   19  C11 UNL     1      23.522   5.708  21.820  1.00  0.00     0.015 C 
HETATM   20  C12 UNL     1      23.724   5.038  19.434  1.00  0.00     0.015 C 
HETATM   21  C13 UNL     1      21.752   6.220  20.235  1.00  0.00     0.015 C 
ENDBRANCH  16  18
ENDBRANCH   4  13
TORSDOF 4
ENDMDL
MODEL 2
REMARK VINA RESULT: -4.855240732      1.808      2.143
REMARK  4 active torsions:
REMARK  status: ('A' for Active; 'I' for Inactive)
REMARK    1  A    between atoms: C3_3  and  O1_4 
REMARK    2  A    between atoms: C4_6  and  C15_21 
REMARK    3  A    between atoms: C7_11  and  C8_13 
REMARK    4  A    between atoms: C9_15  and  C10_16 
ROOT
HETATM    1  C1  UNL     1      24.197   1.928  25.453  1.00  0.00     0.015 C 
HETATM    2  C2  UNL     1      23.292   1.389  24.861  1.00  0.00    -0.076 C 
HETATM    3  C3  UNL     1      22.201   0.761  24.184  1.00  0.00     0.158 C 
HETATM    4  C4  UNL     1      21.582   1.649  23.081  1.00  0.00     0.069 C 
HETATM    5 BR1  UNL     1      20.777   3.218  23.735  1.00  0.00    -0.081 Br
HETATM    6  C5  UNL     1      20.635   0.618  22.509  1.00  0.00     0.047 C 
HETATM    7  C6  UNL     1      21.346  -0.694  22.622  1.00  0.00     0.109 C 
HETATM    8 CL1  UNL     1      20.546  -1.809  23.783  1.00  0.00    -0.123 Cl
HETATM    9  C7  UNL     1      22.707  -0.301  23.217  1.00  0.00     0.100 C 
HETATM   10 BR2  UNL     1      23.604  -1.739  24.055  1.00  0.00    -0.077 Br
ENDROOT
BRANCH   3  11
HETATM   11  O1  UNL     1      21.207   0.295  25.033  1.00  0.00    -0.374 OA
ATOM     12  H1  UNL     1      20.426   0.834  25.043  1.00  0.00     0.212 HD
ENDBRANCH   3  11
BRANCH   4  13
HETATM   13  C15 UNL     1      22.831   1.852  22.252  1.00  0.00     0.035 A 
HETATM   14  C8  UNL     1      22.365   1.698  20.820  1.00  0.00     0.069 A 
HETATM   15 CL2  UNL     1      23.284   0.601  19.790  1.00  0.00    -0.116 Cl
HETATM   16  C9  UNL     1      22.715   3.119  20.602  1.00  0.00     0.019 A 
HETATM   17  C14 UNL     1      23.229   3.278  22.018  1.00  0.00     0.015 A 
BRANCH  16  18
HETATM   18  C10 UNL     1      23.833   3.395  19.607  1.00  0.00    -0.046 C 
HETATM   19  C11 UNL     1      25.196   3.060  20.078  1.00  0.00     0.015 C 
HETATM   20  C12 UNL     1      23.519   2.762  18.267  1.00  0.00     0.015 C 
HETATM   21  C13 UNL     1      23.790   4.913  19.375  1.00  0.00     0.015 C 
ENDBRANCH  16  18
ENDBRANCH   4  13
TORSDOF 4
ENDMDL
MODEL 3
REMARK VINA RESULT: -4.394469748      2.607      4.664
REMARK  4 active torsions:
REMARK  status: ('A' for Active; 'I' for Inactive)
REMARK    1  A    between atoms: C3_3  and  O1_4 
REMARK    2  A    between atoms: C4_6  and  C15_21 
REMARK    3  A    between atoms: C7_11  and  C8_13 
REMARK    4  A    between atoms: C9_15  and  C10_16 
ROOT
HETATM    1  C1  UNL     1      21.057  -1.736  23.502  1.00  0.00     0.015 C 
HETATM    2  C2  UNL     1      21.216  -0.544  23.379  1.00  0.00    -0.076 C 
HETATM    3  C3  UNL     1      21.411   0.866  23.265  1.00  0.00     0.158 C 
HETATM    4  C4  UNL     1      22.821   1.244  22.755  1.00  0.00     0.069 C 
HETATM    5 BR1  UNL     1      24.206   0.757  23.930  1.00  0.00    -0.081 Br
HETATM    6  C5  UNL     1      22.583   2.729  22.603  1.00  0.00     0.047 C 
HETATM    7  C6  UNL     1      21.159   2.871  22.165  1.00  0.00     0.109 C 
HETATM    8 CL1  UNL     1      20.135   3.670  23.407  1.00  0.00    -0.123 Cl
HETATM    9  C7  UNL     1      20.688   1.414  22.041  1.00  0.00     0.100 C 
HETATM   10 BR2  UNL     1      18.808   1.223  22.110  1.00  0.00    -0.077 Br
ENDROOT
BRANCH   3  11
HETATM   11  O1  UNL     1      21.122   1.569  24.426  1.00  0.00    -0.374 OA
ATOM     12  H1  UNL     1      20.447   1.168  24.960  1.00  0.00     0.212 HD
ENDBRANCH   3  11
BRANCH   4  13
HETATM   13  C15 UNL     1      22.778   0.485  21.447  1.00  0.00     0.035 A 
HETATM   14  C8  UNL     1      23.591   1.332  20.491  1.00  0.00     0.069 A 
HETATM   15 CL2  UNL     1      22.859   1.715  18.934  1.00  0.00    -0.116 Cl
HETATM   16  C9  UNL     1      24.566   0.221  20.409  1.00  0.00     0.019 A 
HETATM   17  C14 UNL     1      23.740  -0.657  21.327  1.00  0.00     0.015 A 
BRANCH  16  18
HETATM   18  C10 UNL     1      24.720  -0.444  19.050  1.00  0.00    -0.046 C 
HETATM   19  C11 UNL     1      23.457  -0.692  18.319  1.00  0.00     0.015 C 
HETATM   20  C12 UNL     1      25.732   0.301  18.206  1.00  0.00     0.015 C 
HETATM   21  C13 UNL     1      25.351  -1.813  19.349  1.00  0.00     0.015 C 
ENDBRANCH  16  18
ENDBRANCH   4  13
TORSDOF 4
ENDMDL
MODEL 4
REMARK VINA RESULT: -4.383395514      2.648      5.552
REMARK  4 active torsions:
REMARK  status: ('A' for Active; 'I' for Inactive)
REMARK    1  A    between atoms: C3_3  and  O1_4 
REMARK    2  A    between atoms: C4_6  and  C15_21 
REMARK    3  A    between atoms: C7_11  and  C8_13 
REMARK    4  A    between atoms: C9_15  and  C10_16 
ROOT
HETATM    1  C1  UNL     1      23.073  -0.078  20.047  1.00  0.00     0.015 C 
HETATM    2  C2  UNL     1      22.718   0.974  20.527  1.00  0.00    -0.076 C 
HETATM    3  C3  UNL     1      22.273   2.216  21.073  1.00  0.00     0.158 C 
HETATM    4  C4  UNL     1      21.435   2.046  22.361  1.00  0.00     0.069 C 
HETATM    5 BR1  UNL     1      19.809   1.139  22.092  1.00  0.00    -0.081 Br
HETATM    6  C5  UNL     1      21.316   3.511  22.713  1.00  0.00     0.047 C 
HETATM    7  C6  UNL     1      22.610   4.137  22.294  1.00  0.00     0.109 C 
HETATM    8 CL1  UNL     1      22.404   5.294  20.934  1.00  0.00    -0.123 Cl
HETATM    9  C7  UNL     1      23.418   2.941  21.768  1.00  0.00     0.100 C 
HETATM   10 BR2  UNL     1      24.828   3.437  20.610  1.00  0.00    -0.077 Br
ENDROOT
BRANCH   3  11
HETATM   11  O1  UNL     1      21.593   3.017  20.167  1.00  0.00    -0.374 OA
ATOM     12  H1  UNL     1      21.139   3.750  20.566  1.00  0.00     0.212 HD
ENDBRANCH   3  11
BRANCH   4  13
HETATM   13  C15 UNL     1      22.466   1.306  23.184  1.00  0.00     0.035 A 
HETATM   14  C8  UNL     1      22.179   1.716  24.612  1.00  0.00     0.069 A 
HETATM   15 CL2  UNL     1      23.542   2.285  25.575  1.00  0.00    -0.116 Cl
HETATM   16  C9  UNL     1      21.822   0.309  24.896  1.00  0.00     0.019 A 
HETATM   17  C14 UNL     1      22.150  -0.128  23.484  1.00  0.00     0.015 A 
BRANCH  16  18
HETATM   18  C10 UNL     1      22.709  -0.426  25.890  1.00  0.00    -0.046 C 
HETATM   19  C11 UNL     1      24.109  -0.635  25.454  1.00  0.00     0.015 C 
HETATM   20  C12 UNL     1      22.626   0.222  27.256  1.00  0.00     0.015 C 
HETATM   21  C13 UNL     1      22.066  -1.813  26.043  1.00  0.00     0.015 C 
ENDBRANCH  16  18
ENDBRANCH   4  13
TORSDOF 4
ENDMDL
MODEL 5
REMARK VINA RESULT: -4.335882672      3.221      5.119
REMARK  4 active torsions:
REMARK  status: ('A' for Active; 'I' for Inactive)
REMARK    1  A    between atoms: C3_3  and  O1_4 
REMARK    2  A    between atoms: C4_6  and  C15_21 
REMARK    3  A    between atoms: C7_11  and  C8_13 
REMARK    4  A    between atoms: C9_15  and  C10_16 
ROOT
HETATM    1  C1  UNL     1      22.877   0.750  17.553  1.00  0.00     0.015 C 
HETATM    2  C2  UNL     1      23.322   1.257  18.556  1.00  0.00    -0.076 C 
HETATM    3  C3  UNL     1      23.870   1.834  19.742  1.00  0.00     0.158 C 
HETATM    4  C4  UNL     1      24.876   2.972  19.454  1.00  0.00     0.069 C 
HETATM    5 BR1  UNL     1      26.425   2.402  18.552  1.00  0.00    -0.081 Br
HETATM    6  C5  UNL     1      25.079   3.420  20.883  1.00  0.00     0.047 C 
HETATM    7  C6  UNL     1      23.755   3.242  21.558  1.00  0.00     0.109 C 
HETATM    8 CL1  UNL     1      23.796   1.964  22.822  1.00  0.00    -0.123 Cl
HETATM    9  C7  UNL     1      22.851   2.741  20.421  1.00  0.00     0.100 C 
HETATM   10 BR2  UNL     1      21.305   1.839  21.030  1.00  0.00    -0.077 Br
ENDROOT
BRANCH   3  11
HETATM   11  O1  UNL     1      24.435   0.908  20.608  1.00  0.00    -0.374 OA
ATOM     12  H1  UNL     1      25.323   0.660  20.379  1.00  0.00     0.212 HD
ENDBRANCH   3  11
BRANCH   4  13
HETATM   13  C15 UNL     1      23.953   3.870  18.661  1.00  0.00     0.035 A 
HETATM   14  C8  UNL     1      24.222   5.260  19.196  1.00  0.00     0.069 A 
HETATM   15 CL2  UNL     1      22.824   6.222  19.673  1.00  0.00    -0.116 Cl
HETATM   16  C9  UNL     1      24.742   5.624  17.859  1.00  0.00     0.019 A 
HETATM   17  C14 UNL     1      24.435   4.253  17.295  1.00  0.00     0.015 A 
BRANCH  16  18
HETATM   18  C10 UNL     1      23.965   6.688  17.099  1.00  0.00    -0.046 C 
HETATM   19  C11 UNL     1      23.822   6.450  15.645  1.00  0.00     0.015 C 
HETATM   20  C12 UNL     1      22.632   6.952  17.769  1.00  0.00     0.015 C 
HETATM   21  C13 UNL     1      24.784   7.976  17.274  1.00  0.00     0.015 C 
ENDBRANCH  16  18
ENDBRANCH   4  13
TORSDOF 4
ENDMDL
