MODEL 1
REMARK VINA RESULT: -6.286684426      0.000      0.000
REMARK  6 active torsions:
REMARK  status: ('A' for Active; 'I' for Inactive)
REMARK    1  A    between atoms: C10_14  and  N3_15 
REMARK    2  A    between atoms: N3_15  and  C11_16 
REMARK    3  A    between atoms: N3_15  and  C13_22 
REMARK    4  A    between atoms: C11_16  and  C12_17 
REMARK    5  A    between atoms: C12_17  and  N4_18 
REMARK    6  A    between atoms: C15_27  and  N7_28 
ROOT
HETATM    1  N3  UNL     1       2.544  -9.731   8.803  1.00  0.00    -0.338 N 
ENDROOT
BRANCH   1   2
HETATM    2  C10 UNL     1       2.605 -10.221  10.127  1.00  0.00     0.043 A 
HETATM    3  C2  UNL     1       1.549 -10.652  10.851  1.00  0.00    -0.033 A 
HETATM    4  C1  UNL     1       0.154 -10.609  10.361  1.00  0.00     0.050 C 
HETATM    5  C3  UNL     1       1.705 -11.180  12.149  1.00  0.00     0.040 A 
HETATM    6  C4  UNL     1       2.967 -11.252  12.687  1.00  0.00     0.060 A 
HETATM    7  N1  UNL     1       3.180 -11.752  13.937  1.00  0.00    -0.359 N 
HETATM    8  C8  UNL     1       4.053 -10.818  11.964  1.00  0.00     0.066 A 
HETATM    9  C5  UNL     1       4.432 -11.806  14.426  1.00  0.00     0.163 A 
ATOM     10  H1  UNL     1       2.395 -12.083  14.498  1.00  0.00     0.165 HD
HETATM   11  C6  UNL     1       5.508 -11.361  13.676  1.00  0.00     0.263 A 
HETATM   12  O1  UNL     1       6.658 -11.433  14.179  1.00  0.00    -0.267 OA
HETATM   13  N2  UNL     1       5.333 -10.864  12.441  1.00  0.00    -0.316 N 
HETATM   14  C7  UNL     1       6.441 -10.388  11.628  1.00  0.00     0.160 C 
HETATM   15  C9  UNL     1       3.900 -10.312  10.714  1.00  0.00     0.062 A 
ENDBRANCH   1   2
BRANCH   1  16
HETATM   16  C11 UNL     1       2.000  -8.383   8.551  1.00  0.00     0.157 C 
BRANCH  16  17
HETATM   17  C12 UNL     1       2.604  -7.278   9.307  1.00  0.00     0.249 C 
BRANCH  17  18
HETATM   18  N4  UNL     1       3.920  -6.891   8.909  1.00  0.00    -0.078 N 
ATOM     19  H43 UNL     1       4.603  -7.255   9.572  1.00  0.00     0.274 HD
ATOM     20  H42 UNL     1       4.191  -7.399   8.067  1.00  0.00     0.274 HD
ATOM     21  H41 UNL     1       4.070  -5.891   8.771  1.00  0.00     0.274 HD
ENDBRANCH  17  18
ENDBRANCH  16  17
ENDBRANCH   1  16
BRANCH   1  22
HETATM   22  C13 UNL     1       3.174 -10.321   7.698  1.00  0.00     0.146 A 
HETATM   23  C14 UNL     1       4.433 -10.113   7.202  1.00  0.00     0.164 A 
HETATM   24  N5  UNL     1       5.370  -9.280   7.837  1.00  0.00    -0.080 NA
HETATM   25  N6  UNL     1       4.897 -10.735   6.080  1.00  0.00    -0.177 N 
HETATM   26  C15 UNL     1       4.117 -11.591   5.414  1.00  0.00     0.680 A 
ATOM     27  H6  UNL     1       5.843 -10.547   5.749  1.00  0.00     0.185 HD
HETATM   28  N8  UNL     1       2.874 -11.812   5.884  1.00  0.00    -0.154 N 
HETATM   29  C16 UNL     1       2.374 -11.236   6.966  1.00  0.00     0.290 A 
ATOM     30  H8  UNL     1       2.280 -12.466   5.374  1.00  0.00     0.187 HD
HETATM   31  O2  UNL     1       1.189 -11.495   7.350  1.00  0.00    -0.265 OA
BRANCH  26  32
HETATM   32  N7  UNL     1       4.521 -12.198   4.348  1.00  0.00    -0.234 N 
ATOM     33  H72 UNL     1       3.891 -12.306   3.553  1.00  0.00     0.174 HD
ATOM     34  H71 UNL     1       5.463 -12.581   4.269  1.00  0.00     0.174 HD
ENDBRANCH  26  32
ENDBRANCH   1  22
TORSDOF 6
ENDMDL
MODEL 2
REMARK VINA RESULT: -6.271102093      2.490      5.887
REMARK  6 active torsions:
REMARK  status: ('A' for Active; 'I' for Inactive)
REMARK    1  A    between atoms: C10_14  and  N3_15 
REMARK    2  A    between atoms: N3_15  and  C11_16 
REMARK    3  A    between atoms: N3_15  and  C13_22 
REMARK    4  A    between atoms: C11_16  and  C12_17 
REMARK    5  A    between atoms: C12_17  and  N4_18 
REMARK    6  A    between atoms: C15_27  and  N7_28 
ROOT
HETATM    1  N3  UNL     1       2.771  -9.825   9.414  1.00  0.00    -0.338 N 
ENDROOT
BRANCH   1   2
HETATM    2  C10 UNL     1       2.916 -10.763   8.368  1.00  0.00     0.043 A 
HETATM    3  C2  UNL     1       2.183 -10.788   7.233  1.00  0.00    -0.033 A 
HETATM    4  C1  UNL     1       1.071  -9.853   6.961  1.00  0.00     0.050 C 
HETATM    5  C3  UNL     1       2.430 -11.728   6.212  1.00  0.00     0.040 A 
HETATM    6  C4  UNL     1       3.442 -12.641   6.382  1.00  0.00     0.060 A 
HETATM    7  N1  UNL     1       3.727 -13.574   5.429  1.00  0.00    -0.359 N 
HETATM    8  C8  UNL     1       4.198 -12.629   7.530  1.00  0.00     0.066 A 
HETATM    9  C5  UNL     1       4.727 -14.449   5.635  1.00  0.00     0.163 A 
ATOM     10  H1  UNL     1       3.185 -13.607   4.566  1.00  0.00     0.165 HD
HETATM   11  C6  UNL     1       5.472 -14.415   6.803  1.00  0.00     0.263 A 
HETATM   12  O1  UNL     1       6.397 -15.256   6.947  1.00  0.00    -0.267 OA
HETATM   13  N2  UNL     1       5.218 -13.509   7.761  1.00  0.00    -0.316 N 
HETATM   14  C7  UNL     1       5.982 -13.447   8.997  1.00  0.00     0.160 C 
HETATM   15  C9  UNL     1       3.959 -11.723   8.512  1.00  0.00     0.062 A 
ENDBRANCH   1   2
BRANCH   1  16
HETATM   16  C11 UNL     1       2.816  -8.383   9.111  1.00  0.00     0.157 C 
BRANCH  16  17
HETATM   17  C12 UNL     1       4.021  -7.891   8.429  1.00  0.00     0.249 C 
BRANCH  17  18
HETATM   18  N4  UNL     1       5.240  -7.978   9.170  1.00  0.00    -0.078 N 
ATOM     19  H43 UNL     1       5.034  -8.104  10.161  1.00  0.00     0.274 HD
ATOM     20  H42 UNL     1       5.707  -8.861   8.965  1.00  0.00     0.274 HD
ATOM     21  H41 UNL     1       5.894  -7.205   9.049  1.00  0.00     0.274 HD
ENDBRANCH  17  18
ENDBRANCH  16  17
ENDBRANCH   1  16
BRANCH   1  22
HETATM   22  C13 UNL     1       2.351 -10.133  10.716  1.00  0.00     0.146 A 
HETATM   23  C14 UNL     1       1.107 -10.484  11.167  1.00  0.00     0.164 A 
HETATM   24  N5  UNL     1       0.016 -10.687  10.305  1.00  0.00    -0.080 NA
HETATM   25  N6  UNL     1       0.836 -10.715  12.485  1.00  0.00    -0.177 N 
HETATM   26  C15 UNL     1       1.804 -10.604  13.399  1.00  0.00     0.680 A 
ATOM     27  H6  UNL     1      -0.107 -10.973  12.773  1.00  0.00     0.185 HD
HETATM   28  N8  UNL     1       3.037 -10.260  12.978  1.00  0.00    -0.154 N 
HETATM   29  C16 UNL     1       3.353 -10.026  11.714  1.00  0.00     0.290 A 
ATOM     30  H8  UNL     1       3.775 -10.176  13.678  1.00  0.00     0.187 HD
HETATM   31  O2  UNL     1       4.541  -9.705  11.392  1.00  0.00    -0.265 OA
BRANCH  26  32
HETATM   32  N7  UNL     1       1.587 -10.814  14.655  1.00  0.00    -0.234 N 
ATOM     33  H72 UNL     1       1.315 -10.040  15.262  1.00  0.00     0.174 HD
ATOM     34  H71 UNL     1       1.676 -11.740  15.072  1.00  0.00     0.174 HD
ENDBRANCH  26  32
ENDBRANCH   1  22
TORSDOF 6
ENDMDL
MODEL 3
REMARK VINA RESULT: -6.256296468      2.396      5.542
REMARK  6 active torsions:
REMARK  status: ('A' for Active; 'I' for Inactive)
REMARK    1  A    between atoms: C10_14  and  N3_15 
REMARK    2  A    between atoms: N3_15  and  C11_16 
REMARK    3  A    between atoms: N3_15  and  C13_22 
REMARK    4  A    between atoms: C11_16  and  C12_17 
REMARK    5  A    between atoms: C12_17  and  N4_18 
REMARK    6  A    between atoms: C15_27  and  N7_28 
ROOT
HETATM    1  N3  UNL     1       2.552  -9.716   9.451  1.00  0.00    -0.338 N 
ENDROOT
BRANCH   1   2
HETATM    2  C10 UNL     1       2.788 -10.689   8.455  1.00  0.00     0.043 A 
HETATM    3  C2  UNL     1       2.124 -10.785   7.282  1.00  0.00    -0.033 A 
HETATM    4  C1  UNL     1       0.998  -9.901   6.910  1.00  0.00     0.050 C 
HETATM    5  C3  UNL     1       2.461 -11.755   6.316  1.00  0.00     0.040 A 
HETATM    6  C4  UNL     1       3.491 -12.624   6.581  1.00  0.00     0.060 A 
HETATM    7  N1  UNL     1       3.862 -13.583   5.686  1.00  0.00    -0.359 N 
HETATM    8  C8  UNL     1       4.179 -12.540   7.769  1.00  0.00     0.066 A 
HETATM    9  C5  UNL     1       4.877 -14.413   5.984  1.00  0.00     0.163 A 
ATOM     10  H1  UNL     1       3.372 -13.670   4.795  1.00  0.00     0.165 HD
HETATM   11  C6  UNL     1       5.551 -14.307   7.189  1.00  0.00     0.263 A 
HETATM   12  O1  UNL     1       6.494 -15.107   7.420  1.00  0.00    -0.267 OA
HETATM   13  N2  UNL     1       5.212 -13.373   8.093  1.00  0.00    -0.316 N 
HETATM   14  C7  UNL     1       5.900 -13.235   9.367  1.00  0.00     0.160 C 
HETATM   15  C9  UNL     1       3.853 -11.605   8.697  1.00  0.00     0.062 A 
ENDBRANCH   1   2
BRANCH   1  16
HETATM   16  C11 UNL     1       2.235  -8.331   9.057  1.00  0.00     0.157 C 
BRANCH  16  17
HETATM   17  C12 UNL     1       3.352  -7.378   9.046  1.00  0.00     0.249 C 
BRANCH  17  18
HETATM   18  N4  UNL     1       4.234  -7.457   7.925  1.00  0.00    -0.078 N 
ATOM     19  H43 UNL     1       4.827  -6.628   7.892  1.00  0.00     0.274 HD
ATOM     20  H42 UNL     1       4.936  -8.179   8.087  1.00  0.00     0.274 HD
ATOM     21  H41 UNL     1       3.792  -7.603   7.017  1.00  0.00     0.274 HD
ENDBRANCH  17  18
ENDBRANCH  16  17
ENDBRANCH   1  16
BRANCH   1  22
HETATM   22  C13 UNL     1       2.360  -9.992  10.813  1.00  0.00     0.146 A 
HETATM   23  C14 UNL     1       3.214  -9.804  11.866  1.00  0.00     0.164 A 
HETATM   24  N5  UNL     1       4.463  -9.175  11.727  1.00  0.00    -0.080 NA
HETATM   25  N6  UNL     1       2.902 -10.165  13.145  1.00  0.00    -0.177 N 
HETATM   26  C15 UNL     1       1.720 -10.727  13.415  1.00  0.00     0.680 A 
ATOM     27  H6  UNL     1       3.572 -10.005  13.896  1.00  0.00     0.185 HD
HETATM   28  N8  UNL     1       0.863 -10.921  12.394  1.00  0.00    -0.154 N 
HETATM   29  C16 UNL     1       1.115 -10.590  11.137  1.00  0.00     0.290 A 
ATOM     30  H8  UNL     1      -0.039 -11.351  12.602  1.00  0.00     0.187 HD
HETATM   31  O2  UNL     1       0.255 -10.805  10.225  1.00  0.00    -0.265 OA
BRANCH  26  32
HETATM   32  N7  UNL     1       1.389 -11.082  14.612  1.00  0.00    -0.234 N 
ATOM     33  H72 UNL     1       1.805 -11.915  15.030  1.00  0.00     0.174 HD
ATOM     34  H71 UNL     1       0.716 -10.553  15.166  1.00  0.00     0.174 HD
ENDBRANCH  26  32
ENDBRANCH   1  22
TORSDOF 6
ENDMDL
MODEL 4
REMARK VINA RESULT: -6.184364750      2.213      6.366
REMARK  6 active torsions:
REMARK  status: ('A' for Active; 'I' for Inactive)
REMARK    1  A    between atoms: C10_14  and  N3_15 
REMARK    2  A    between atoms: N3_15  and  C11_16 
REMARK    3  A    between atoms: N3_15  and  C13_22 
REMARK    4  A    between atoms: C11_16  and  C12_17 
REMARK    5  A    between atoms: C12_17  and  N4_18 
REMARK    6  A    between atoms: C15_27  and  N7_28 
ROOT
HETATM    1  N3  UNL     1       4.794 -11.071  13.136  1.00  0.00    -0.338 N 
ENDROOT
BRANCH   1   2
HETATM    2  C10 UNL     1       3.666 -10.965  12.291  1.00  0.00     0.043 A 
HETATM    3  C2  UNL     1       2.379 -11.045  12.692  1.00  0.00    -0.033 A 
HETATM    4  C1  UNL     1       1.976 -11.319  14.088  1.00  0.00     0.050 C 
HETATM    5  C3  UNL     1       1.309 -10.874  11.789  1.00  0.00     0.040 A 
HETATM    6  C4  UNL     1       1.591 -10.622  10.468  1.00  0.00     0.060 A 
HETATM    7  N1  UNL     1       0.599 -10.448   9.550  1.00  0.00    -0.359 N 
HETATM    8  C8  UNL     1       2.896 -10.537  10.044  1.00  0.00     0.066 A 
HETATM    9  C5  UNL     1       0.919 -10.202   8.267  1.00  0.00     0.163 A 
ATOM     10  H1  UNL     1      -0.379 -10.504   9.834  1.00  0.00     0.165 HD
HETATM   11  C6  UNL     1       2.242 -10.122   7.866  1.00  0.00     0.263 A 
HETATM   12  O1  UNL     1       2.488  -9.890   6.654  1.00  0.00    -0.267 OA
HETATM   13  N2  UNL     1       3.243 -10.288   8.746  1.00  0.00    -0.316 N 
HETATM   14  C7  UNL     1       4.643 -10.211   8.357  1.00  0.00     0.160 C 
HETATM   15  C9  UNL     1       3.924 -10.701  10.915  1.00  0.00     0.062 A 
ENDBRANCH   1   2
BRANCH   1  16
HETATM   16  C11 UNL     1       5.202  -9.913  13.953  1.00  0.00     0.157 C 
BRANCH  16  17
HETATM   17  C12 UNL     1       6.484  -9.283  13.607  1.00  0.00     0.249 C 
BRANCH  17  18
HETATM   18  N4  UNL     1       6.564  -8.698  12.306  1.00  0.00    -0.078 N 
ATOM     19  H43 UNL     1       6.654  -9.430  11.602  1.00  0.00     0.274 HD
ATOM     20  H42 UNL     1       5.659  -8.304  12.047  1.00  0.00     0.274 HD
ATOM     21  H41 UNL     1       7.295  -7.999  12.173  1.00  0.00     0.274 HD
ENDBRANCH  17  18
ENDBRANCH  16  17
ENDBRANCH   1  16
BRANCH   1  22
HETATM   22  C13 UNL     1       5.447 -12.269  13.457  1.00  0.00     0.146 A 
HETATM   23  C14 UNL     1       6.190 -13.095  12.657  1.00  0.00     0.164 A 
HETATM   24  N5  UNL     1       6.497 -12.782  11.322  1.00  0.00    -0.080 NA
HETATM   25  N6  UNL     1       6.734 -14.264  13.104  1.00  0.00    -0.177 N 
HETATM   26  C15 UNL     1       6.555 -14.648  14.371  1.00  0.00     0.680 A 
ATOM     27  H6  UNL     1       7.279 -14.847  12.469  1.00  0.00     0.185 HD
HETATM   28  N8  UNL     1       5.828 -13.850  15.178  1.00  0.00    -0.154 N 
HETATM   29  C16 UNL     1       5.279 -12.708  14.796  1.00  0.00     0.290 A 
ATOM     30  H8  UNL     1       5.693 -14.144  16.145  1.00  0.00     0.187 HD
HETATM   31  O2  UNL     1       4.605 -12.007  15.616  1.00  0.00    -0.265 OA
BRANCH  26  32
HETATM   32  N7  UNL     1       7.054 -15.747  14.831  1.00  0.00    -0.234 N 
ATOM     33  H72 UNL     1       6.438 -16.519  15.086  1.00  0.00     0.174 HD
ATOM     34  H71 UNL     1       8.059 -15.876  14.949  1.00  0.00     0.174 HD
ENDBRANCH  26  32
ENDBRANCH   1  22
TORSDOF 6
ENDMDL
MODEL 5
REMARK VINA RESULT: -6.101486412      2.285      6.439
REMARK  6 active torsions:
REMARK  status: ('A' for Active; 'I' for Inactive)
REMARK    1  A    between atoms: C10_14  and  N3_15 
REMARK    2  A    between atoms: N3_15  and  C11_16 
REMARK    3  A    between atoms: N3_15  and  C13_22 
REMARK    4  A    between atoms: C11_16  and  C12_17 
REMARK    5  A    between atoms: C12_17  and  N4_18 
REMARK    6  A    between atoms: C15_27  and  N7_28 
ROOT
HETATM    1  N3  UNL     1       5.125 -11.187  12.929  1.00  0.00    -0.338 N 
ENDROOT
BRANCH   1   2
HETATM    2  C10 UNL     1       3.915 -11.056  12.212  1.00  0.00     0.043 A 
HETATM    3  C2  UNL     1       2.719 -10.731  12.749  1.00  0.00    -0.033 A 
HETATM    4  C1  UNL     1       2.505 -10.526  14.197  1.00  0.00     0.050 C 
HETATM    5  C3  UNL     1       1.568 -10.567  11.951  1.00  0.00     0.040 A 
HETATM    6  C4  UNL     1       1.672 -10.745  10.593  1.00  0.00     0.060 A 
HETATM    7  N1  UNL     1       0.594 -10.600   9.771  1.00  0.00    -0.359 N 
HETATM    8  C8  UNL     1       2.883 -11.075  10.030  1.00  0.00     0.066 A 
HETATM    9  C5  UNL     1       0.740 -10.782   8.447  1.00  0.00     0.163 A 
ATOM     10  H1  UNL     1      -0.317 -10.354  10.159  1.00  0.00     0.165 HD
HETATM   11  C6  UNL     1       1.971 -11.116   7.906  1.00  0.00     0.263 A 
HETATM   12  O1  UNL     1       2.054 -11.275   6.661  1.00  0.00    -0.267 OA
HETATM   13  N2  UNL     1       3.053 -11.265   8.687  1.00  0.00    -0.316 N 
HETATM   14  C7  UNL     1       4.359 -11.615   8.151  1.00  0.00     0.160 C 
HETATM   15  C9  UNL     1       3.989 -11.232  10.800  1.00  0.00     0.062 A 
ENDBRANCH   1   2
BRANCH   1  16
HETATM   16  C11 UNL     1       5.858  -9.978  13.349  1.00  0.00     0.157 C 
BRANCH  16  17
HETATM   17  C12 UNL     1       6.525  -9.212  12.288  1.00  0.00     0.249 C 
BRANCH  17  18
HETATM   18  N4  UNL     1       7.473  -9.931  11.497  1.00  0.00    -0.078 N 
ATOM     19  H43 UNL     1       7.439 -10.922  11.732  1.00  0.00     0.274 HD
ATOM     20  H42 UNL     1       7.162  -9.961  10.526  1.00  0.00     0.274 HD
ATOM     21  H41 UNL     1       8.436  -9.598  11.540  1.00  0.00     0.274 HD
ENDBRANCH  17  18
ENDBRANCH  16  17
ENDBRANCH   1  16
BRANCH   1  22
HETATM   22  C13 UNL     1       5.597 -12.380  13.496  1.00  0.00     0.146 A 
HETATM   23  C14 UNL     1       5.481 -12.837  14.781  1.00  0.00     0.164 A 
HETATM   24  N5  UNL     1       4.735 -12.161  15.762  1.00  0.00    -0.080 NA
HETATM   25  N6  UNL     1       6.036 -14.011  15.201  1.00  0.00    -0.177 N 
HETATM   26  C15 UNL     1       6.727 -14.771  14.347  1.00  0.00     0.680 A 
ATOM     27  H6  UNL     1       5.923 -14.309  16.170  1.00  0.00     0.185 HD
HETATM   28  N8  UNL     1       6.854 -14.342  13.076  1.00  0.00    -0.154 N 
HETATM   29  C16 UNL     1       6.337 -13.213  12.617  1.00  0.00     0.290 A 
ATOM     30  H8  UNL     1       7.383 -14.923  12.426  1.00  0.00     0.187 HD
HETATM   31  O2  UNL     1       6.499 -12.873  11.403  1.00  0.00    -0.265 OA
BRANCH  26  32
HETATM   32  N7  UNL     1       7.268 -15.887  14.708  1.00  0.00    -0.234 N 
ATOM     33  H72 UNL     1       6.692 -16.623  15.119  1.00  0.00     0.174 HD
ATOM     34  H71 UNL     1       8.265 -16.067  14.594  1.00  0.00     0.174 HD
ENDBRANCH  26  32
ENDBRANCH   1  22
TORSDOF 6
ENDMDL
