MODEL 1
REMARK VINA RESULT: -7.442734387      0.000      0.000
REMARK  4 active torsions:
REMARK  status: ('A' for Active; 'I' for Inactive)
REMARK    1  A    between atoms: C3_8  and  C4_9 
REMARK    2  A    between atoms: C7_12  and  N3_13 
REMARK    3  A    between atoms: N4_16  and  C10_17 
REMARK    4  A    between atoms: C10_17  and  C11_18 
ROOT
HETATM    1  C4  UNL     1       8.158 -14.844  14.402  1.00  0.00     0.025 A 
HETATM    2  C5  UNL     1       8.609 -13.635  13.924  1.00  0.00     0.020 A 
HETATM    3  C6  UNL     1       7.722 -12.620  13.549  1.00  0.00     0.049 A 
HETATM    4  C7  UNL     1       6.366 -12.830  13.660  1.00  0.00     0.103 A 
HETATM    5  N9  UNL     1       5.963 -14.024  14.131  1.00  0.00    -0.351 N 
ATOM      6  H9  UNL     1       4.960 -14.188  14.217  1.00  0.00     0.166 HD
HETATM    7  C15 UNL     1       6.795 -15.013  14.497  1.00  0.00     0.105 A 
ENDROOT
BRANCH   4   8
HETATM    8  N3  UNL     1       5.413 -11.858  13.304  1.00  0.00    -0.364 N 
HETATM    9  C8  UNL     1       4.401 -12.193  12.284  1.00  0.00     0.154 C 
HETATM   10  C9  UNL     1       4.673 -11.220  11.138  1.00  0.00     0.292 C 
HETATM   11  N4  UNL     1       4.564  -9.875  11.584  1.00  0.00     0.098 N 
HETATM   12  C13 UNL     1       5.451  -9.555  12.681  1.00  0.00     0.292 C 
HETATM   13  C14 UNL     1       5.302 -10.532  13.830  1.00  0.00     0.154 C 
BRANCH  11  14
HETATM   14  C10 UNL     1       3.238  -9.380  11.768  1.00  0.00     0.350 C 
BRANCH  14  15
HETATM   15  C11 UNL     1       2.799  -8.708  10.519  1.00  0.00     0.140 A 
HETATM   16  N5  UNL     1       3.122  -7.440  10.127  1.00  0.00    -0.273 N 
HETATM   17  N6  UNL     1       2.564  -7.158   8.979  1.00  0.00    -0.131 N 
ATOM     18  H5  UNL     1       3.717  -6.802  10.656  1.00  0.00     0.189 HD
HETATM   19  C12 UNL     1       1.857  -8.222   8.579  1.00  0.00     0.691 A 
ATOM     20  H6  UNL     1       2.652  -6.276   8.474  1.00  0.00     0.205 HD
HETATM   21  N7  UNL     1       1.167  -8.319   7.492  1.00  0.00    -0.233 N 
HETATM   22  N8  UNL     1       2.011  -9.157   9.527  1.00  0.00    -0.176 N 
ATOM     23  H72 UNL     1       1.051  -7.607   6.771  1.00  0.00     0.174 HD
ATOM     24  H71 UNL     1       0.628  -9.130   7.187  1.00  0.00     0.174 HD
ATOM     25  H8  UNL     1       1.587 -10.085   9.500  1.00  0.00     0.185 HD
ENDBRANCH  14  15
ENDBRANCH  11  14
ENDBRANCH   4   8
BRANCH   1  26
HETATM   26  C3  UNL     1       9.075 -15.906  14.794  1.00  0.00     0.131 A 
HETATM   27  N2  UNL     1      10.380 -15.684  15.030  1.00  0.00    -0.347 N 
HETATM   28  C2  UNL     1      11.217 -16.685  15.393  1.00  0.00     0.139 A 
ATOM     29  H2  UNL     1      10.748 -14.738  14.933  1.00  0.00     0.167 HD
HETATM   30  C1  UNL     1      10.748 -17.975  15.533  1.00  0.00     0.129 A 
HETATM   31  N1  UNL     1      11.514 -18.969  15.880  1.00  0.00    -0.383 N 
HETATM   32  N11 UNL     1       9.438 -18.166  15.290  1.00  0.00    -0.283 N 
ATOM     33  H12 UNL     1      12.507 -18.824  16.064  1.00  0.00     0.157 HD
ATOM     34  H11 UNL     1      11.167 -19.922  15.983  1.00  0.00     0.157 HD
HETATM   35  N10 UNL     1       8.629 -17.167  14.932  1.00  0.00    -0.283 N 
ATOM     36  H11 UNL     1       9.052 -19.106  15.383  1.00  0.00     0.188 HD
ATOM     37  H10 UNL     1       7.644 -17.366  14.758  1.00  0.00     0.188 HD
ENDBRANCH   1  26
TORSDOF 4
ENDMDL
MODEL 2
REMARK VINA RESULT: -7.331247697      0.795      1.235
REMARK  4 active torsions:
REMARK  status: ('A' for Active; 'I' for Inactive)
REMARK    1  A    between atoms: C3_8  and  C4_9 
REMARK    2  A    between atoms: C7_12  and  N3_13 
REMARK    3  A    between atoms: N4_16  and  C10_17 
REMARK    4  A    between atoms: C10_17  and  C11_18 
ROOT
HETATM    1  C4  UNL     1       8.073 -14.814  14.289  1.00  0.00     0.025 A 
HETATM    2  C5  UNL     1       6.781 -14.770  14.759  1.00  0.00     0.020 A 
HETATM    3  C6  UNL     1       5.902 -13.749  14.383  1.00  0.00     0.049 A 
HETATM    4  C7  UNL     1       6.334 -12.764  13.523  1.00  0.00     0.103 A 
HETATM    5  N9  UNL     1       7.603 -12.841  13.085  1.00  0.00    -0.351 N 
ATOM      6  H9  UNL     1       7.932 -12.116  12.448  1.00  0.00     0.166 HD
HETATM    7  C15 UNL     1       8.465 -13.811  13.432  1.00  0.00     0.105 A 
ENDROOT
BRANCH   4   8
HETATM    8  N3  UNL     1       5.508 -11.707  13.101  1.00  0.00    -0.364 N 
HETATM    9  C8  UNL     1       4.195 -11.526  13.750  1.00  0.00     0.154 C 
HETATM   10  C9  UNL     1       3.179 -11.732  12.627  1.00  0.00     0.292 C 
HETATM   11  N4  UNL     1       3.394 -10.799  11.577  1.00  0.00     0.098 N 
HETATM   12  C13 UNL     1       4.725 -10.860  11.012  1.00  0.00     0.292 C 
HETATM   13  C14 UNL     1       5.796 -10.749  12.078  1.00  0.00     0.154 C 
BRANCH  11  14
HETATM   14  C10 UNL     1       2.945  -9.467  11.818  1.00  0.00     0.350 C 
BRANCH  14  15
HETATM   15  C11 UNL     1       2.676  -8.807  10.516  1.00  0.00     0.140 A 
HETATM   16  N5  UNL     1       3.212  -7.629  10.081  1.00  0.00    -0.273 N 
HETATM   17  N6  UNL     1       2.760  -7.329   8.891  1.00  0.00    -0.131 N 
ATOM     18  H5  UNL     1       3.873  -7.061  10.611  1.00  0.00     0.189 HD
HETATM   19  C12 UNL     1       1.915  -8.293   8.504  1.00  0.00     0.691 A 
ATOM     20  H6  UNL     1       3.009  -6.502   8.349  1.00  0.00     0.205 HD
HETATM   21  N7  UNL     1       1.272  -8.344   7.387  1.00  0.00    -0.233 N 
HETATM   22  N8  UNL     1       1.876  -9.186   9.504  1.00  0.00    -0.176 N 
ATOM     23  H72 UNL     1       1.303  -7.665   6.626  1.00  0.00     0.174 HD
ATOM     24  H71 UNL     1       0.628  -9.079   7.092  1.00  0.00     0.174 HD
ATOM     25  H8  UNL     1       1.314 -10.037   9.498  1.00  0.00     0.185 HD
ENDBRANCH  14  15
ENDBRANCH  11  14
ENDBRANCH   4   8
BRANCH   1  26
HETATM   26  C3  UNL     1       8.995 -15.874  14.676  1.00  0.00     0.131 A 
HETATM   27  N2  UNL     1      10.297 -15.646  14.924  1.00  0.00    -0.347 N 
HETATM   28  C2  UNL     1      11.139 -16.645  15.282  1.00  0.00     0.139 A 
ATOM     29  H2  UNL     1      10.659 -14.696  14.840  1.00  0.00     0.167 HD
HETATM   30  C1  UNL     1      10.678 -17.940  15.404  1.00  0.00     0.129 A 
HETATM   31  N1  UNL     1      11.449 -18.932  15.746  1.00  0.00    -0.383 N 
HETATM   32  N11 UNL     1       9.371 -18.137  15.149  1.00  0.00    -0.283 N 
ATOM     33  H12 UNL     1      12.439 -18.781  15.939  1.00  0.00     0.157 HD
ATOM     34  H11 UNL     1      11.108 -19.889  15.835  1.00  0.00     0.157 HD
HETATM   35  N10 UNL     1       8.558 -17.140  14.796  1.00  0.00    -0.283 N 
ATOM     36  H11 UNL     1       8.991 -19.081  15.228  1.00  0.00     0.188 HD
ATOM     37  H10 UNL     1       7.575 -17.344  14.613  1.00  0.00     0.188 HD
ENDBRANCH   1  26
TORSDOF 4
ENDMDL
MODEL 3
REMARK VINA RESULT: -7.176848256      1.427     10.475
REMARK  4 active torsions:
REMARK  status: ('A' for Active; 'I' for Inactive)
REMARK    1  A    between atoms: C3_8  and  C4_9 
REMARK    2  A    between atoms: C7_12  and  N3_13 
REMARK    3  A    between atoms: N4_16  and  C10_17 
REMARK    4  A    between atoms: C10_17  and  C11_18 
ROOT
HETATM    1  C4  UNL     1       4.061 -10.522  10.533  1.00  0.00     0.025 A 
HETATM    2  C5  UNL     1       3.746 -11.199  11.688  1.00  0.00     0.020 A 
HETATM    3  C6  UNL     1       4.708 -11.927  12.395  1.00  0.00     0.049 A 
HETATM    4  C7  UNL     1       6.003 -11.971  11.928  1.00  0.00     0.103 A 
HETATM    5  N9  UNL     1       6.273 -11.297  10.796  1.00  0.00    -0.351 N 
ATOM      6  H9  UNL     1       7.230 -11.324  10.443  1.00  0.00     0.166 HD
HETATM    7  C15 UNL     1       5.366 -10.591  10.101  1.00  0.00     0.105 A 
ENDROOT
BRANCH   4   8
HETATM    8  N3  UNL     1       7.025 -12.681  12.584  1.00  0.00    -0.364 N 
HETATM    9  C8  UNL     1       7.911 -13.552  11.787  1.00  0.00     0.154 C 
HETATM   10  C9  UNL     1       7.657 -14.958  12.329  1.00  0.00     0.292 C 
HETATM   11  N4  UNL     1       7.948 -15.021  13.719  1.00  0.00     0.098 N 
HETATM   12  C13 UNL     1       7.190 -14.077  14.512  1.00  0.00     0.292 C 
HETATM   13  C14 UNL     1       7.321 -12.662  13.983  1.00  0.00     0.154 C 
BRANCH  11  14
HETATM   14  C10 UNL     1       9.329 -15.071  14.070  1.00  0.00     0.350 C 
BRANCH  14  15
HETATM   15  C11 UNL     1       9.561 -16.247  14.945  1.00  0.00     0.140 A 
HETATM   16  N5  UNL     1       8.772 -17.358  15.031  1.00  0.00    -0.273 N 
HETATM   17  N6  UNL     1       9.260 -18.202  15.902  1.00  0.00    -0.131 N 
ATOM     18  H5  UNL     1       7.921 -17.510  14.490  1.00  0.00     0.189 HD
HETATM   19  C12 UNL     1      10.378 -17.679  16.419  1.00  0.00     0.691 A 
ATOM     20  H6  UNL     1       8.856 -19.107  16.147  1.00  0.00     0.205 HD
HETATM   21  N7  UNL     1      11.137 -18.221  17.310  1.00  0.00    -0.233 N 
HETATM   22  N8  UNL     1      10.549 -16.489  15.825  1.00  0.00    -0.176 N 
ATOM     23  H72 UNL     1      11.007 -19.127  17.761  1.00  0.00     0.174 HD
ATOM     24  H71 UNL     1      11.989 -17.823  17.704  1.00  0.00     0.174 HD
ATOM     25  H8  UNL     1      11.323 -15.853  16.015  1.00  0.00     0.185 HD
ENDBRANCH  14  15
ENDBRANCH  11  14
ENDBRANCH   4   8
BRANCH   1  26
HETATM   26  C3  UNL     1       3.064  -9.761   9.791  1.00  0.00     0.131 A 
HETATM   27  N2  UNL     1       1.771 -10.123   9.738  1.00  0.00    -0.347 N 
HETATM   28  C2  UNL     1       0.858  -9.402   9.043  1.00  0.00     0.139 A 
ATOM     29  H2  UNL     1       1.469 -10.961  10.234  1.00  0.00     0.167 HD
HETATM   30  C1  UNL     1       1.237  -8.263   8.361  1.00  0.00     0.129 A 
HETATM   31  N1  UNL     1       0.396  -7.539   7.680  1.00  0.00    -0.383 N 
HETATM   32  N11 UNL     1       2.538  -7.926   8.433  1.00  0.00    -0.283 N 
ATOM     33  H12 UNL     1      -0.590  -7.795   7.626  1.00  0.00     0.157 HD
ATOM     34  H11 UNL     1       0.676  -6.697   7.177  1.00  0.00     0.157 HD
HETATM   35  N10 UNL     1       3.422  -8.650   9.123  1.00  0.00    -0.283 N 
ATOM     36  H11 UNL     1       2.858  -7.091   7.943  1.00  0.00     0.188 HD
ATOM     37  H10 UNL     1       4.397  -8.352   9.144  1.00  0.00     0.188 HD
ENDBRANCH   1  26
TORSDOF 4
ENDMDL
MODEL 4
REMARK VINA RESULT: -7.146279535      1.024      1.527
REMARK  4 active torsions:
REMARK  status: ('A' for Active; 'I' for Inactive)
REMARK    1  A    between atoms: C3_8  and  C4_9 
REMARK    2  A    between atoms: C7_12  and  N3_13 
REMARK    3  A    between atoms: N4_16  and  C10_17 
REMARK    4  A    between atoms: C10_17  and  C11_18 
ROOT
HETATM    1  C4  UNL     1       7.953 -15.190  14.213  1.00  0.00     0.025 A 
HETATM    2  C5  UNL     1       6.728 -15.114  14.833  1.00  0.00     0.020 A 
HETATM    3  C6  UNL     1       5.785 -14.146  14.471  1.00  0.00     0.049 A 
HETATM    4  C7  UNL     1       6.085 -13.248  13.472  1.00  0.00     0.103 A 
HETATM    5  N9  UNL     1       7.293 -13.353  12.890  1.00  0.00    -0.351 N 
ATOM      6  H9  UNL     1       7.525 -12.692  12.149  1.00  0.00     0.166 HD
HETATM    7  C15 UNL     1       8.214 -14.274  13.221  1.00  0.00     0.105 A 
ENDROOT
BRANCH   4   8
HETATM    8  N3  UNL     1       5.189 -12.247  13.053  1.00  0.00    -0.364 N 
HETATM    9  C8  UNL     1       4.902 -12.107  11.612  1.00  0.00     0.154 C 
HETATM   10  C9  UNL     1       5.406 -10.710  11.254  1.00  0.00     0.292 C 
HETATM   11  N4  UNL     1       4.746  -9.722  12.034  1.00  0.00     0.098 N 
HETATM   12  C13 UNL     1       4.896  -9.915  13.460  1.00  0.00     0.292 C 
HETATM   13  C14 UNL     1       4.495 -11.313  13.885  1.00  0.00     0.154 C 
BRANCH  11  14
HETATM   14  C10 UNL     1       3.411  -9.404  11.645  1.00  0.00     0.350 C 
BRANCH  14  15
HETATM   15  C11 UNL     1       3.451  -8.611  10.391  1.00  0.00     0.140 A 
HETATM   16  N5  UNL     1       2.521  -8.631   9.392  1.00  0.00    -0.273 N 
HETATM   17  N6  UNL     1       2.864  -7.818   8.427  1.00  0.00    -0.131 N 
ATOM     18  H5  UNL     1       1.675  -9.200   9.397  1.00  0.00     0.189 HD
HETATM   19  C12 UNL     1       4.026  -7.239   8.754  1.00  0.00     0.691 A 
ATOM     20  H6  UNL     1       2.336  -7.652   7.570  1.00  0.00     0.205 HD
HETATM   21  N7  UNL     1       4.678  -6.377   8.049  1.00  0.00    -0.233 N 
HETATM   22  N8  UNL     1       4.370  -7.732   9.953  1.00  0.00    -0.176 N 
ATOM     23  H72 UNL     1       4.416  -6.002   7.137  1.00  0.00     0.174 HD
ATOM     24  H71 UNL     1       5.563  -5.936   8.298  1.00  0.00     0.174 HD
ATOM     25  H8  UNL     1       5.215  -7.475  10.464  1.00  0.00     0.185 HD
ENDBRANCH  14  15
ENDBRANCH  11  14
ENDBRANCH   4   8
BRANCH   1  26
HETATM   26  C3  UNL     1       8.941 -16.195  14.585  1.00  0.00     0.131 A 
HETATM   27  N2  UNL     1      10.217 -15.884  14.872  1.00  0.00    -0.347 N 
HETATM   28  C2  UNL     1      11.121 -16.833  15.216  1.00  0.00     0.139 A 
ATOM     29  H2  UNL     1      10.512 -14.909  14.829  1.00  0.00     0.167 HD
HETATM   30  C1  UNL     1      10.751 -18.161  15.282  1.00  0.00     0.129 A 
HETATM   31  N1  UNL     1      11.584 -19.107  15.607  1.00  0.00    -0.383 N 
HETATM   32  N11 UNL     1       9.468 -18.442  14.989  1.00  0.00    -0.283 N 
ATOM     33  H12 UNL     1      12.557 -18.894  15.829  1.00  0.00     0.157 HD
ATOM     34  H11 UNL     1      11.311 -20.089  15.656  1.00  0.00     0.157 HD
HETATM   35  N10 UNL     1       8.593 -17.493  14.652  1.00  0.00    -0.283 N 
ATOM     36  H11 UNL     1       9.155 -19.412  15.027  1.00  0.00     0.188 HD
ATOM     37  H10 UNL     1       7.632 -17.759  14.439  1.00  0.00     0.188 HD
ENDBRANCH   1  26
TORSDOF 4
ENDMDL
MODEL 5
REMARK VINA RESULT: -7.093105397      1.508      2.085
REMARK  4 active torsions:
REMARK  status: ('A' for Active; 'I' for Inactive)
REMARK    1  A    between atoms: C3_8  and  C4_9 
REMARK    2  A    between atoms: C7_12  and  N3_13 
REMARK    3  A    between atoms: N4_16  and  C10_17 
REMARK    4  A    between atoms: C10_17  and  C11_18 
ROOT
HETATM    1  C4  UNL     1       7.732 -14.838  14.036  1.00  0.00     0.025 A 
HETATM    2  C5  UNL     1       6.787 -14.212  14.814  1.00  0.00     0.020 A 
HETATM    3  C6  UNL     1       5.877 -13.300  14.269  1.00  0.00     0.049 A 
HETATM    4  C7  UNL     1       5.924 -13.020  12.921  1.00  0.00     0.103 A 
HETATM    5  N9  UNL     1       6.862 -13.651  12.193  1.00  0.00    -0.351 N 
ATOM      6  H9  UNL     1       6.905 -13.449  11.194  1.00  0.00     0.166 HD
HETATM    7  C15 UNL     1       7.746 -14.529  12.694  1.00  0.00     0.105 A 
ENDROOT
BRANCH   4   8
HETATM    8  N3  UNL     1       5.043 -12.115  12.301  1.00  0.00    -0.364 N 
HETATM    9  C8  UNL     1       4.183 -11.266  13.147  1.00  0.00     0.154 C 
HETATM   10  C9  UNL     1       2.758 -11.687  12.791  1.00  0.00     0.292 C 
HETATM   11  N4  UNL     1       2.508 -11.496  11.405  1.00  0.00     0.098 N 
HETATM   12  C13 UNL     1       3.429 -12.211  10.547  1.00  0.00     0.292 C 
HETATM   13  C14 UNL     1       4.873 -11.911  10.895  1.00  0.00     0.154 C 
BRANCH  11  14
HETATM   14  C10 UNL     1       2.278 -10.151  10.988  1.00  0.00     0.350 C 
BRANCH  14  15
HETATM   15  C11 UNL     1       1.881 -10.153   9.558  1.00  0.00     0.140 A 
HETATM   16  N5  UNL     1       0.750 -10.711   9.034  1.00  0.00    -0.273 N 
HETATM   17  N6  UNL     1       0.710 -10.538   7.738  1.00  0.00    -0.131 N 
ATOM     18  H5  UNL     1       0.035 -11.195   9.577  1.00  0.00     0.189 HD
HETATM   19  C12 UNL     1       1.807  -9.866   7.366  1.00  0.00     0.691 A 
ATOM     20  H6  UNL     1      -0.031 -10.860   7.116  1.00  0.00     0.205 HD
HETATM   21  N7  UNL     1       2.117  -9.511   6.166  1.00  0.00    -0.233 N 
HETATM   22  N8  UNL     1       2.509  -9.638   8.486  1.00  0.00    -0.176 N 
ATOM     23  H72 UNL     1       1.583  -9.684   5.314  1.00  0.00     0.174 HD
ATOM     24  H71 UNL     1       2.953  -8.999   5.882  1.00  0.00     0.174 HD
ATOM     25  H8  UNL     1       3.399  -9.142   8.520  1.00  0.00     0.185 HD
ENDBRANCH  14  15
ENDBRANCH  11  14
ENDBRANCH   4   8
BRANCH   1  26
HETATM   26  C3  UNL     1       8.684 -15.788  14.597  1.00  0.00     0.131 A 
HETATM   27  N2  UNL     1       9.938 -15.443  14.934  1.00  0.00    -0.347 N 
HETATM   28  C2  UNL     1      10.808 -16.341  15.455  1.00  0.00     0.139 A 
ATOM     29  H2  UNL     1      10.242 -14.479  14.795  1.00  0.00     0.167 HD
HETATM   30  C1  UNL     1      10.425 -17.652  15.655  1.00  0.00     0.129 A 
HETATM   31  N1  UNL     1      11.226 -18.550  16.153  1.00  0.00    -0.383 N 
HETATM   32  N11 UNL     1       9.164 -17.968  15.308  1.00  0.00    -0.283 N 
ATOM     33  H12 UNL     1      12.182 -18.310  16.416  1.00  0.00     0.157 HD
ATOM     34  H11 UNL     1      10.943 -19.519  16.300  1.00  0.00     0.157 HD
HETATM   35  N10 UNL     1       8.322 -17.068  14.796  1.00  0.00    -0.283 N 
ATOM     36  H11 UNL     1       8.842 -18.927  15.441  1.00  0.00     0.188 HD
ATOM     37  H10 UNL     1       7.377 -17.360  14.548  1.00  0.00     0.188 HD
ENDBRANCH   1  26
TORSDOF 4
ENDMDL
