MODEL 1
REMARK VINA RESULT: -8.763341969      0.000      0.000
REMARK  0 active torsions:
REMARK  status: ('A' for Active; 'I' for Inactive)
ROOT
HETATM    1  C1  UNL     1      25.274  -2.259  20.767  1.00  0.00     0.153 C 
HETATM    2  N1  UNL     1      24.341  -1.142  21.071  1.00  0.00    -0.347 N 
HETATM    3  C2  UNL     1      24.255  -0.185  20.072  1.00  0.00     0.292 C 
HETATM    4  O1  UNL     1      24.488  -0.540  18.871  1.00  0.00    -0.267 OA
HETATM    5  C3  UNL     1      23.915   1.269  20.200  1.00  0.00     0.326 C 
HETATM    6  F1  UNL     1      22.593   1.279  20.061  1.00  0.00    -0.195 F 
HETATM    7  F2  UNL     1      24.681   1.716  21.177  1.00  0.00    -0.195 F 
HETATM    8  C4  UNL     1      24.311   2.092  19.049  1.00  0.00     0.129 C 
HETATM    9  C5  UNL     1      24.109   3.527  19.033  1.00  0.00    -0.040 A 
HETATM   10  C6  UNL     1      24.396   3.913  17.683  1.00  0.00     0.033 A 
HETATM   11  C7  UNL     1      24.377   5.203  17.246  1.00  0.00     0.056 A 
HETATM   12 CL1  UNL     1      24.730   5.624  15.558  1.00  0.00    -0.083 Cl
HETATM   13  C8  UNL     1      24.069   6.179  18.145  1.00  0.00     0.056 A 
HETATM   14 CL2  UNL     1      24.035   7.867  17.623  1.00  0.00    -0.083 Cl
HETATM   15  C9  UNL     1      23.796   5.830  19.424  1.00  0.00     0.037 A 
HETATM   16  C10 UNL     1      23.793   4.507  19.948  1.00  0.00    -0.028 A 
HETATM   17  C11 UNL     1      23.456   4.499  21.361  1.00  0.00     0.008 C 
HETATM   18  C12 UNL     1      22.448   4.218  22.159  1.00  0.00    -0.024 C 
HETATM   19  C13 UNL     1      21.076   3.742  21.961  1.00  0.00     0.047 C 
HETATM   20  C14 UNL     1      20.612   2.633  22.858  1.00  0.00     0.142 C 
HETATM   21  N2  UNL     1      21.267   2.534  24.123  1.00  0.00    -0.226 N 
ATOM     22  H2  UNL     1      21.094   3.348  24.712  1.00  0.00     0.177 HD
HETATM   23  C15 UNL     1      22.082   1.601  24.745  1.00  0.00     0.669 C 
HETATM   24  N3  UNL     1      23.048   2.140  25.490  1.00  0.00    -0.235 N 
ATOM     25  H31 UNL     1      23.647   1.454  25.948  1.00  0.00     0.174 HD
ATOM     26  H32 UNL     1      22.992   3.158  25.444  1.00  0.00     0.174 HD
HETATM   27  N4  UNL     1      22.160   0.197  24.809  1.00  0.00    -0.218 N 
HETATM   28  C16 UNL     1      22.842  -0.172  26.058  1.00  0.00     0.141 C 
HETATM   29  C17 UNL     1      24.215  -0.681  25.864  1.00  0.00     0.020 C 
HETATM   30  C18 UNL     1      24.462  -1.609  24.733  1.00  0.00     0.004 C 
HETATM   31  C19 UNL     1      24.718  -0.878  23.418  1.00  0.00     0.025 C 
HETATM   32  C20 UNL     1      23.719  -1.314  22.352  1.00  0.00     0.088 C 
HETATM   33  C21 UNL     1      22.443  -0.634  22.531  1.00  0.00     0.045 C 
HETATM   34  C22 UNL     1      21.676  -0.744  23.811  1.00  0.00     0.143 C 
ENDROOT
TORSDOF 0
ENDMDL
MODEL 2
REMARK VINA RESULT: -6.988616634      4.070      6.490
REMARK  0 active torsions:
REMARK  status: ('A' for Active; 'I' for Inactive)
ROOT
HETATM    1  C1  UNL     1      25.084   6.498  17.054  1.00  0.00     0.153 C 
HETATM    2  N1  UNL     1      24.228   5.608  17.881  1.00  0.00    -0.347 N 
HETATM    3  C2  UNL     1      23.354   6.279  18.721  1.00  0.00     0.292 C 
HETATM    4  O1  UNL     1      22.959   7.442  18.381  1.00  0.00    -0.267 OA
HETATM    5  C3  UNL     1      22.780   5.823  20.029  1.00  0.00     0.326 C 
HETATM    6  F1  UNL     1      21.658   5.210  19.662  1.00  0.00    -0.195 F 
HETATM    7  F2  UNL     1      23.813   5.384  20.723  1.00  0.00    -0.195 F 
HETATM    8  C4  UNL     1      22.235   6.901  20.866  1.00  0.00     0.129 C 
HETATM    9  C5  UNL     1      21.694   6.641  22.185  1.00  0.00    -0.040 A 
HETATM   10  C6  UNL     1      21.066   7.873  22.562  1.00  0.00     0.033 A 
HETATM   11  C7  UNL     1      20.471   8.078  23.771  1.00  0.00     0.056 A 
HETATM   12 CL1  UNL     1      19.698   9.623  24.182  1.00  0.00    -0.083 Cl
HETATM   13  C8  UNL     1      20.478   7.055  24.669  1.00  0.00     0.056 A 
HETATM   14 CL2  UNL     1      19.721   7.277  26.251  1.00  0.00    -0.083 Cl
HETATM   15  C9  UNL     1      21.067   5.885  24.328  1.00  0.00     0.037 A 
HETATM   16  C10 UNL     1      21.701   5.599  23.086  1.00  0.00    -0.028 A 
HETATM   17  C11 UNL     1      22.227   4.244  23.061  1.00  0.00     0.008 C 
HETATM   18  C12 UNL     1      21.951   3.062  22.554  1.00  0.00    -0.024 C 
HETATM   19  C13 UNL     1      20.883   2.526  21.706  1.00  0.00     0.047 C 
HETATM   20  C14 UNL     1      21.306   1.653  20.561  1.00  0.00     0.142 C 
HETATM   21  N2  UNL     1      22.555   0.978  20.716  1.00  0.00    -0.226 N 
ATOM     22  H2  UNL     1      22.536   0.303  21.481  1.00  0.00     0.177 HD
HETATM   23  C15 UNL     1      23.787   1.015  20.082  1.00  0.00     0.669 C 
HETATM   24  N3  UNL     1      24.823   0.868  20.908  1.00  0.00    -0.235 N 
ATOM     25  H31 UNL     1      25.729   0.895  20.441  1.00  0.00     0.174 HD
ATOM     26  H32 UNL     1      24.489   0.761  21.866  1.00  0.00     0.174 HD
HETATM   27  N4  UNL     1      24.248   1.163  18.760  1.00  0.00    -0.218 N 
HETATM   28  C16 UNL     1      25.579   0.546  18.664  1.00  0.00     0.141 C 
HETATM   29  C17 UNL     1      26.685   1.518  18.548  1.00  0.00     0.020 C 
HETATM   30  C18 UNL     1      26.489   2.695  17.665  1.00  0.00     0.004 C 
HETATM   31  C19 UNL     1      25.767   3.842  18.367  1.00  0.00     0.025 C 
HETATM   32  C20 UNL     1      24.498   4.225  17.613  1.00  0.00     0.088 C 
HETATM   33  C21 UNL     1      23.416   3.299  17.920  1.00  0.00     0.045 C 
HETATM   34  C22 UNL     1      23.555   1.830  17.670  1.00  0.00     0.143 C 
ENDROOT
TORSDOF 0
ENDMDL
MODEL 3
REMARK VINA RESULT: -6.937345316      1.128      1.399
REMARK  0 active torsions:
REMARK  status: ('A' for Active; 'I' for Inactive)
ROOT
HETATM    1  C1  UNL     1      25.830  -1.540  19.859  1.00  0.00     0.153 C 
HETATM    2  N1  UNL     1      24.688  -0.776  20.429  1.00  0.00    -0.347 N 
HETATM    3  C2  UNL     1      24.391   0.394  19.747  1.00  0.00     0.292 C 
HETATM    4  O1  UNL     1      24.676   0.463  18.507  1.00  0.00    -0.267 OA
HETATM    5  C3  UNL     1      23.757   1.646  20.275  1.00  0.00     0.326 C 
HETATM    6  F1  UNL     1      22.460   1.426  20.081  1.00  0.00    -0.195 F 
HETATM    7  F2  UNL     1      24.426   1.931  21.376  1.00  0.00    -0.195 F 
HETATM    8  C4  UNL     1      23.957   2.833  19.432  1.00  0.00     0.129 C 
HETATM    9  C5  UNL     1      23.460   4.137  19.823  1.00  0.00    -0.040 A 
HETATM   10  C6  UNL     1      23.641   4.952  18.658  1.00  0.00     0.033 A 
HETATM   11  C7  UNL     1      23.347   6.282  18.614  1.00  0.00     0.056 A 
HETATM   12 CL1  UNL     1      23.582   7.242  17.140  1.00  0.00    -0.083 Cl
HETATM   13  C8  UNL     1      22.856   6.866  19.741  1.00  0.00     0.056 A 
HETATM   14 CL2  UNL     1      22.463   8.589  19.731  1.00  0.00    -0.083 Cl
HETATM   15  C9  UNL     1      22.679   6.110  20.849  1.00  0.00     0.037 A 
HETATM   16  C10 UNL     1      22.959   4.719  20.967  1.00  0.00    -0.028 A 
HETATM   17  C11 UNL     1      22.650   4.229  22.299  1.00  0.00     0.008 C 
HETATM   18  C12 UNL     1      21.734   3.526  22.931  1.00  0.00    -0.024 C 
HETATM   19  C13 UNL     1      20.489   2.861  22.537  1.00  0.00     0.047 C 
HETATM   20  C14 UNL     1      20.278   1.467  23.051  1.00  0.00     0.142 C 
HETATM   21  N2  UNL     1      20.957   1.137  24.263  1.00  0.00    -0.226 N 
ATOM     22  H2  UNL     1      20.627   1.689  25.053  1.00  0.00     0.177 HD
HETATM   23  C15 UNL     1      21.957   0.248  24.627  1.00  0.00     0.669 C 
HETATM   24  N3  UNL     1      22.799   0.730  25.542  1.00  0.00    -0.235 N 
ATOM     25  H31 UNL     1      23.535   0.076  25.810  1.00  0.00     0.174 HD
ATOM     26  H32 UNL     1      22.532   1.682  25.790  1.00  0.00     0.174 HD
HETATM   27  N4  UNL     1      22.327  -1.066  24.285  1.00  0.00    -0.218 N 
HETATM   28  C16 UNL     1      23.088  -1.638  25.404  1.00  0.00     0.141 C 
HETATM   29  C17 UNL     1      24.534  -1.778  25.138  1.00  0.00     0.020 C 
HETATM   30  C18 UNL     1      24.954  -2.262  23.799  1.00  0.00     0.004 C 
HETATM   31  C19 UNL     1      25.034  -1.141  22.767  1.00  0.00     0.025 C 
HETATM   32  C20 UNL     1      24.133  -1.439  21.574  1.00  0.00     0.088 C 
HETATM   33  C21 UNL     1      22.746  -1.115  21.880  1.00  0.00     0.045 C 
HETATM   34  C22 UNL     1      22.036  -1.750  23.034  1.00  0.00     0.143 C 
ENDROOT
TORSDOF 0
ENDMDL
MODEL 4
REMARK VINA RESULT: -6.518678803      4.819      7.221
REMARK  0 active torsions:
REMARK  status: ('A' for Active; 'I' for Inactive)
ROOT
HETATM    1  C1  UNL     1      23.219   7.119  19.295  1.00  0.00     0.153 C 
HETATM    2  N1  UNL     1      22.522   6.155  20.187  1.00  0.00    -0.347 N 
HETATM    3  C2  UNL     1      21.706   6.748  21.137  1.00  0.00     0.292 C 
HETATM    4  O1  UNL     1      21.199   7.887  20.875  1.00  0.00    -0.267 OA
HETATM    5  C3  UNL     1      21.314   6.227  22.487  1.00  0.00     0.326 C 
HETATM    6  F1  UNL     1      20.200   5.546  22.230  1.00  0.00    -0.195 F 
HETATM    7  F2  UNL     1      22.445   5.846  23.050  1.00  0.00    -0.195 F 
HETATM    8  C4  UNL     1      20.797   7.248  23.409  1.00  0.00     0.129 C 
HETATM    9  C5  UNL     1      20.425   6.925  24.772  1.00  0.00    -0.040 A 
HETATM   10  C6  UNL     1      19.764   8.103  25.250  1.00  0.00     0.033 A 
HETATM   11  C7  UNL     1      19.297   8.243  26.522  1.00  0.00     0.056 A 
HETATM   12 CL1  UNL     1      18.475   9.723  27.059  1.00  0.00    -0.083 Cl
HETATM   13  C8  UNL     1      19.471   7.205  27.386  1.00  0.00     0.056 A 
HETATM   14 CL2  UNL     1      18.884   7.343  29.047  1.00  0.00    -0.083 Cl
HETATM   15  C9  UNL     1      20.094   6.086  26.949  1.00  0.00     0.037 A 
HETATM   16  C10 UNL     1      20.602   5.869  25.638  1.00  0.00    -0.028 A 
HETATM   17  C11 UNL     1      21.210   4.554  25.518  1.00  0.00     0.008 C 
HETATM   18  C12 UNL     1      20.957   3.366  25.011  1.00  0.00    -0.024 C 
HETATM   19  C13 UNL     1      19.839   2.775  24.272  1.00  0.00     0.047 C 
HETATM   20  C14 UNL     1      20.187   1.956  23.064  1.00  0.00     0.142 C 
HETATM   21  N2  UNL     1      21.487   1.365  23.061  1.00  0.00    -0.226 N 
ATOM     22  H2  UNL     1      21.599   0.676  23.805  1.00  0.00     0.177 HD
HETATM   23  C15 UNL     1      22.635   1.500  22.296  1.00  0.00     0.669 C 
HETATM   24  N3  UNL     1      23.765   1.408  22.997  1.00  0.00    -0.235 N 
ATOM     25  H31 UNL     1      24.609   1.506  22.434  1.00  0.00     0.174 HD
ATOM     26  H32 UNL     1      23.548   1.259  23.983  1.00  0.00     0.174 HD
HETATM   27  N4  UNL     1      22.935   1.705  20.936  1.00  0.00    -0.218 N 
HETATM   28  C16 UNL     1      24.284   1.183  20.676  1.00  0.00     0.141 C 
HETATM   29  C17 UNL     1      25.303   2.231  20.464  1.00  0.00     0.020 C 
HETATM   30  C18 UNL     1      24.932   3.409  19.641  1.00  0.00     0.004 C 
HETATM   31  C19 UNL     1      24.219   4.490  20.450  1.00  0.00     0.025 C 
HETATM   32  C20 UNL     1      22.851   4.799  19.853  1.00  0.00     0.088 C 
HETATM   33  C21 UNL     1      21.874   3.796  20.252  1.00  0.00     0.045 C 
HETATM   34  C22 UNL     1      22.080   2.345  19.947  1.00  0.00     0.143 C 
ENDROOT
TORSDOF 0
ENDMDL
MODEL 5
REMARK VINA RESULT: -6.344476317      4.298      7.720
REMARK  0 active torsions:
REMARK  status: ('A' for Active; 'I' for Inactive)
ROOT
HETATM    1  C1  UNL     1      26.521   3.853  15.522  1.00  0.00     0.153 C 
HETATM    2  N1  UNL     1      25.806   4.318  16.740  1.00  0.00    -0.347 N 
HETATM    3  C2  UNL     1      25.677   3.354  17.727  1.00  0.00     0.292 C 
HETATM    4  O1  UNL     1      26.552   2.430  17.791  1.00  0.00    -0.267 OA
HETATM    5  C3  UNL     1      24.614   3.229  18.777  1.00  0.00     0.326 C 
HETATM    6  F1  UNL     1      25.114   3.929  19.791  1.00  0.00    -0.195 F 
HETATM    7  F2  UNL     1      23.473   3.353  18.126  1.00  0.00    -0.195 F 
HETATM    8  C4  UNL     1      24.517   1.899  19.392  1.00  0.00     0.129 C 
HETATM    9  C5  UNL     1      23.506   1.590  20.384  1.00  0.00    -0.040 A 
HETATM   10  C6  UNL     1      23.888   0.307  20.896  1.00  0.00     0.033 A 
HETATM   11  C7  UNL     1      23.166  -0.382  21.824  1.00  0.00     0.056 A 
HETATM   12 CL1  UNL     1      23.692  -1.965  22.431  1.00  0.00    -0.083 Cl
HETATM   13  C8  UNL     1      22.017   0.183  22.288  1.00  0.00     0.056 A 
HETATM   14 CL2  UNL     1      21.047  -0.675  23.491  1.00  0.00    -0.083 Cl
HETATM   15  C9  UNL     1      21.643   1.394  21.814  1.00  0.00     0.037 A 
HETATM   16  C10 UNL     1      22.347   2.170  20.851  1.00  0.00    -0.028 A 
HETATM   17  C11 UNL     1      21.660   3.420  20.574  1.00  0.00     0.008 C 
HETATM   18  C12 UNL     1      21.747   4.704  20.848  1.00  0.00    -0.024 C 
HETATM   19  C13 UNL     1      22.663   5.532  21.635  1.00  0.00     0.047 C 
HETATM   20  C14 UNL     1      23.144   6.801  20.995  1.00  0.00     0.142 C 
HETATM   21  N2  UNL     1      22.288   7.364  20.000  1.00  0.00    -0.226 N 
ATOM     22  H2  UNL     1      21.393   7.665  20.386  1.00  0.00     0.177 HD
HETATM   23  C15 UNL     1      22.376   7.600  18.637  1.00  0.00     0.669 C 
HETATM   24  N3  UNL     1      21.232   7.403  17.980  1.00  0.00    -0.235 N 
ATOM     25  H31 UNL     1      21.297   7.577  16.978  1.00  0.00     0.174 HD
ATOM     26  H32 UNL     1      20.506   7.106  18.633  1.00  0.00     0.174 HD
HETATM   27  N4  UNL     1      23.377   8.011  17.736  1.00  0.00    -0.218 N 
HETATM   28  C16 UNL     1      22.725   8.624  16.570  1.00  0.00     0.141 C 
HETATM   29  C17 UNL     1      22.775   7.794  15.349  1.00  0.00     0.020 C 
HETATM   30  C18 UNL     1      24.040   7.082  15.041  1.00  0.00     0.004 C 
HETATM   31  C19 UNL     1      24.150   5.742  15.764  1.00  0.00     0.025 C 
HETATM   32  C20 UNL     1      25.409   5.692  16.622  1.00  0.00     0.088 C 
HETATM   33  C21 UNL     1      25.207   6.401  17.878  1.00  0.00     0.045 C 
HETATM   34  C22 UNL     1      24.812   7.845  17.901  1.00  0.00     0.143 C 
ENDROOT
TORSDOF 0
ENDMDL
