MODEL 1
REMARK VINA RESULT: -6.348869509      0.000      0.000
REMARK  0 active torsions:
REMARK  status: ('A' for Active; 'I' for Inactive)
REMARK       I    between atoms: N1_2  and  C2_4 
REMARK       I    between atoms: C2_4  and  N2_5 
ROOT
HETATM    1  C1  UNL     1      19.408   3.764  26.860  1.00  0.00     0.165 C 
HETATM    2  N1  UNL     1      20.784   3.687  27.293  1.00  0.00    -0.230 N 
ATOM      3  H1  UNL     1      21.375   4.518  27.319  1.00  0.00     0.177 HD
HETATM    4  C2  UNL     1      21.285   2.417  27.683  1.00  0.00     0.688 C 
HETATM    5  N2  UNL     1      22.668   2.167  27.734  1.00  0.00    -0.180 N 
ATOM      6  H2  UNL     1      23.115   2.052  28.644  1.00  0.00     0.185 HD
HETATM    7  C3  UNL     1      23.418   2.074  26.631  1.00  0.00     0.093 C 
HETATM    8  C4  UNL     1      24.830   1.809  26.952  1.00  0.00     0.081 C 
HETATM    9  C5  UNL     1      25.047   0.352  27.350  1.00  0.00     0.046 C 
HETATM   10  C6  UNL     1      24.922  -0.556  26.168  1.00  0.00    -0.057 A 
HETATM   11  C7  UNL     1      26.210  -0.921  25.721  1.00  0.00     0.007 A 
HETATM   12  C8  UNL     1      26.446  -1.561  24.532  1.00  0.00     0.001 A 
HETATM   13  C9  UNL     1      25.324  -1.823  23.783  1.00  0.00     0.010 A 
HETATM   14  C10 UNL     1      24.037  -1.467  24.206  1.00  0.00    -0.024 A 
HETATM   15  C11 UNL     1      23.802  -0.842  25.407  1.00  0.00     0.017 A 
HETATM   16  C12 UNL     1      23.082  -1.563  23.015  1.00  0.00     0.207 C 
HETATM   17  F1  UNL     1      21.959  -2.262  23.210  1.00  0.00    -0.244 F 
HETATM   18  C13 UNL     1      22.839  -0.187  22.502  1.00  0.00     0.029 C 
HETATM   19  C14 UNL     1      22.586  -0.095  21.036  1.00  0.00     0.048 C 
HETATM   20  C15 UNL     1      22.924   1.353  20.706  1.00  0.00    -0.029 A 
HETATM   21  C16 UNL     1      23.395   1.593  19.430  1.00  0.00     0.043 A 
HETATM   22 CL1  UNL     1      23.560   0.301  18.278  1.00  0.00    -0.084 Cl
HETATM   23  C17 UNL     1      23.735   2.867  19.072  1.00  0.00     0.066 A 
HETATM   24  C18 UNL     1      23.590   3.875  20.019  1.00  0.00     0.118 A 
HETATM   25  F2  UNL     1      23.936   5.141  19.641  1.00  0.00    -0.206 F 
HETATM   26  C19 UNL     1      23.118   3.613  21.287  1.00  0.00     0.050 A 
HETATM   27  C20 UNL     1      22.769   2.314  21.657  1.00  0.00    -0.042 A 
HETATM   28  C21 UNL     1      22.256   2.106  23.016  1.00  0.00     0.037 C 
HETATM   29  C22 UNL     1      23.219   2.562  24.098  1.00  0.00     0.130 C 
HETATM   30  N3  UNL     1      22.762   2.240  25.409  1.00  0.00    -0.379 N 
ATOM     31  H3  UNL     1      21.754   2.103  25.467  1.00  0.00     0.160 HD
HETATM   32  C23 UNL     1      21.824   0.652  23.196  1.00  0.00     0.019 C 
HETATM   33  N4  UNL     1      20.485   1.441  28.007  1.00  0.00    -0.126 N 
ATOM     34  H4  UNL     1      19.477   1.595  27.979  1.00  0.00     0.197 HD
HETATM   35  C24 UNL     1      20.962   0.206  28.386  1.00  0.00     0.196 C 
HETATM   36  N5  UNL     1      21.376  -0.835  28.694  1.00  0.00    -0.171 NA
ENDROOT
TORSDOF 0
ENDMDL
MODEL 2
REMARK VINA RESULT: -6.058849890      2.939      5.138
REMARK  0 active torsions:
REMARK  status: ('A' for Active; 'I' for Inactive)
REMARK       I    between atoms: N1_2  and  C2_4 
REMARK       I    between atoms: C2_4  and  N2_5 
ROOT
HETATM    1  C1  UNL     1      27.622  -0.742  24.864  1.00  0.00     0.165 C 
HETATM    2  N1  UNL     1      26.654  -1.604  24.225  1.00  0.00    -0.230 N 
ATOM      3  H1  UNL     1      26.898  -2.145  23.395  1.00  0.00     0.177 HD
HETATM    4  C2  UNL     1      25.354  -1.674  24.790  1.00  0.00     0.688 C 
HETATM    5  N2  UNL     1      24.262  -2.150  24.042  1.00  0.00    -0.180 N 
ATOM      6  H2  UNL     1      23.858  -3.055  24.281  1.00  0.00     0.185 HD
HETATM    7  C3  UNL     1      23.734  -1.457  23.028  1.00  0.00     0.093 C 
HETATM    8  C4  UNL     1      22.604  -2.169  22.409  1.00  0.00     0.081 C 
HETATM    9  C5  UNL     1      21.347  -2.072  23.268  1.00  0.00     0.046 C 
HETATM   10  C6  UNL     1      20.774  -0.691  23.234  1.00  0.00    -0.057 A 
HETATM   11  C7  UNL     1      19.671  -0.664  22.354  1.00  0.00     0.007 A 
HETATM   12  C8  UNL     1      19.066   0.492  21.932  1.00  0.00     0.001 A 
HETATM   13  C9  UNL     1      19.620   1.648  22.426  1.00  0.00     0.010 A 
HETATM   14  C10 UNL     1      20.716   1.644  23.298  1.00  0.00    -0.024 A 
HETATM   15  C11 UNL     1      21.308   0.484  23.733  1.00  0.00     0.017 A 
HETATM   16  C12 UNL     1      21.300   3.057  23.362  1.00  0.00     0.207 C 
HETATM   17  F1  UNL     1      21.495   3.563  24.585  1.00  0.00    -0.244 F 
HETATM   18  C13 UNL     1      22.516   3.097  22.506  1.00  0.00     0.029 C 
HETATM   19  C14 UNL     1      22.792   4.413  21.862  1.00  0.00     0.048 C 
HETATM   20  C15 UNL     1      23.679   4.052  20.678  1.00  0.00    -0.029 A 
HETATM   21  C16 UNL     1      23.591   4.880  19.576  1.00  0.00     0.043 A 
HETATM   22 CL1  UNL     1      22.538   6.263  19.577  1.00  0.00    -0.084 Cl
HETATM   23  C17 UNL     1      24.346   4.604  18.471  1.00  0.00     0.066 A 
HETATM   24  C18 UNL     1      25.178   3.490  18.507  1.00  0.00     0.118 A 
HETATM   25  F2  UNL     1      25.924   3.232  17.392  1.00  0.00    -0.206 F 
HETATM   26  C19 UNL     1      25.250   2.677  19.617  1.00  0.00     0.050 A 
HETATM   27  C20 UNL     1      24.482   2.956  20.748  1.00  0.00    -0.042 A 
HETATM   28  C21 UNL     1      24.619   2.061  21.903  1.00  0.00     0.037 C 
HETATM   29  C22 UNL     1      24.306   0.610  21.580  1.00  0.00     0.130 C 
HETATM   30  N3  UNL     1      24.322  -0.224  22.736  1.00  0.00    -0.379 N 
ATOM     31  H3  UNL     1      24.874   0.156  23.505  1.00  0.00     0.160 HD
HETATM   32  C23 UNL     1      23.793   2.588  23.075  1.00  0.00     0.019 C 
HETATM   33  N4  UNL     1      25.126  -1.301  26.018  1.00  0.00    -0.126 N 
ATOM     34  H4  UNL     1      25.900  -0.952  26.582  1.00  0.00     0.197 HD
HETATM   35  C24 UNL     1      23.867  -1.366  26.574  1.00  0.00     0.196 C 
HETATM   36  N5  UNL     1      22.800  -1.414  27.030  1.00  0.00    -0.171 NA
ENDROOT
TORSDOF 0
ENDMDL
MODEL 3
REMARK VINA RESULT: -5.949292356      3.944      7.637
REMARK  0 active torsions:
REMARK  status: ('A' for Active; 'I' for Inactive)
REMARK       I    between atoms: N1_2  and  C2_4 
REMARK       I    between atoms: C2_4  and  N2_5 
ROOT
HETATM    1  C1  UNL     1      25.568  -2.200  19.459  1.00  0.00     0.165 C 
HETATM    2  N1  UNL     1      26.086  -0.852  19.461  1.00  0.00    -0.230 N 
ATOM      3  H1  UNL     1      27.006  -0.642  19.849  1.00  0.00     0.177 HD
HETATM    4  C2  UNL     1      25.274   0.171  18.905  1.00  0.00     0.688 C 
HETATM    5  N2  UNL     1      25.501   1.525  19.210  1.00  0.00    -0.180 N 
ATOM      6  H2  UNL     1      25.876   2.137  18.484  1.00  0.00     0.185 HD
HETATM    7  C3  UNL     1      25.243   2.040  20.416  1.00  0.00     0.093 C 
HETATM    8  C4  UNL     1      25.567   3.474  20.479  1.00  0.00     0.081 C 
HETATM    9  C5  UNL     1      24.506   4.316  19.777  1.00  0.00     0.046 C 
HETATM   10  C6  UNL     1      23.234   4.349  20.563  1.00  0.00    -0.057 A 
HETATM   11  C7  UNL     1      23.146   5.572  21.261  1.00  0.00     0.007 A 
HETATM   12  C8  UNL     1      22.218   5.824  22.238  1.00  0.00     0.001 A 
HETATM   13  C9  UNL     1      21.365   4.781  22.507  1.00  0.00     0.010 A 
HETATM   14  C10 UNL     1      21.435   3.557  21.829  1.00  0.00    -0.024 A 
HETATM   15  C11 UNL     1      22.355   3.315  20.837  1.00  0.00     0.017 A 
HETATM   16  C12 UNL     1      20.614   2.520  22.597  1.00  0.00     0.207 C 
HETATM   17  F1  UNL     1      19.727   1.819  21.884  1.00  0.00    -0.244 F 
HETATM   18  C13 UNL     1      21.554   1.665  23.373  1.00  0.00     0.029 C 
HETATM   19  C14 UNL     1      21.013   1.138  24.658  1.00  0.00     0.048 C 
HETATM   20  C15 UNL     1      22.264   0.812  25.465  1.00  0.00    -0.029 A 
HETATM   21  C16 UNL     1      22.147   0.912  26.838  1.00  0.00     0.043 A 
HETATM   22 CL1  UNL     1      20.639   1.362  27.577  1.00  0.00    -0.084 Cl
HETATM   23  C17 UNL     1      23.235   0.651  27.621  1.00  0.00     0.066 A 
HETATM   24  C18 UNL     1      24.424   0.293  26.994  1.00  0.00     0.118 A 
HETATM   25  F2  UNL     1      25.500   0.037  27.796  1.00  0.00    -0.206 F 
HETATM   26  C19 UNL     1      24.519   0.200  25.623  1.00  0.00     0.050 A 
HETATM   27  C20 UNL     1      23.409   0.464  24.819  1.00  0.00    -0.042 A 
HETATM   28  C21 UNL     1      23.573   0.329  23.366  1.00  0.00     0.037 C 
HETATM   29  C22 UNL     1      24.671   1.212  22.800  1.00  0.00     0.130 C 
HETATM   30  N3  UNL     1      24.733   1.163  21.376  1.00  0.00    -0.379 N 
ATOM     31  H3  UNL     1      24.323   0.318  20.979  1.00  0.00     0.160 HD
HETATM   32  C23 UNL     1      22.232   0.545  22.666  1.00  0.00     0.019 C 
HETATM   33  N4  UNL     1      24.291  -0.107  18.095  1.00  0.00    -0.126 N 
ATOM     34  H4  UNL     1      24.104  -1.081  17.858  1.00  0.00     0.197 HD
HETATM   35  C24 UNL     1      23.498   0.879  17.551  1.00  0.00     0.196 C 
HETATM   36  N5  UNL     1      22.828   1.718  17.106  1.00  0.00    -0.171 NA
ENDROOT
TORSDOF 0
ENDMDL
MODEL 4
REMARK VINA RESULT: -5.628685640      4.094      7.594
REMARK  0 active torsions:
REMARK  status: ('A' for Active; 'I' for Inactive)
REMARK       I    between atoms: N1_2  and  C2_4 
REMARK       I    between atoms: C2_4  and  N2_5 
ROOT
HETATM    1  C1  UNL     1      26.456  -0.894  18.079  1.00  0.00     0.165 C 
HETATM    2  N1  UNL     1      26.551   0.471  18.542  1.00  0.00    -0.230 N 
ATOM      3  H1  UNL     1      27.391   0.811  19.010  1.00  0.00     0.177 HD
HETATM    4  C2  UNL     1      25.436   1.323  18.324  1.00  0.00     0.688 C 
HETATM    5  N2  UNL     1      25.272   2.508  19.064  1.00  0.00    -0.180 N 
ATOM      6  H2  UNL     1      25.400   3.404  18.593  1.00  0.00     0.185 HD
HETATM    7  C3  UNL     1      24.954   2.501  20.362  1.00  0.00     0.093 C 
HETATM    8  C4  UNL     1      24.841   3.865  20.904  1.00  0.00     0.081 C 
HETATM    9  C5  UNL     1      23.534   4.527  20.479  1.00  0.00     0.046 C 
HETATM   10  C6  UNL     1      22.365   3.918  21.186  1.00  0.00    -0.057 A 
HETATM   11  C7  UNL     1      21.965   4.764  22.243  1.00  0.00     0.007 A 
HETATM   12  C8  UNL     1      21.072   4.393  23.214  1.00  0.00     0.001 A 
HETATM   13  C9  UNL     1      20.585   3.114  23.095  1.00  0.00     0.010 A 
HETATM   14  C10 UNL     1      20.970   2.257  22.056  1.00  0.00    -0.024 A 
HETATM   15  C11 UNL     1      21.852   2.638  21.074  1.00  0.00     0.017 A 
HETATM   16  C12 UNL     1      20.547   0.830  22.411  1.00  0.00     0.207 C 
HETATM   17  F1  UNL     1      19.861   0.165  21.476  1.00  0.00    -0.244 F 
HETATM   18  C13 UNL     1      21.747   0.096  22.897  1.00  0.00     0.029 C 
HETATM   19  C14 UNL     1      21.474  -0.956  23.917  1.00  0.00     0.048 C 
HETATM   20  C15 UNL     1      22.815  -1.132  24.617  1.00  0.00    -0.029 A 
HETATM   21  C16 UNL     1      22.766  -1.521  25.941  1.00  0.00     0.043 A 
HETATM   22 CL1  UNL     1      21.245  -1.811  26.733  1.00  0.00    -0.084 Cl
HETATM   23  C17 UNL     1      23.932  -1.680  26.635  1.00  0.00     0.066 A 
HETATM   24  C18 UNL     1      25.129  -1.440  25.968  1.00  0.00     0.118 A 
HETATM   25  F2  UNL     1      26.283  -1.604  26.680  1.00  0.00    -0.206 F 
HETATM   26  C19 UNL     1      25.156  -1.052  24.647  1.00  0.00     0.050 A 
HETATM   27  C20 UNL     1      23.967  -0.889  23.934  1.00  0.00    -0.042 A 
HETATM   28  C21 UNL     1      24.066  -0.491  22.525  1.00  0.00     0.037 C 
HETATM   29  C22 UNL     1      24.813   0.815  22.320  1.00  0.00     0.130 C 
HETATM   30  N3  UNL     1      24.792   1.250  20.962  1.00  0.00    -0.379 N 
ATOM     31  H3  UNL     1      24.625   0.497  20.296  1.00  0.00     0.160 HD
HETATM   32  C23 UNL     1      22.678  -0.476  21.887  1.00  0.00     0.019 C 
HETATM   33  N4  UNL     1      24.529   1.039  17.433  1.00  0.00    -0.126 N 
ATOM     34  H4  UNL     1      24.624   0.186  16.882  1.00  0.00     0.197 HD
HETATM   35  C24 UNL     1      23.444   1.860  17.214  1.00  0.00     0.196 C 
HETATM   36  N5  UNL     1      22.528   2.554  17.045  1.00  0.00    -0.171 NA
ENDROOT
TORSDOF 0
ENDMDL
MODEL 5
REMARK VINA RESULT: -5.391443314      1.821      2.108
REMARK  0 active torsions:
REMARK  status: ('A' for Active; 'I' for Inactive)
REMARK       I    between atoms: N1_2  and  C2_4 
REMARK       I    between atoms: C2_4  and  N2_5 
ROOT
HETATM    1  C1  UNL     1      19.815   5.397  25.267  1.00  0.00     0.165 C 
HETATM    2  N1  UNL     1      20.988   5.161  26.076  1.00  0.00    -0.230 N 
ATOM      3  H1  UNL     1      21.818   5.747  25.984  1.00  0.00     0.177 HD
HETATM    4  C2  UNL     1      20.948   4.086  27.003  1.00  0.00     0.688 C 
HETATM    5  N2  UNL     1      22.131   3.538  27.530  1.00  0.00    -0.180 N 
ATOM      6  H2  UNL     1      22.355   3.703  28.512  1.00  0.00     0.185 HD
HETATM    7  C3  UNL     1      22.972   2.808  26.791  1.00  0.00     0.093 C 
HETATM    8  C4  UNL     1      24.132   2.352  27.574  1.00  0.00     0.081 C 
HETATM    9  C5  UNL     1      23.763   1.190  28.491  1.00  0.00     0.046 C 
HETATM   10  C6  UNL     1      23.526  -0.063  27.708  1.00  0.00    -0.057 A 
HETATM   11  C7  UNL     1      24.663  -0.895  27.802  1.00  0.00     0.007 A 
HETATM   12  C8  UNL     1      24.854  -2.007  27.025  1.00  0.00     0.001 A 
HETATM   13  C9  UNL     1      23.850  -2.262  26.123  1.00  0.00     0.010 A 
HETATM   14  C10 UNL     1      22.715  -1.449  26.011  1.00  0.00    -0.024 A 
HETATM   15  C11 UNL     1      22.518  -0.345  26.804  1.00  0.00     0.017 A 
HETATM   16  C12 UNL     1      21.994  -1.786  24.704  1.00  0.00     0.207 C 
HETATM   17  F1  UNL     1      20.683  -2.031  24.796  1.00  0.00    -0.244 F 
HETATM   18  C13 UNL     1      22.330  -0.735  23.704  1.00  0.00     0.029 C 
HETATM   19  C14 UNL     1      22.368  -1.200  22.289  1.00  0.00     0.048 C 
HETATM   20  C15 UNL     1      23.236  -0.158  21.594  1.00  0.00    -0.029 A 
HETATM   21  C16 UNL     1      23.963  -0.598  20.505  1.00  0.00     0.043 A 
HETATM   22 CL1  UNL     1      23.857  -2.247  19.964  1.00  0.00    -0.084 Cl
HETATM   23  C17 UNL     1      24.777   0.280  19.847  1.00  0.00     0.066 A 
HETATM   24  C18 UNL     1      24.837   1.591  20.308  1.00  0.00     0.118 A 
HETATM   25  F2  UNL     1      25.656   2.452  19.635  1.00  0.00    -0.206 F 
HETATM   26  C19 UNL     1      24.103   2.009  21.396  1.00  0.00     0.050 A 
HETATM   27  C20 UNL     1      23.270   1.116  22.072  1.00  0.00    -0.042 A 
HETATM   28  C21 UNL     1      22.502   1.629  23.212  1.00  0.00     0.037 C 
HETATM   29  C22 UNL     1      23.372   2.232  24.300  1.00  0.00     0.130 C 
HETATM   30  N3  UNL     1      22.623   2.612  25.453  1.00  0.00    -0.379 N 
ATOM     31  H3  UNL     1      21.635   2.773  25.262  1.00  0.00     0.160 HD
HETATM   32  C23 UNL     1      21.569   0.543  23.746  1.00  0.00     0.019 C 
HETATM   33  N4  UNL     1      19.817   3.571  27.397  1.00  0.00    -0.126 N 
ATOM     34  H4  UNL     1      18.945   3.950  27.030  1.00  0.00     0.197 HD
HETATM   35  C24 UNL     1      19.769   2.528  28.296  1.00  0.00     0.196 C 
HETATM   36  N5  UNL     1      19.740   1.643  29.047  1.00  0.00    -0.171 NA
ENDROOT
TORSDOF 0
ENDMDL
