MODEL 1
REMARK VINA RESULT: -7.021065307      0.000      0.000
REMARK  1 active torsions:
REMARK  status: ('A' for Active; 'I' for Inactive)
REMARK    1  A    between atoms: C13_16  and  O1_17 
ROOT
HETATM    1  C1  UNL     1      23.052   0.914  18.807  1.00  0.00     0.017 C 
HETATM    2  C2  UNL     1      24.350   0.695  19.451  1.00  0.00    -0.025 C 
HETATM    3  C3  UNL     1      25.318   0.345  18.301  1.00  0.00     0.027 C 
HETATM    4  C4  UNL     1      25.532   1.760  17.735  1.00  0.00     0.072 C 
HETATM    5 BR1  UNL     1      27.196   1.793  16.708  1.00  0.00    -0.090 Br
HETATM    6  C5  UNL     1      25.636   2.671  18.936  1.00  0.00     0.002 C 
HETATM    7  C6  UNL     1      27.130   2.930  19.149  1.00  0.00     0.022 C 
HETATM    8  C7  UNL     1      24.896   3.944  18.772  1.00  0.00    -0.034 A 
HETATM    9  C8  UNL     1      25.265   4.777  17.737  1.00  0.00     0.051 A 
HETATM   10  C9  UNL     1      24.669   5.991  17.465  1.00  0.00     0.119 A 
HETATM   11  F1  UNL     1      25.080   6.776  16.422  1.00  0.00    -0.206 F 
HETATM   12  C10 UNL     1      23.641   6.357  18.306  1.00  0.00     0.085 A 
HETATM   13  C11 UNL     1      23.249   5.550  19.345  1.00  0.00     0.128 A 
HETATM   14  F2  UNL     1      22.220   5.940  20.170  1.00  0.00    -0.205 F 
HETATM   15  C12 UNL     1      23.868   4.346  19.586  1.00  0.00     0.017 A 
HETATM   16  C13 UNL     1      23.372   3.533  20.741  1.00  0.00     0.159 C 
HETATM   17  C14 UNL     1      24.444   2.589  21.145  1.00  0.00     0.025 C 
HETATM   18  C15 UNL     1      24.108   1.677  22.269  1.00  0.00     0.008 C 
HETATM   19  C16 UNL     1      22.911   0.830  22.123  1.00  0.00     0.002 C 
HETATM   20  C17 UNL     1      23.075  -0.403  21.307  1.00  0.00     0.016 C 
HETATM   21  C18 UNL     1      24.280  -0.432  20.430  1.00  0.00     0.066 C 
HETATM   22 BR2  UNL     1      24.295  -2.156  19.518  1.00  0.00    -0.090 Br
HETATM   23  C19 UNL     1      25.085   1.824  20.042  1.00  0.00     0.015 C 
ENDROOT
BRANCH  16  24
HETATM   24  O1  UNL     1      23.226   4.468  21.797  1.00  0.00    -0.390 OA
ATOM     25  H1  UNL     1      24.033   4.970  21.783  1.00  0.00     0.210 HD
ENDBRANCH  16  24
TORSDOF 1
ENDMDL
MODEL 2
REMARK VINA RESULT: -6.967855959      1.305      1.554
REMARK  1 active torsions:
REMARK  status: ('A' for Active; 'I' for Inactive)
REMARK    1  A    between atoms: C13_16  and  O1_17 
ROOT
HETATM    1  C1  UNL     1      22.845   0.725  19.239  1.00  0.00     0.017 C 
HETATM    2  C2  UNL     1      24.245   0.642  19.665  1.00  0.00    -0.025 C 
HETATM    3  C3  UNL     1      25.072   0.867  18.382  1.00  0.00     0.027 C 
HETATM    4  C4  UNL     1      24.917   2.393  18.266  1.00  0.00     0.072 C 
HETATM    5 BR1  UNL     1      26.363   3.101  17.156  1.00  0.00    -0.090 Br
HETATM    6  C5  UNL     1      25.025   2.925  19.676  1.00  0.00     0.002 C 
HETATM    7  C6  UNL     1      26.454   3.453  19.826  1.00  0.00     0.022 C 
HETATM    8  C7  UNL     1      24.035   3.984  19.981  1.00  0.00    -0.034 A 
HETATM    9  C8  UNL     1      24.069   5.138  19.227  1.00  0.00     0.051 A 
HETATM   10  C9  UNL     1      23.213   6.205  19.398  1.00  0.00     0.119 A 
HETATM   11  F1  UNL     1      23.296   7.327  18.618  1.00  0.00    -0.206 F 
HETATM   12  C10 UNL     1      22.276   6.069  20.400  1.00  0.00     0.085 A 
HETATM   13  C11 UNL     1      22.215   4.933  21.168  1.00  0.00     0.128 A 
HETATM   14  F2  UNL     1      21.269   4.823  22.161  1.00  0.00    -0.205 F 
HETATM   15  C12 UNL     1      23.086   3.889  20.968  1.00  0.00     0.017 A 
HETATM   16  C13 UNL     1      22.943   2.690  21.853  1.00  0.00     0.159 C 
HETATM   17  C14 UNL     1      24.228   1.946  21.848  1.00  0.00     0.025 C 
HETATM   18  C15 UNL     1      24.255   0.701  22.659  1.00  0.00     0.008 C 
HETATM   19  C16 UNL     1      23.239  -0.323  22.364  1.00  0.00     0.002 C 
HETATM   20  C17 UNL     1      23.512  -1.202  21.195  1.00  0.00     0.016 C 
HETATM   21  C18 UNL     1      24.549  -0.701  20.249  1.00  0.00     0.066 C 
HETATM   22 BR2  UNL     1      24.759  -2.043  18.850  1.00  0.00    -0.090 Br
HETATM   23  C19 UNL     1      24.828   1.697  20.509  1.00  0.00     0.015 C 
ENDROOT
BRANCH  16  24
HETATM   24  O1  UNL     1      22.784   3.227  23.155  1.00  0.00    -0.390 OA
ATOM     25  H1  UNL     1      22.016   3.783  23.091  1.00  0.00     0.210 HD
ENDBRANCH  16  24
TORSDOF 1
ENDMDL
MODEL 3
REMARK VINA RESULT: -6.628280047      2.016      2.712
REMARK  1 active torsions:
REMARK  status: ('A' for Active; 'I' for Inactive)
REMARK    1  A    between atoms: C13_16  and  O1_17 
ROOT
HETATM    1  C1  UNL     1      21.242   2.974  19.978  1.00  0.00     0.017 C 
HETATM    2  C2  UNL     1      22.379   2.673  20.853  1.00  0.00    -0.025 C 
HETATM    3  C3  UNL     1      23.209   1.620  20.088  1.00  0.00     0.027 C 
HETATM    4  C4  UNL     1      23.892   2.552  19.072  1.00  0.00     0.072 C 
HETATM    5 BR1  UNL     1      25.502   1.680  18.385  1.00  0.00    -0.090 Br
HETATM    6  C5  UNL     1      24.255   3.801  19.839  1.00  0.00     0.002 C 
HETATM    7  C6  UNL     1      25.745   3.681  20.172  1.00  0.00     0.022 C 
HETATM    8  C7  UNL     1      23.979   5.050  19.091  1.00  0.00    -0.034 A 
HETATM    9  C8  UNL     1      24.629   5.242  17.890  1.00  0.00     0.051 A 
HETATM   10  C9  UNL     1      24.472   6.353  17.089  1.00  0.00     0.119 A 
HETATM   11  F1  UNL     1      25.146   6.488  15.906  1.00  0.00    -0.206 F 
HETATM   12  C10 UNL     1      23.598   7.311  17.556  1.00  0.00     0.085 A 
HETATM   13  C11 UNL     1      22.934   7.151  18.747  1.00  0.00     0.128 A 
HETATM   14  F2  UNL     1      22.068   8.123  19.189  1.00  0.00    -0.205 F 
HETATM   15  C12 UNL     1      23.117   6.028  19.519  1.00  0.00     0.017 A 
HETATM   16  C13 UNL     1      22.350   5.940  20.802  1.00  0.00     0.159 C 
HETATM   17  C14 UNL     1      23.041   4.978  21.697  1.00  0.00     0.025 C 
HETATM   18  C15 UNL     1      22.394   4.745  23.014  1.00  0.00     0.008 C 
HETATM   19  C16 UNL     1      20.991   4.298  23.012  1.00  0.00     0.002 C 
HETATM   20  C17 UNL     1      20.763   2.849  22.760  1.00  0.00     0.016 C 
HETATM   21  C18 UNL     1      21.916   2.118  22.161  1.00  0.00     0.066 C 
HETATM   22 BR2  UNL     1      21.390   0.248  21.983  1.00  0.00    -0.090 Br
HETATM   23  C19 UNL     1      23.427   3.679  21.080  1.00  0.00     0.015 C 
ENDROOT
BRANCH  16  24
HETATM   24  O1  UNL     1      22.491   7.222  21.389  1.00  0.00    -0.390 OA
ATOM     25  H1  UNL     1      22.439   7.063  22.325  1.00  0.00     0.210 HD
ENDBRANCH  16  24
TORSDOF 1
ENDMDL
MODEL 4
REMARK VINA RESULT: -6.589593847      4.453      7.488
REMARK  1 active torsions:
REMARK  status: ('A' for Active; 'I' for Inactive)
REMARK    1  A    between atoms: C13_16  and  O1_17 
ROOT
HETATM    1  C1  UNL     1      20.566   7.414  18.072  1.00  0.00     0.017 C 
HETATM    2  C2  UNL     1      21.436   8.433  18.667  1.00  0.00    -0.025 C 
HETATM    3  C3  UNL     1      20.611   9.048  19.816  1.00  0.00     0.027 C 
HETATM    4  C4  UNL     1      20.770   7.921  20.850  1.00  0.00     0.072 C 
HETATM    5 BR1  UNL     1      20.424   8.638  22.637  1.00  0.00    -0.090 Br
HETATM    6  C5  UNL     1      22.203   7.458  20.736  1.00  0.00     0.002 C 
HETATM    7  C6  UNL     1      22.960   8.121  21.890  1.00  0.00     0.022 C 
HETATM    8  C7  UNL     1      22.349   5.984  20.785  1.00  0.00    -0.034 A 
HETATM    9  C8  UNL     1      21.917   5.329  21.918  1.00  0.00     0.051 A 
HETATM   10  C9  UNL     1      21.991   3.964  22.104  1.00  0.00     0.119 A 
HETATM   11  F1  UNL     1      21.546   3.369  23.253  1.00  0.00    -0.206 F 
HETATM   12  C10 UNL     1      22.540   3.245  21.064  1.00  0.00     0.085 A 
HETATM   13  C11 UNL     1      22.979   3.867  19.922  1.00  0.00     0.128 A 
HETATM   14  F2  UNL     1      23.522   3.126  18.898  1.00  0.00    -0.205 F 
HETATM   15  C12 UNL     1      22.889   5.231  19.772  1.00  0.00     0.017 A 
HETATM   16  C13 UNL     1      23.392   5.821  18.492  1.00  0.00     0.159 C 
HETATM   17  C14 UNL     1      23.690   7.257  18.722  1.00  0.00     0.025 C 
HETATM   18  C15 UNL     1      24.177   8.012  17.538  1.00  0.00     0.008 C 
HETATM   19  C16 UNL     1      23.332   8.002  16.332  1.00  0.00     0.002 C 
HETATM   20  C17 UNL     1      22.181   8.945  16.330  1.00  0.00     0.016 C 
HETATM   21  C18 UNL     1      21.795   9.483  17.665  1.00  0.00     0.066 C 
HETATM   22 BR2  UNL     1      20.315  10.723  17.388  1.00  0.00    -0.090 Br
HETATM   23  C19 UNL     1      22.633   8.035  19.424  1.00  0.00     0.015 C 
ENDROOT
BRANCH  16  24
HETATM   24  O1  UNL     1      24.633   5.174  18.267  1.00  0.00    -0.390 OA
ATOM     25  H1  UNL     1      25.199   5.857  17.924  1.00  0.00     0.210 HD
ENDBRANCH  16  24
TORSDOF 1
ENDMDL
MODEL 5
REMARK VINA RESULT: -6.366185404      3.307      5.092
REMARK  1 active torsions:
REMARK  status: ('A' for Active; 'I' for Inactive)
REMARK    1  A    between atoms: C13_16  and  O1_17 
ROOT
HETATM    1  C1  UNL     1      24.361   1.116  23.449  1.00  0.00     0.017 C 
HETATM    2  C2  UNL     1      23.068   0.439  23.313  1.00  0.00    -0.025 C 
HETATM    3  C3  UNL     1      22.326   0.717  24.638  1.00  0.00     0.027 C 
HETATM    4  C4  UNL     1      21.899   2.170  24.368  1.00  0.00     0.072 C 
HETATM    5 BR1  UNL     1      20.389   2.620  25.526  1.00  0.00    -0.090 Br
HETATM    6  C5  UNL     1      21.481   2.213  22.917  1.00  0.00     0.002 C 
HETATM    7  C6  UNL     1      19.951   2.152  22.910  1.00  0.00     0.022 C 
HETATM    8  C7  UNL     1      21.965   3.417  22.201  1.00  0.00    -0.034 A 
HETATM    9  C8  UNL     1      21.557   4.650  22.662  1.00  0.00     0.051 A 
HETATM   10  C9  UNL     1      21.926   5.853  22.096  1.00  0.00     0.119 A 
HETATM   11  F1  UNL     1      21.488   7.048  22.598  1.00  0.00    -0.206 F 
HETATM   12  C10 UNL     1      22.759   5.772  21.001  1.00  0.00     0.085 A 
HETATM   13  C11 UNL     1      23.184   4.559  20.518  1.00  0.00     0.128 A 
HETATM   14  F2  UNL     1      24.015   4.506  19.423  1.00  0.00    -0.205 F 
HETATM   15  C12 UNL     1      22.795   3.380  21.108  1.00  0.00     0.017 A 
HETATM   16  C13 UNL     1      23.309   2.106  20.513  1.00  0.00     0.159 C 
HETATM   17  C14 UNL     1      22.408   0.999  20.922  1.00  0.00     0.025 C 
HETATM   18  C15 UNL     1      22.790  -0.354  20.439  1.00  0.00     0.008 C 
HETATM   19  C16 UNL     1      24.140  -0.838  20.774  1.00  0.00     0.002 C 
HETATM   20  C17 UNL     1      24.319  -1.390  22.144  1.00  0.00     0.016 C 
HETATM   21  C18 UNL     1      23.250  -1.032  23.120  1.00  0.00     0.066 C 
HETATM   22 BR2  UNL     1      23.682  -1.912  24.806  1.00  0.00    -0.090 Br
HETATM   23  C19 UNL     1      22.061   0.946  22.368  1.00  0.00     0.015 C 
ENDROOT
BRANCH  16  24
HETATM   24  O1  UNL     1      23.145   2.275  19.115  1.00  0.00    -0.390 OA
ATOM     25  H1  UNL     1      23.595   3.089  18.920  1.00  0.00     0.210 HD
ENDBRANCH  16  24
TORSDOF 1
ENDMDL
