MODEL 1
REMARK VINA RESULT: -4.697059318      0.000      0.000
REMARK  1 active torsions:
REMARK  status: ('A' for Active; 'I' for Inactive)
REMARK    1  A    between atoms: C10_13  and  N1_14 
ROOT
HETATM    1  C1  UNL     1      21.606  -1.404  25.884  1.00  0.00     0.076 C 
HETATM    2  C2  UNL     1      22.285  -0.287  25.072  1.00  0.00     0.170 C 
HETATM    3  F1  UNL     1      22.549   0.715  26.017  1.00  0.00    -0.220 F 
HETATM    4  C3  UNL     1      23.553  -0.873  24.559  1.00  0.00     0.087 C 
HETATM    5  C4  UNL     1      24.100  -0.091  23.350  1.00  0.00     0.102 C 
HETATM    6 CL1  UNL     1      24.624   1.448  24.061  1.00  0.00    -0.124 Cl
HETATM    7  C5  UNL     1      23.032  -0.020  22.339  1.00  0.00     0.022 C 
HETATM    8  C6  UNL     1      22.499  -1.448  22.121  1.00  0.00     0.024 C 
HETATM    9  C7  UNL     1      23.395   0.633  21.035  1.00  0.00    -0.049 C 
HETATM   10  C8  UNL     1      24.195   0.056  20.153  1.00  0.00    -0.006 C 
HETATM   11 BR1  UNL     1      24.906  -1.673  20.597  1.00  0.00    -0.055 Br
HETATM   12  C9  UNL     1      24.569   0.612  18.804  1.00  0.00     0.081 C 
HETATM   13  C10 UNL     1      23.946   1.921  18.490  1.00  0.00     0.207 C 
HETATM   14  C11 UNL     1      23.854   2.747  19.786  1.00  0.00     0.050 C 
HETATM   15  C12 UNL     1      23.323   4.127  19.486  1.00  0.00     0.030 C 
HETATM   16 BR2  UNL     1      25.623   2.901  20.453  1.00  0.00    -0.083 Br
HETATM   17  C13 UNL     1      22.890   1.970  20.657  1.00  0.00     0.037 C 
HETATM   18  C14 UNL     1      22.452   2.851  21.801  1.00  0.00     0.013 C 
HETATM   19  C15 UNL     1      21.863   2.167  22.958  1.00  0.00     0.032 C 
HETATM   20  C16 UNL     1      21.813   0.689  22.893  1.00  0.00     0.037 C 
HETATM   21  C17 UNL     1      20.672   0.354  21.908  1.00  0.00     0.039 C 
HETATM   22  N2  UNL     1      21.373   0.195  24.147  1.00  0.00    -0.378 N 
ATOM     23  H2  UNL     1      20.378   0.194  24.370  1.00  0.00     0.157 HD
ENDROOT
BRANCH  13  24
HETATM   24  N1  UNL     1      22.645   1.819  17.864  1.00  0.00    -0.073 N 
ATOM     25  H13 UNL     1      22.723   1.387  16.943  1.00  0.00     0.274 HD
ATOM     26  H12 UNL     1      22.074   1.118  18.336  1.00  0.00     0.274 HD
ATOM     27  H11 UNL     1      22.144   2.706  17.802  1.00  0.00     0.274 HD
ENDBRANCH  13  24
TORSDOF 1
ENDMDL
MODEL 2
REMARK VINA RESULT: -4.282429571      0.948      1.002
REMARK  1 active torsions:
REMARK  status: ('A' for Active; 'I' for Inactive)
REMARK    1  A    between atoms: C10_13  and  N1_14 
ROOT
HETATM    1  C1  UNL     1      21.504  -0.717  26.648  1.00  0.00     0.076 C 
HETATM    2  C2  UNL     1      22.131   0.161  25.550  1.00  0.00     0.170 C 
HETATM    3  F1  UNL     1      22.263   1.422  26.149  1.00  0.00    -0.220 F 
HETATM    4  C3  UNL     1      23.468  -0.431  25.272  1.00  0.00     0.087 C 
HETATM    5  C4  UNL     1      24.012  -0.003  23.896  1.00  0.00     0.102 C 
HETATM    6 CL1  UNL     1      24.370   1.720  24.115  1.00  0.00    -0.124 Cl
HETATM    7  C5  UNL     1      22.995  -0.342  22.886  1.00  0.00     0.022 C 
HETATM    8  C6  UNL     1      22.593  -1.812  23.102  1.00  0.00     0.024 C 
HETATM    9  C7  UNL     1      23.371  -0.083  21.454  1.00  0.00    -0.049 C 
HETATM   10  C8  UNL     1      24.261  -0.822  20.811  1.00  0.00    -0.006 C 
HETATM   11 BR1  UNL     1      25.086  -2.261  21.780  1.00  0.00    -0.055 Br
HETATM   12  C9  UNL     1      24.658  -0.667  19.366  1.00  0.00     0.081 C 
HETATM   13  C10 UNL     1      23.948   0.422  18.652  1.00  0.00     0.207 C 
HETATM   14  C11 UNL     1      23.720   1.589  19.630  1.00  0.00     0.050 C 
HETATM   15  C12 UNL     1      23.095   2.757  18.910  1.00  0.00     0.030 C 
HETATM   16 BR2  UNL     1      25.434   2.101  20.262  1.00  0.00    -0.083 Br
HETATM   17  C13 UNL     1      22.779   1.024  20.673  1.00  0.00     0.037 C 
HETATM   18  C14 UNL     1      22.212   2.164  21.481  1.00  0.00     0.013 C 
HETATM   19  C15 UNL     1      21.621   1.810  22.777  1.00  0.00     0.032 C 
HETATM   20  C16 UNL     1      21.695   0.384  23.165  1.00  0.00     0.037 C 
HETATM   21  C17 UNL     1      20.638  -0.339  22.302  1.00  0.00     0.039 C 
HETATM   22  N2  UNL     1      21.233   0.253  24.500  1.00  0.00    -0.378 N 
ATOM     23  H2  UNL     1      20.231   0.226  24.687  1.00  0.00     0.157 HD
ENDROOT
BRANCH  13  24
HETATM   24  N1  UNL     1      22.693   0.014  18.054  1.00  0.00    -0.073 N 
ATOM     25  H13 UNL     1      22.214  -0.660  18.651  1.00  0.00     0.274 HD
ATOM     26  H12 UNL     1      22.019   0.779  18.082  1.00  0.00     0.274 HD
ATOM     27  H11 UNL     1      22.785  -0.350  17.105  1.00  0.00     0.274 HD
ENDBRANCH  13  24
TORSDOF 1
ENDMDL
MODEL 3
REMARK VINA RESULT: -4.156566505      2.791      4.050
REMARK  1 active torsions:
REMARK  status: ('A' for Active; 'I' for Inactive)
REMARK    1  A    between atoms: C10_13  and  N1_14 
ROOT
HETATM    1  C1  UNL     1      25.479  -1.692  29.000  1.00  0.00     0.076 C 
HETATM    2  C2  UNL     1      24.910  -0.624  28.051  1.00  0.00     0.170 C 
HETATM    3  F1  UNL     1      25.145   0.589  28.714  1.00  0.00    -0.220 F 
HETATM    4  C3  UNL     1      25.725  -0.710  26.808  1.00  0.00     0.087 C 
HETATM    5  C4  UNL     1      25.001  -0.085  25.601  1.00  0.00     0.102 C 
HETATM    6 CL1  UNL     1      25.011   1.649  25.971  1.00  0.00    -0.124 Cl
HETATM    7  C5  UNL     1      23.681  -0.727  25.486  1.00  0.00     0.022 C 
HETATM    8  C6  UNL     1      23.897  -2.251  25.515  1.00  0.00     0.024 C 
HETATM    9  C7  UNL     1      22.844  -0.317  24.307  1.00  0.00    -0.049 C 
HETATM   10  C8  UNL     1      23.134  -0.686  23.070  1.00  0.00    -0.006 C 
HETATM   11 BR1  UNL     1      24.695  -1.776  22.813  1.00  0.00    -0.055 Br
HETATM   12  C9  UNL     1      22.325  -0.366  21.840  1.00  0.00     0.081 C 
HETATM   13  C10 UNL     1      21.102   0.430  22.105  1.00  0.00     0.207 C 
HETATM   14  C11 UNL     1      21.394   1.420  23.247  1.00  0.00     0.050 C 
HETATM   15  C12 UNL     1      20.204   2.320  23.472  1.00  0.00     0.030 C 
HETATM   16 BR2  UNL     1      22.864   2.476  22.679  1.00  0.00    -0.083 Br
HETATM   17  C13 UNL     1      21.646   0.538  24.452  1.00  0.00     0.037 C 
HETATM   18  C14 UNL     1      21.598   1.391  25.695  1.00  0.00     0.013 C 
HETATM   19  C15 UNL     1      22.217   0.821  26.897  1.00  0.00     0.032 C 
HETATM   20  C16 UNL     1      22.861  -0.502  26.741  1.00  0.00     0.037 C 
HETATM   21  C17 UNL     1      21.705  -1.522  26.653  1.00  0.00     0.039 C 
HETATM   22  N2  UNL     1      23.543  -0.820  27.943  1.00  0.00    -0.378 N 
ATOM     23  H2  UNL     1      23.022  -1.195  28.735  1.00  0.00     0.157 HD
ENDROOT
BRANCH  13  24
HETATM   24  N1  UNL     1      19.936  -0.370  22.418  1.00  0.00    -0.073 N 
ATOM     25  H13 UNL     1      19.786  -0.406  23.427  1.00  0.00     0.274 HD
ATOM     26  H12 UNL     1      19.084   0.113  22.134  1.00  0.00     0.274 HD
ATOM     27  H11 UNL     1      19.962  -1.312  22.027  1.00  0.00     0.274 HD
ENDBRANCH  13  24
TORSDOF 1
ENDMDL
MODEL 4
REMARK VINA RESULT: -4.147094551      3.134      4.586
REMARK  1 active torsions:
REMARK  status: ('A' for Active; 'I' for Inactive)
REMARK    1  A    between atoms: C10_13  and  N1_14 
ROOT
HETATM    1  C1  UNL     1      23.980  -0.971  29.047  1.00  0.00     0.076 C 
HETATM    2  C2  UNL     1      23.549  -0.929  27.571  1.00  0.00     0.170 C 
HETATM    3  F1  UNL     1      23.681  -2.256  27.134  1.00  0.00    -0.220 F 
HETATM    4  C3  UNL     1      22.118  -0.519  27.578  1.00  0.00     0.087 C 
HETATM    5  C4  UNL     1      21.674   0.046  26.216  1.00  0.00     0.102 C 
HETATM    6 CL1  UNL     1      21.681  -1.379  25.160  1.00  0.00    -0.124 Cl
HETATM    7  C5  UNL     1      22.598   1.135  25.858  1.00  0.00     0.022 C 
HETATM    8  C6  UNL     1      22.688   2.088  27.064  1.00  0.00     0.024 C 
HETATM    9  C7  UNL     1      22.284   1.883  24.593  1.00  0.00    -0.049 C 
HETATM   10  C8  UNL     1      21.261   2.717  24.499  1.00  0.00    -0.006 C 
HETATM   11 BR1  UNL     1      20.155   2.943  26.054  1.00  0.00    -0.055 Br
HETATM   12  C9  UNL     1      20.904   3.544  23.292  1.00  0.00     0.081 C 
HETATM   13  C10 UNL     1      21.824   3.373  22.142  1.00  0.00     0.207 C 
HETATM   14  C11 UNL     1      22.288   1.905  22.095  1.00  0.00     0.050 C 
HETATM   15  C12 UNL     1      23.141   1.669  20.874  1.00  0.00     0.030 C 
HETATM   16 BR2  UNL     1      20.718   0.850  21.961  1.00  0.00    -0.083 Br
HETATM   17  C13 UNL     1      23.093   1.727  23.365  1.00  0.00     0.037 C 
HETATM   18  C14 UNL     1      23.883   0.447  23.261  1.00  0.00     0.013 C 
HETATM   19  C15 UNL     1      24.388  -0.108  24.523  1.00  0.00     0.032 C 
HETATM   20  C16 UNL     1      24.021   0.623  25.756  1.00  0.00     0.037 C 
HETATM   21  C17 UNL     1      24.905   1.889  25.770  1.00  0.00     0.039 C 
HETATM   22  N2  UNL     1      24.447  -0.135  26.877  1.00  0.00    -0.378 N 
ATOM     23  H2  UNL     1      25.421  -0.095  27.173  1.00  0.00     0.157 HD
ENDROOT
BRANCH  13  24
HETATM   24  N1  UNL     1      22.967   4.262  22.163  1.00  0.00    -0.073 N 
ATOM     25  H13 UNL     1      23.296   4.400  23.119  1.00  0.00     0.274 HD
ATOM     26  H12 UNL     1      23.785   3.803  21.764  1.00  0.00     0.274 HD
ATOM     27  H11 UNL     1      22.802   5.160  21.709  1.00  0.00     0.274 HD
ENDBRANCH  13  24
TORSDOF 1
ENDMDL
MODEL 5
REMARK VINA RESULT: -4.051700636      3.166      4.125
REMARK  1 active torsions:
REMARK  status: ('A' for Active; 'I' for Inactive)
REMARK    1  A    between atoms: C10_13  and  N1_14 
ROOT
HETATM    1  C1  UNL     1      24.797  -1.686  29.033  1.00  0.00     0.076 C 
HETATM    2  C2  UNL     1      24.622  -0.642  27.916  1.00  0.00     0.170 C 
HETATM    3  F1  UNL     1      25.613   0.315  28.178  1.00  0.00    -0.220 F 
HETATM    4  C3  UNL     1      24.907  -1.359  26.643  1.00  0.00     0.087 C 
HETATM    5  C4  UNL     1      24.309  -0.630  25.425  1.00  0.00     0.102 C 
HETATM    6 CL1  UNL     1      25.303   0.834  25.297  1.00  0.00    -0.124 Cl
HETATM    7  C5  UNL     1      22.873  -0.431  25.681  1.00  0.00     0.022 C 
HETATM    8  C6  UNL     1      22.279  -1.788  26.099  1.00  0.00     0.024 C 
HETATM    9  C7  UNL     1      22.081   0.192  24.566  1.00  0.00    -0.049 C 
HETATM   10  C8  UNL     1      21.795  -0.461  23.450  1.00  0.00    -0.006 C 
HETATM   11 BR1  UNL     1      22.442  -2.262  23.286  1.00  0.00    -0.055 Br
HETATM   12  C9  UNL     1      20.966   0.065  22.308  1.00  0.00     0.081 C 
HETATM   13  C10 UNL     1      20.444   1.438  22.514  1.00  0.00     0.207 C 
HETATM   14  C11 UNL     1      21.497   2.256  23.284  1.00  0.00     0.050 C 
HETATM   15  C12 UNL     1      21.046   3.689  23.419  1.00  0.00     0.030 C 
HETATM   16 BR2  UNL     1      23.083   2.205  22.244  1.00  0.00    -0.083 Br
HETATM   17  C13 UNL     1      21.578   1.581  24.637  1.00  0.00     0.037 C 
HETATM   18  C14 UNL     1      22.310   2.492  25.590  1.00  0.00     0.013 C 
HETATM   19  C15 UNL     1      22.849   1.865  26.803  1.00  0.00     0.032 C 
HETATM   20  C16 UNL     1      22.658   0.403  26.927  1.00  0.00     0.037 C 
HETATM   21  C17 UNL     1      21.170   0.207  27.290  1.00  0.00     0.039 C 
HETATM   22  N2  UNL     1      23.377  -0.053  28.062  1.00  0.00    -0.378 N 
ATOM     23  H2  UNL     1      22.974   0.054  28.992  1.00  0.00     0.157 HD
ENDROOT
BRANCH  13  24
HETATM   24  N1  UNL     1      19.169   1.488  23.198  1.00  0.00    -0.073 N 
ATOM     25  H13 UNL     1      19.150   2.258  23.866  1.00  0.00     0.274 HD
ATOM     26  H12 UNL     1      18.433   1.794  22.561  1.00  0.00     0.274 HD
ATOM     27  H11 UNL     1      18.908   0.612  23.653  1.00  0.00     0.274 HD
ENDBRANCH  13  24
TORSDOF 1
ENDMDL
