MODEL 1
REMARK VINA RESULT: -5.898835739      0.000      0.000
REMARK  1 active torsions:
REMARK  status: ('A' for Active; 'I' for Inactive)
REMARK    1  A    between atoms: C13_18  and  O1_19 
ROOT
HETATM    1  C1  UNL     1     -10.934   3.614  -1.981  1.00  0.00     0.020 C 
HETATM    2  C2  UNL     1     -12.121   4.037  -1.167  1.00  0.00     0.009 C 
HETATM    3  C3  UNL     1     -12.446   3.014  -0.065  1.00  0.00    -0.001 C 
HETATM    4  C4  UNL     1     -11.306   2.780   0.837  1.00  0.00     0.006 C 
HETATM    5  C5  UNL     1     -10.949   4.099   1.516  1.00  0.00     0.008 C 
HETATM    6  C6  UNL     1     -10.679   5.115   0.459  1.00  0.00     0.027 C 
HETATM    7  C7  UNL     1     -10.471   6.503   0.953  1.00  0.00     0.102 C 
HETATM    8 BR1  UNL     1     -11.428   6.813   2.598  1.00  0.00    -0.087 Br
HETATM    9  C8  UNL     1     -10.971   7.423  -0.158  1.00  0.00     0.128 C 
HETATM   10 CL1  UNL     1     -12.307   8.392   0.515  1.00  0.00    -0.100 Cl
HETATM   11 CL2  UNL     1      -9.714   8.475  -0.777  1.00  0.00    -0.100 Cl
HETATM   12  C9  UNL     1     -11.518   6.485  -1.242  1.00  0.00     0.070 C 
HETATM   13  C10 UNL     1     -11.900   5.308  -0.450  1.00  0.00     0.055 C 
HETATM   14 CL3  UNL     1     -13.262   5.708   0.599  1.00  0.00    -0.118 Cl
HETATM   15  C11 UNL     1     -12.992   1.857  -0.791  1.00  0.00     0.024 C 
HETATM   16  C12 UNL     1     -13.782   2.496  -1.923  1.00  0.00     0.087 C 
HETATM   17 BR2  UNL     1     -13.348   1.604  -3.564  1.00  0.00    -0.088 Br
HETATM   18  C13 UNL     1     -13.413   3.960  -1.937  1.00  0.00     0.143 C 
ENDROOT
BRANCH  18  19
HETATM   19  O1  UNL     1     -13.338   4.498  -3.197  1.00  0.00    -0.394 OA
ATOM     20  H1  UNL     1     -14.185   4.645  -3.600  1.00  0.00     0.210 HD
ENDBRANCH  18  19
TORSDOF 1
ENDMDL
MODEL 2
REMARK VINA RESULT: -5.808266949      1.206      1.375
REMARK  1 active torsions:
REMARK  status: ('A' for Active; 'I' for Inactive)
REMARK    1  A    between atoms: C13_18  and  O1_19 
ROOT
HETATM    1  C1  UNL     1     -10.432   4.432  -1.720  1.00  0.00     0.020 C 
HETATM    2  C2  UNL     1     -11.683   5.162  -1.327  1.00  0.00     0.009 C 
HETATM    3  C3  UNL     1     -12.496   4.374  -0.285  1.00  0.00    -0.001 C 
HETATM    4  C4  UNL     1     -11.714   4.076   0.927  1.00  0.00     0.006 C 
HETATM    5  C5  UNL     1     -11.294   5.396   1.566  1.00  0.00     0.008 C 
HETATM    6  C6  UNL     1     -10.546   6.193   0.552  1.00  0.00     0.027 C 
HETATM    7  C7  UNL     1     -10.201   7.580   0.966  1.00  0.00     0.102 C 
HETATM    8 BR1  UNL     1     -11.484   8.275   2.226  1.00  0.00    -0.087 Br
HETATM    9  C8  UNL     1     -10.184   8.409  -0.317  1.00  0.00     0.128 C 
HETATM   10 CL1  UNL     1     -11.426   9.676  -0.149  1.00  0.00    -0.100 Cl
HETATM   11 CL2  UNL     1      -8.620   9.133  -0.629  1.00  0.00    -0.100 Cl
HETATM   12  C9  UNL     1     -10.597   7.436  -1.430  1.00  0.00     0.070 C 
HETATM   13  C10 UNL     1     -11.411   6.464  -0.687  1.00  0.00     0.055 C 
HETATM   14 CL3  UNL     1     -12.894   7.233  -0.120  1.00  0.00    -0.118 Cl
HETATM   15  C11 UNL     1     -13.049   3.237  -1.038  1.00  0.00     0.024 C 
HETATM   16  C12 UNL     1     -13.356   3.838  -2.401  1.00  0.00     0.087 C 
HETATM   17 BR2  UNL     1     -12.686   2.665  -3.762  1.00  0.00    -0.088 Br
HETATM   18  C13 UNL     1     -12.707   5.200  -2.431  1.00  0.00     0.143 C 
ENDROOT
BRANCH  18  19
HETATM   19  O1  UNL     1     -12.186   5.537  -3.655  1.00  0.00    -0.394 OA
ATOM     20  H1  UNL     1     -12.747   5.305  -4.385  1.00  0.00     0.210 HD
ENDBRANCH  18  19
TORSDOF 1
ENDMDL
MODEL 3
REMARK VINA RESULT: -5.694174396      2.988      5.394
REMARK  1 active torsions:
REMARK  status: ('A' for Active; 'I' for Inactive)
REMARK    1  A    between atoms: C13_18  and  O1_19 
ROOT
HETATM    1  C1  UNL     1     -12.468   8.649  -0.452  1.00  0.00     0.020 C 
HETATM    2  C2  UNL     1     -11.344   7.825   0.103  1.00  0.00     0.009 C 
HETATM    3  C3  UNL     1     -11.453   7.674   1.630  1.00  0.00    -0.001 C 
HETATM    4  C4  UNL     1     -12.735   7.077   2.044  1.00  0.00     0.006 C 
HETATM    5  C5  UNL     1     -12.839   5.684   1.429  1.00  0.00     0.008 C 
HETATM    6  C6  UNL     1     -12.686   5.810  -0.049  1.00  0.00     0.027 C 
HETATM    7  C7  UNL     1     -12.604   4.521  -0.788  1.00  0.00     0.102 C 
HETATM    8 BR1  UNL     1     -11.849   3.129   0.311  1.00  0.00    -0.087 Br
HETATM    9  C8  UNL     1     -11.730   4.793  -2.010  1.00  0.00     0.128 C 
HETATM   10 CL1  UNL     1     -10.304   3.731  -1.893  1.00  0.00    -0.100 Cl
HETATM   11 CL2  UNL     1     -12.574   4.507  -3.519  1.00  0.00    -0.100 Cl
HETATM   12  C9  UNL     1     -11.288   6.256  -1.871  1.00  0.00     0.070 C 
HETATM   13  C10 UNL     1     -11.336   6.443  -0.415  1.00  0.00     0.055 C 
HETATM   14 CL3  UNL     1     -10.085   5.466   0.357  1.00  0.00    -0.118 Cl
HETATM   15  C11 UNL     1     -11.120   9.007   2.154  1.00  0.00     0.024 C 
HETATM   16  C12 UNL     1     -10.037   9.495   1.203  1.00  0.00     0.087 C 
HETATM   17 BR2  UNL     1     -10.440  11.293   0.673  1.00  0.00    -0.088 Br
HETATM   18  C13 UNL     1     -10.016   8.533   0.040  1.00  0.00     0.143 C 
ENDROOT
BRANCH  18  19
HETATM   19  O1  UNL     1      -9.768   9.134  -1.168  1.00  0.00    -0.394 OA
ATOM     20  H1  UNL     1     -10.524   9.575  -1.538  1.00  0.00     0.210 HD
ENDBRANCH  18  19
TORSDOF 1
ENDMDL
MODEL 4
REMARK VINA RESULT: -5.616498679      1.463      1.847
REMARK  1 active torsions:
REMARK  status: ('A' for Active; 'I' for Inactive)
REMARK    1  A    between atoms: C13_18  and  O1_19 
ROOT
HETATM    1  C1  UNL     1     -10.634   4.432  -2.370  1.00  0.00     0.020 C 
HETATM    2  C2  UNL     1     -11.770   5.175  -1.732  1.00  0.00     0.009 C 
HETATM    3  C3  UNL     1     -12.111   4.605  -0.344  1.00  0.00    -0.001 C 
HETATM    4  C4  UNL     1     -10.955   4.622   0.569  1.00  0.00     0.006 C 
HETATM    5  C5  UNL     1     -10.510   6.070   0.755  1.00  0.00     0.008 C 
HETATM    6  C6  UNL     1     -10.223   6.651  -0.587  1.00  0.00     0.027 C 
HETATM    7  C7  UNL     1      -9.929   8.109  -0.596  1.00  0.00     0.102 C 
HETATM    8 BR1  UNL     1     -10.815   9.012   0.860  1.00  0.00    -0.087 Br
HETATM    9  C8  UNL     1     -10.418   8.629  -1.946  1.00  0.00     0.128 C 
HETATM   10 CL1  UNL     1     -11.680   9.845  -1.623  1.00  0.00    -0.100 Cl
HETATM   11 CL2  UNL     1      -9.130   9.334  -2.902  1.00  0.00    -0.100 Cl
HETATM   12  C9  UNL     1     -11.047   7.413  -2.640  1.00  0.00     0.070 C 
HETATM   13  C10 UNL     1     -11.462   6.598  -1.491  1.00  0.00     0.055 C 
HETATM   14 CL3  UNL     1     -12.767   7.408  -0.621  1.00  0.00    -0.118 Cl
HETATM   15  C11 UNL     1     -12.738   3.304  -0.627  1.00  0.00     0.024 C 
HETATM   16  C12 UNL     1     -13.532   3.569  -1.898  1.00  0.00     0.087 C 
HETATM   17 BR2  UNL     1     -13.198   2.152  -3.145  1.00  0.00    -0.088 Br
HETATM   18  C13 UNL     1     -13.090   4.918  -2.412  1.00  0.00     0.143 C 
ENDROOT
BRANCH  18  19
HETATM   19  O1  UNL     1     -13.028   4.994  -3.780  1.00  0.00    -0.394 OA
ATOM     20  H1  UNL     1     -12.752   4.186  -4.195  1.00  0.00     0.210 HD
ENDBRANCH  18  19
TORSDOF 1
ENDMDL
MODEL 5
REMARK VINA RESULT: -5.596156715      3.262      5.491
REMARK  1 active torsions:
REMARK  status: ('A' for Active; 'I' for Inactive)
REMARK    1  A    between atoms: C13_18  and  O1_19 
ROOT
HETATM    1  C1  UNL     1     -13.593   6.944   2.880  1.00  0.00     0.020 C 
HETATM    2  C2  UNL     1     -12.104   6.891   2.703  1.00  0.00     0.009 C 
HETATM    3  C3  UNL     1     -11.440   5.986   3.756  1.00  0.00    -0.001 C 
HETATM    4  C4  UNL     1     -11.975   4.614   3.732  1.00  0.00     0.006 C 
HETATM    5  C5  UNL     1     -11.697   4.012   2.358  1.00  0.00     0.008 C 
HETATM    6  C6  UNL     1     -12.293   4.905   1.324  1.00  0.00     0.027 C 
HETATM    7  C7  UNL     1     -11.973   4.544  -0.084  1.00  0.00     0.102 C 
HETATM    8 BR1  UNL     1     -10.270   3.651  -0.210  1.00  0.00    -0.087 Br
HETATM    9  C8  UNL     1     -11.966   5.858  -0.863  1.00  0.00     0.128 C 
HETATM   10 CL1  UNL     1     -10.330   6.066  -1.539  1.00  0.00    -0.100 Cl
HETATM   11 CL2  UNL     1     -13.158   5.886  -2.146  1.00  0.00    -0.100 Cl
HETATM   12  C9  UNL     1     -12.226   6.948   0.185  1.00  0.00     0.070 C 
HETATM   13  C10 UNL     1     -11.701   6.319   1.404  1.00  0.00     0.055 C 
HETATM   14 CL3  UNL     1      -9.948   6.149   1.284  1.00  0.00    -0.118 Cl
HETATM   15  C11 UNL     1     -11.555   6.742   5.013  1.00  0.00     0.024 C 
HETATM   16  C12 UNL     1     -11.363   8.185   4.570  1.00  0.00     0.087 C 
HETATM   17 BR2  UNL     1     -12.726   9.268   5.375  1.00  0.00    -0.088 Br
HETATM   18  C13 UNL     1     -11.428   8.188   3.062  1.00  0.00     0.143 C 
ENDROOT
BRANCH  18  19
HETATM   19  O1  UNL     1     -12.046   9.296   2.539  1.00  0.00    -0.394 OA
ATOM     20  H1  UNL     1     -11.446   9.996   2.311  1.00  0.00     0.210 HD
ENDBRANCH  18  19
TORSDOF 1
ENDMDL
