MODEL 1
REMARK VINA RESULT: -6.095376052      0.000      0.000
REMARK  1 active torsions:
REMARK  status: ('A' for Active; 'I' for Inactive)
REMARK    1  A    between atoms: C8_8  and  C9_9 
REMARK       I    between atoms: N1_16  and  C12_17 
ROOT
HETATM    1  C1  UNL     1     -12.239   2.394  -2.578  1.00  0.00     0.038 C 
HETATM    2  C2  UNL     1     -12.372   3.780  -2.014  1.00  0.00     0.032 C 
HETATM    3  C3  UNL     1     -12.532   4.785  -3.137  1.00  0.00     0.038 C 
HETATM    4  C4  UNL     1     -13.419   3.936  -0.936  1.00  0.00     0.061 C 
HETATM    5  C5  UNL     1     -12.268   3.913   0.075  1.00  0.00     0.041 C 
HETATM    6  C6  UNL     1     -12.368   4.979   1.115  1.00  0.00     0.032 C 
HETATM    7  C7  UNL     1     -12.376   4.440   2.523  1.00  0.00     0.012 C 
HETATM    8  C8  UNL     1     -11.210   3.507   2.780  1.00  0.00     0.050 C 
HETATM    9  C10 UNL     1     -11.140   2.417   1.750  1.00  0.00     0.092 C 
HETATM   10 CL2  UNL     1     -11.361   0.796   2.500  1.00  0.00    -0.124 Cl
HETATM   11  C11 UNL     1     -12.213   2.558   0.720  1.00  0.00     0.052 C 
HETATM   12  N1  UNL     1     -11.376   4.144  -1.019  1.00  0.00    -0.318 N 
HETATM   13  C12 UNL     1     -10.032   4.567  -1.130  1.00  0.00     0.332 C 
HETATM   14  N2  UNL     1      -9.376   4.716  -2.379  1.00  0.00    -0.040 NA
HETATM   15  O1  UNL     1      -9.382   4.824  -0.091  1.00  0.00    -0.251 OA
ENDROOT
BRANCH   8  16
HETATM   16  C9  UNL     1     -11.378   2.961   4.184  1.00  0.00     0.156 C 
HETATM   17 CL1  UNL     1     -10.114   1.706   4.417  1.00  0.00    -0.093 Cl
HETATM   18 BR1  UNL     1     -11.109   4.303   5.523  1.00  0.00    -0.055 Br
HETATM   19 BR2  UNL     1     -13.080   2.066   4.396  1.00  0.00    -0.055 Br
ENDBRANCH   8  16
TORSDOF 1
ENDMDL
MODEL 2
REMARK VINA RESULT: -5.996575059      3.923      5.677
REMARK  1 active torsions:
REMARK  status: ('A' for Active; 'I' for Inactive)
REMARK    1  A    between atoms: C8_8  and  C9_9 
REMARK       I    between atoms: N1_16  and  C12_17 
ROOT
HETATM    1  C1  UNL     1     -12.969   1.723   3.684  1.00  0.00     0.038 C 
HETATM    2  C2  UNL     1     -11.601   2.305   3.474  1.00  0.00     0.032 C 
HETATM    3  C3  UNL     1     -10.835   2.316   4.781  1.00  0.00     0.038 C 
HETATM    4  C4  UNL     1     -10.811   1.695   2.339  1.00  0.00     0.061 C 
HETATM    5  C5  UNL     1     -11.183   2.935   1.520  1.00  0.00     0.041 C 
HETATM    6  C6  UNL     1     -10.029   3.525   0.777  1.00  0.00     0.032 C 
HETATM    7  C7  UNL     1     -10.263   3.623  -0.708  1.00  0.00     0.012 C 
HETATM    8  C8  UNL     1     -11.565   4.329  -1.033  1.00  0.00     0.050 C 
HETATM    9  C10 UNL     1     -12.723   3.705  -0.310  1.00  0.00     0.092 C 
HETATM   10 CL2  UNL     1     -13.920   3.020  -1.466  1.00  0.00    -0.124 Cl
HETATM   11  C11 UNL     1     -12.287   2.578   0.568  1.00  0.00     0.052 C 
HETATM   12  N1  UNL     1     -11.565   3.563   2.747  1.00  0.00    -0.318 N 
HETATM   13  C12 UNL     1     -11.819   4.897   3.140  1.00  0.00     0.332 C 
HETATM   14  N2  UNL     1     -12.193   5.247   4.464  1.00  0.00    -0.040 NA
HETATM   15  O1  UNL     1     -11.714   5.816   2.297  1.00  0.00    -0.251 OA
ENDROOT
BRANCH   8  16
HETATM   16  C9  UNL     1     -11.733   4.283  -2.538  1.00  0.00     0.156 C 
HETATM   17 CL1  UNL     1     -13.328   5.018  -2.913  1.00  0.00    -0.093 Cl
HETATM   18 BR1  UNL     1     -10.399   5.309  -3.451  1.00  0.00    -0.055 Br
HETATM   19 BR2  UNL     1     -11.807   2.461  -3.185  1.00  0.00    -0.055 Br
ENDBRANCH   8  16
TORSDOF 1
ENDMDL
MODEL 3
REMARK VINA RESULT: -5.836623036      1.550      2.010
REMARK  1 active torsions:
REMARK  status: ('A' for Active; 'I' for Inactive)
REMARK    1  A    between atoms: C8_8  and  C9_9 
REMARK       I    between atoms: N1_16  and  C12_17 
ROOT
HETATM    1  C1  UNL     1     -13.208   4.282  -1.362  1.00  0.00     0.038 C 
HETATM    2  C2  UNL     1     -12.558   5.381  -0.572  1.00  0.00     0.032 C 
HETATM    3  C3  UNL     1     -12.355   6.601  -1.447  1.00  0.00     0.038 C 
HETATM    4  C4  UNL     1     -13.230   5.709   0.742  1.00  0.00     0.061 C 
HETATM    5  C5  UNL     1     -12.112   4.911   1.421  1.00  0.00     0.041 C 
HETATM    6  C6  UNL     1     -11.526   5.600   2.609  1.00  0.00     0.032 C 
HETATM    7  C7  UNL     1     -11.603   4.781   3.872  1.00  0.00     0.012 C 
HETATM    8  C8  UNL     1     -11.028   3.391   3.683  1.00  0.00     0.050 C 
HETATM    9  C10 UNL     1     -11.650   2.694   2.509  1.00  0.00     0.092 C 
HETATM   10 CL2  UNL     1     -12.536   1.214   3.025  1.00  0.00    -0.124 Cl
HETATM   11  C11 UNL     1     -12.644   3.562   1.810  1.00  0.00     0.052 C 
HETATM   12  N1  UNL     1     -11.385   4.988   0.192  1.00  0.00    -0.318 N 
HETATM   13  C12 UNL     1     -10.038   4.772  -0.178  1.00  0.00     0.332 C 
HETATM   14  N2  UNL     1      -9.577   4.926  -1.511  1.00  0.00    -0.040 NA
HETATM   15  O1  UNL     1      -9.209   4.432   0.696  1.00  0.00    -0.251 OA
ENDROOT
BRANCH   8  16
HETATM   16  C9  UNL     1     -11.245   2.640   4.982  1.00  0.00     0.156 C 
HETATM   17 CL1  UNL     1     -13.005   2.302   5.105  1.00  0.00    -0.093 Cl
HETATM   18 BR1  UNL     1     -10.333   0.957   5.011  1.00  0.00    -0.055 Br
HETATM   19 BR2  UNL     1     -10.791   3.730   6.514  1.00  0.00    -0.055 Br
ENDBRANCH   8  16
TORSDOF 1
ENDMDL
MODEL 4
REMARK VINA RESULT: -5.643853411      2.149      3.185
REMARK  1 active torsions:
REMARK  status: ('A' for Active; 'I' for Inactive)
REMARK    1  A    between atoms: C8_8  and  C9_9 
REMARK       I    between atoms: N1_16  and  C12_17 
ROOT
HETATM    1  C1  UNL     1     -11.368   7.292  -0.595  1.00  0.00     0.038 C 
HETATM    2  C2  UNL     1     -10.881   5.946  -1.047  1.00  0.00     0.032 C 
HETATM    3  C3  UNL     1     -10.529   5.989  -2.520  1.00  0.00     0.038 C 
HETATM    4  C4  UNL     1      -9.784   5.343  -0.201  1.00  0.00     0.061 C 
HETATM    5  C5  UNL     1     -10.864   4.455   0.426  1.00  0.00     0.041 C 
HETATM    6  C6  UNL     1     -10.466   3.020   0.534  1.00  0.00     0.032 C 
HETATM    7  C7  UNL     1     -10.531   2.488   1.942  1.00  0.00     0.012 C 
HETATM    8  C8  UNL     1     -11.877   2.752   2.588  1.00  0.00     0.050 C 
HETATM    9  C10 UNL     1     -12.250   4.203   2.506  1.00  0.00     0.092 C 
HETATM   10 CL2  UNL     1     -12.398   4.931   4.145  1.00  0.00    -0.124 Cl
HETATM   11  C11 UNL     1     -11.219   5.002   1.778  1.00  0.00     0.052 C 
HETATM   12  N1  UNL     1     -11.717   4.821  -0.662  1.00  0.00    -0.318 N 
HETATM   13  C12 UNL     1     -12.923   4.306  -1.192  1.00  0.00     0.332 C 
HETATM   14  N2  UNL     1     -13.573   4.883  -2.314  1.00  0.00    -0.040 NA
HETATM   15  O1  UNL     1     -13.448   3.302  -0.660  1.00  0.00    -0.251 OA
ENDROOT
BRANCH   8  16
HETATM   16  C9  UNL     1     -11.789   2.259   4.018  1.00  0.00     0.156 C 
HETATM   17 CL1  UNL     1     -13.470   2.129   4.635  1.00  0.00    -0.093 Cl
HETATM   18 BR1  UNL     1     -10.995   0.521   4.142  1.00  0.00    -0.055 Br
HETATM   19 BR2  UNL     1     -10.890   3.542   5.153  1.00  0.00    -0.055 Br
ENDBRANCH   8  16
TORSDOF 1
ENDMDL
MODEL 5
REMARK VINA RESULT: -5.642257147      5.085      6.027
REMARK  1 active torsions:
REMARK  status: ('A' for Active; 'I' for Inactive)
REMARK    1  A    between atoms: C8_8  and  C9_9 
REMARK       I    between atoms: N1_16  and  C12_17 
ROOT
HETATM    1  C1  UNL     1     -10.050   3.575  -0.637  1.00  0.00     0.038 C 
HETATM    2  C2  UNL     1     -11.379   3.942  -0.042  1.00  0.00     0.032 C 
HETATM    3  C3  UNL     1     -12.159   2.689   0.300  1.00  0.00     0.038 C 
HETATM    4  C4  UNL     1     -11.320   4.925   1.104  1.00  0.00     0.061 C 
HETATM    5  C5  UNL     1     -11.762   5.997   0.103  1.00  0.00     0.041 C 
HETATM    6  C6  UNL     1     -12.851   6.879   0.618  1.00  0.00     0.032 C 
HETATM    7  C7  UNL     1     -12.490   8.343   0.603  1.00  0.00     0.012 C 
HETATM    8  C8  UNL     1     -11.995   8.791  -0.758  1.00  0.00     0.050 C 
HETATM    9  C10 UNL     1     -10.876   7.920  -1.250  1.00  0.00     0.092 C 
HETATM   10 CL2  UNL     1      -9.357   8.863  -1.452  1.00  0.00    -0.124 Cl
HETATM   11  C11 UNL     1     -10.568   6.818  -0.291  1.00  0.00     0.052 C 
HETATM   12  N1  UNL     1     -12.138   4.938  -0.781  1.00  0.00    -0.318 N 
HETATM   13  C12 UNL     1     -12.940   4.854  -1.942  1.00  0.00     0.332 C 
HETATM   14  N2  UNL     1     -13.148   3.637  -2.642  1.00  0.00    -0.040 NA
HETATM   15  O1  UNL     1     -13.495   5.887  -2.381  1.00  0.00    -0.251 OA
ENDROOT
BRANCH   8  16
HETATM   16  C9  UNL     1     -11.579  10.243  -0.624  1.00  0.00     0.156 C 
HETATM   17 CL1  UNL     1     -13.033  11.161  -0.105  1.00  0.00    -0.093 Cl
HETATM   18 BR1  UNL     1     -10.233  10.493   0.714  1.00  0.00    -0.055 Br
HETATM   19 BR2  UNL     1     -11.046  10.985  -2.329  1.00  0.00    -0.055 Br
ENDBRANCH   8  16
TORSDOF 1
ENDMDL
