MODEL 1
REMARK VINA RESULT: -5.329582745      0.000      0.000
REMARK  1 active torsions:
REMARK  status: ('A' for Active; 'I' for Inactive)
REMARK    1  A    between atoms: C14_18  and  O1_19 
ROOT
HETATM    1  C1  UNL     1      -9.880   7.310  -2.797  1.00  0.00     0.013 C 
HETATM    2  C2  UNL     1     -10.100   8.548  -1.909  1.00  0.00     0.019 C 
HETATM    3  C3  UNL     1      -8.842   8.973  -1.327  1.00  0.00     0.008 C 
HETATM    4  C4  UNL     1      -8.776   9.558   0.019  1.00  0.00     0.007 C 
HETATM    5  C5  UNL     1      -9.929  10.299   0.535  1.00  0.00     0.011 C 
HETATM    6  C6  UNL     1     -10.703  10.834  -0.681  1.00  0.00     0.085 C 
HETATM    7 BR1  UNL     1     -11.464  12.565  -0.330  1.00  0.00    -0.089 Br
HETATM    8  C7  UNL     1     -11.803   9.791  -0.717  1.00  0.00     0.065 C 
HETATM    9 BR2  UNL     1     -13.163  10.413  -1.916  1.00  0.00    -0.081 Br
HETATM   10  C8  UNL     1     -12.235   9.937   0.749  1.00  0.00     0.036 C 
HETATM   11  C9  UNL     1     -10.892   9.594   1.404  1.00  0.00    -0.019 C 
HETATM   12  C10 UNL     1     -10.922  10.091   2.834  1.00  0.00     0.017 C 
HETATM   13  C11 UNL     1     -10.824   8.107   1.430  1.00  0.00     0.117 C 
HETATM   14 CL1  UNL     1     -11.989   7.573   2.704  1.00  0.00    -0.122 Cl
HETATM   15  C12 UNL     1     -11.247   7.490   0.106  1.00  0.00     0.083 C 
HETATM   16  C13 UNL     1     -10.364   6.279  -0.078  1.00  0.00     0.037 C 
HETATM   17 CL2  UNL     1     -12.879   6.729   0.314  1.00  0.00    -0.115 Cl
HETATM   18  C14 UNL     1     -11.309   8.412  -1.030  1.00  0.00     0.102 C 
ENDROOT
BRANCH  18  19
HETATM   19  O1  UNL     1     -12.296   7.886  -1.921  1.00  0.00    -0.386 OA
ATOM     20  H1  UNL     1     -12.932   8.590  -1.974  1.00  0.00     0.210 HD
ENDBRANCH  18  19
TORSDOF 1
ENDMDL
MODEL 2
REMARK VINA RESULT: -5.240292561      3.940      4.987
REMARK  1 active torsions:
REMARK  status: ('A' for Active; 'I' for Inactive)
REMARK    1  A    between atoms: C14_18  and  O1_19 
ROOT
HETATM    1  C1  UNL     1     -11.329   5.758  -3.907  1.00  0.00     0.013 C 
HETATM    2  C2  UNL     1     -11.024   5.670  -2.401  1.00  0.00     0.019 C 
HETATM    3  C3  UNL     1      -9.685   5.153  -2.194  1.00  0.00     0.008 C 
HETATM    4  C4  UNL     1      -9.361   4.297  -1.045  1.00  0.00     0.007 C 
HETATM    5  C5  UNL     1     -10.117   4.451   0.200  1.00  0.00     0.011 C 
HETATM    6  C6  UNL     1     -10.651   5.894   0.228  1.00  0.00     0.085 C 
HETATM    7 BR1  UNL     1     -10.665   6.609   2.012  1.00  0.00    -0.089 Br
HETATM    8  C7  UNL     1     -12.072   5.610  -0.219  1.00  0.00     0.065 C 
HETATM    9 BR2  UNL     1     -13.111   7.192   0.086  1.00  0.00    -0.081 Br
HETATM   10  C8  UNL     1     -12.375   4.527   0.827  1.00  0.00     0.036 C 
HETATM   11  C9  UNL     1     -11.257   3.547   0.451  1.00  0.00    -0.019 C 
HETATM   12  C10 UNL     1     -11.053   2.595   1.610  1.00  0.00     0.017 C 
HETATM   13  C11 UNL     1     -11.776   2.767  -0.706  1.00  0.00     0.117 C 
HETATM   14 CL1  UNL     1     -13.024   1.645  -0.036  1.00  0.00    -0.122 Cl
HETATM   15  C12 UNL     1     -12.441   3.656  -1.746  1.00  0.00     0.083 C 
HETATM   16  C13 UNL     1     -12.107   3.037  -3.082  1.00  0.00     0.037 C 
HETATM   17 CL2  UNL     1     -14.235   3.409  -1.661  1.00  0.00    -0.115 Cl
HETATM   18  C14 UNL     1     -12.166   5.089  -1.621  1.00  0.00     0.102 C 
ENDROOT
BRANCH  18  19
HETATM   19  O1  UNL     1     -13.302   5.765  -2.165  1.00  0.00    -0.386 OA
ATOM     20  H1  UNL     1     -13.957   5.078  -2.212  1.00  0.00     0.210 HD
ENDBRANCH  18  19
TORSDOF 1
ENDMDL
MODEL 3
REMARK VINA RESULT: -4.996187516      3.858      5.870
REMARK  1 active torsions:
REMARK  status: ('A' for Active; 'I' for Inactive)
REMARK    1  A    between atoms: C14_18  and  O1_19 
ROOT
HETATM    1  C1  UNL     1     -11.914   4.548   2.026  1.00  0.00     0.013 C 
HETATM    2  C2  UNL     1     -11.577   4.090   0.595  1.00  0.00     0.019 C 
HETATM    3  C3  UNL     1     -10.175   3.733   0.505  1.00  0.00     0.008 C 
HETATM    4  C4  UNL     1      -9.398   3.970  -0.720  1.00  0.00     0.007 C 
HETATM    5  C5  UNL     1     -10.081   3.954  -2.015  1.00  0.00     0.011 C 
HETATM    6  C6  UNL     1     -11.332   3.074  -1.856  1.00  0.00     0.085 C 
HETATM    7 BR1  UNL     1     -11.703   2.074  -3.455  1.00  0.00    -0.089 Br
HETATM    8  C7  UNL     1     -12.358   4.179  -1.695  1.00  0.00     0.065 C 
HETATM    9 BR2  UNL     1     -14.099   3.392  -1.857  1.00  0.00    -0.081 Br
HETATM   10  C8  UNL     1     -11.975   4.963  -2.959  1.00  0.00     0.036 C 
HETATM   11  C9  UNL     1     -10.509   5.239  -2.604  1.00  0.00    -0.019 C 
HETATM   12  C10 UNL     1      -9.778   5.616  -3.875  1.00  0.00     0.017 C 
HETATM   13  C11 UNL     1     -10.527   6.427  -1.708  1.00  0.00     0.117 C 
HETATM   14 CL1  UNL     1     -10.913   7.845  -2.760  1.00  0.00    -0.122 Cl
HETATM   15  C12 UNL     1     -11.601   6.321  -0.636  1.00  0.00     0.083 C 
HETATM   16  C13 UNL     1     -11.009   6.962   0.596  1.00  0.00     0.037 C 
HETATM   17 CL2  UNL     1     -12.944   7.470  -1.042  1.00  0.00    -0.115 Cl
HETATM   18  C14 UNL     1     -12.177   4.988  -0.447  1.00  0.00     0.102 C 
ENDROOT
BRANCH  18  19
HETATM   19  O1  UNL     1     -13.509   5.189   0.031  1.00  0.00    -0.386 OA
ATOM     20  H1  UNL     1     -13.964   5.513  -0.737  1.00  0.00     0.210 HD
ENDBRANCH  18  19
TORSDOF 1
ENDMDL
MODEL 4
REMARK VINA RESULT: -4.840995744      3.050      4.487
REMARK  1 active torsions:
REMARK  status: ('A' for Active; 'I' for Inactive)
REMARK    1  A    between atoms: C14_18  and  O1_19 
ROOT
HETATM    1  C1  UNL     1     -12.092   2.470   0.780  1.00  0.00     0.013 C 
HETATM    2  C2  UNL     1     -11.480   3.502  -0.186  1.00  0.00     0.019 C 
HETATM    3  C3  UNL     1     -10.035   3.492  -0.074  1.00  0.00     0.008 C 
HETATM    4  C4  UNL     1      -9.243   4.719  -0.235  1.00  0.00     0.007 C 
HETATM    5  C5  UNL     1      -9.746   5.788  -1.099  1.00  0.00     0.011 C 
HETATM    6  C6  UNL     1     -10.677   5.133  -2.133  1.00  0.00     0.085 C 
HETATM    7 BR1  UNL     1     -10.552   5.996  -3.846  1.00  0.00    -0.089 Br
HETATM    8  C7  UNL     1     -12.003   5.478  -1.483  1.00  0.00     0.065 C 
HETATM    9 BR2  UNL     1     -13.392   5.116  -2.754  1.00  0.00    -0.081 Br
HETATM   10  C8  UNL     1     -11.746   6.986  -1.344  1.00  0.00     0.036 C 
HETATM   11  C9  UNL     1     -10.481   6.909  -0.481  1.00  0.00    -0.019 C 
HETATM   12  C10 UNL     1      -9.770   8.243  -0.565  1.00  0.00     0.017 C 
HETATM   13  C11 UNL     1     -10.958   6.723   0.917  1.00  0.00     0.117 C 
HETATM   14 CL1  UNL     1     -11.644   8.314   1.430  1.00  0.00    -0.122 Cl
HETATM   15  C12 UNL     1     -12.055   5.674   1.015  1.00  0.00     0.083 C 
HETATM   16  C13 UNL     1     -11.823   4.965   2.327  1.00  0.00     0.037 C 
HETATM   17 CL2  UNL     1     -13.634   6.512   1.323  1.00  0.00    -0.115 Cl
HETATM   18  C14 UNL     1     -12.212   4.812  -0.158  1.00  0.00     0.102 C 
ENDROOT
BRANCH  18  19
HETATM   19  O1  UNL     1     -13.584   4.413  -0.184  1.00  0.00    -0.386 OA
ATOM     20  H1  UNL     1     -14.042   5.235  -0.319  1.00  0.00     0.210 HD
ENDBRANCH  18  19
TORSDOF 1
ENDMDL
MODEL 5
REMARK VINA RESULT: -4.815176359      2.595      4.383
REMARK  1 active torsions:
REMARK  status: ('A' for Active; 'I' for Inactive)
REMARK    1  A    between atoms: C14_18  and  O1_19 
ROOT
HETATM    1  C1  UNL     1     -11.065  10.685   1.949  1.00  0.00     0.013 C 
HETATM    2  C2  UNL     1     -10.626   9.580   0.972  1.00  0.00     0.019 C 
HETATM    3  C3  UNL     1      -9.208   9.698   0.693  1.00  0.00     0.008 C 
HETATM    4  C4  UNL     1      -8.652   9.360  -0.625  1.00  0.00     0.007 C 
HETATM    5  C5  UNL     1      -9.318   8.345  -1.443  1.00  0.00     0.011 C 
HETATM    6  C6  UNL     1     -10.077   7.415  -0.481  1.00  0.00     0.085 C 
HETATM    7 BR1  UNL     1     -10.059   5.593  -1.095  1.00  0.00    -0.089 Br
HETATM    8  C7  UNL     1     -11.464   8.001  -0.661  1.00  0.00     0.065 C 
HETATM    9 BR2  UNL     1     -12.720   6.791   0.137  1.00  0.00    -0.081 Br
HETATM   10  C8  UNL     1     -11.497   7.915  -2.194  1.00  0.00     0.036 C 
HETATM   11  C9  UNL     1     -10.268   8.786  -2.483  1.00  0.00    -0.019 C 
HETATM   12  C10 UNL     1      -9.815   8.509  -3.901  1.00  0.00     0.017 C 
HETATM   13  C11 UNL     1     -10.746  10.194  -2.415  1.00  0.00     0.117 C 
HETATM   14 CL1  UNL     1     -11.733  10.462  -3.906  1.00  0.00    -0.122 Cl
HETATM   15  C12 UNL     1     -11.633  10.442  -1.204  1.00  0.00     0.083 C 
HETATM   16  C13 UNL     1     -11.315  11.846  -0.749  1.00  0.00     0.037 C 
HETATM   17 CL2  UNL     1     -13.349  10.615  -1.765  1.00  0.00    -0.115 Cl
HETATM   18  C14 UNL     1     -11.588   9.410  -0.167  1.00  0.00     0.102 C 
ENDROOT
BRANCH  18  19
HETATM   19  O1  UNL     1     -12.861   9.437   0.483  1.00  0.00    -0.386 OA
ATOM     20  H1  UNL     1     -13.334  10.104  -0.002  1.00  0.00     0.210 HD
ENDBRANCH  18  19
TORSDOF 1
ENDMDL
