MODEL 1
REMARK VINA RESULT: -7.041293092      0.000      0.000
REMARK  6 active torsions:
REMARK  status: ('A' for Active; 'I' for Inactive)
REMARK    1  A    between atoms: C2_2  and  C3_3 
REMARK    2  A    between atoms: C4_4  and  C5_5 
REMARK    3  A    between atoms: C6_6  and  C7_7 
REMARK    4  A    between atoms: C8_12  and  C9_13 
REMARK    5  A    between atoms: N4_15  and  N5_17 
REMARK    6  A    between atoms: C11_22  and  C12_23 
ROOT
HETATM    1  C5  UNL     1      25.617  55.536 -34.690  1.00  0.00     0.047 A 
HETATM    2  C6  UNL     1      25.046  55.735 -33.489  1.00  0.00     0.112 A 
HETATM    3  N2  UNL     1      24.417  56.915 -33.190  1.00  0.00    -0.348 N 
ATOM      4  H2  UNL     1      24.001  57.030 -32.265  1.00  0.00     0.166 HD
HETATM    5  C8  UNL     1      24.325  57.946 -34.087  1.00  0.00     0.095 A 
HETATM    6  C11 UNL     1      24.888  57.797 -35.329  1.00  0.00     0.110 A 
HETATM    7  C13 UNL     1      25.527  56.579 -35.610  1.00  0.00     0.202 A 
HETATM    8  O3  UNL     1      26.035  56.440 -36.744  1.00  0.00    -0.286 OA
ENDROOT
BRANCH   5   9
HETATM    9  C9  UNL     1      23.469  59.073 -33.776  1.00  0.00     0.159 C 
HETATM   10  N3  UNL     1      22.010  58.966 -33.948  1.00  0.00    -0.079 NA
HETATM   11  N4  UNL     1      23.810  60.151 -33.252  1.00  0.00    -0.284 N 
ATOM     12  H4  UNL     1      23.016  60.782 -33.138  1.00  0.00     0.188 HD
BRANCH  11  13
HETATM   13  N5  UNL     1      24.931  60.688 -32.804  1.00  0.00    -0.275 N 
HETATM   14  C10 UNL     1      25.263  60.671 -31.540  1.00  0.00     0.215 C 
HETATM   15  N6  UNL     1      26.491  61.284 -31.203  1.00  0.00    -0.065 NA
HETATM   16  N7  UNL     1      24.430  60.069 -30.567  1.00  0.00    -0.065 NA
ATOM     17  H5  UNL     1      25.561  61.133 -33.471  1.00  0.00     0.189 HD
ENDBRANCH  11  13
ENDBRANCH   5   9
BRANCH   6  18
HETATM   18  C12 UNL     1      25.050  58.838 -36.330  1.00  0.00     0.271 C 
HETATM   19  N8  UNL     1      26.278  59.551 -36.335  1.00  0.00    -0.057 NA
HETATM   20  O2  UNL     1      24.190  59.125 -37.157  1.00  0.00    -0.271 OA
ENDBRANCH   6  18
BRANCH   2  21
HETATM   21  C7  UNL     1      24.838  54.665 -32.513  1.00  0.00     0.282 C 
HETATM   22  N1  UNL     1      23.770  53.767 -32.660  1.00  0.00    -0.056 NA
HETATM   23  O1  UNL     1      25.612  54.570 -31.549  1.00  0.00    -0.269 OA
ENDBRANCH   2  21
BRANCH   1  24
HETATM   24  C4  UNL     1      26.506  54.441 -35.068  1.00  0.00     0.018 C 
HETATM   25  C3  UNL     1      26.214  53.322 -35.598  1.00  0.00     0.000 C 
BRANCH  25  26
HETATM   26  C2  UNL     1      24.915  52.787 -35.969  1.00  0.00    -0.010 C 
HETATM   27  C1  UNL     1      24.363  51.796 -35.283  1.00  0.00     0.011 C 
ENDBRANCH  25  26
ENDBRANCH   1  24
TORSDOF 6
ENDMDL
MODEL 2
REMARK VINA RESULT: -6.946538494      2.844      6.251
REMARK  6 active torsions:
REMARK  status: ('A' for Active; 'I' for Inactive)
REMARK    1  A    between atoms: C2_2  and  C3_3 
REMARK    2  A    between atoms: C4_4  and  C5_5 
REMARK    3  A    between atoms: C6_6  and  C7_7 
REMARK    4  A    between atoms: C8_12  and  C9_13 
REMARK    5  A    between atoms: N4_15  and  N5_17 
REMARK    6  A    between atoms: C11_22  and  C12_23 
ROOT
HETATM    1  C5  UNL     1      24.716  59.692 -31.913  1.00  0.00     0.047 A 
HETATM    2  C6  UNL     1      25.801  60.056 -32.618  1.00  0.00     0.112 A 
HETATM    3  N2  UNL     1      26.058  59.515 -33.852  1.00  0.00    -0.348 N 
ATOM      4  H2  UNL     1      26.895  59.812 -34.354  1.00  0.00     0.166 HD
HETATM    5  C8  UNL     1      25.231  58.592 -34.436  1.00  0.00     0.095 A 
HETATM    6  C11 UNL     1      24.108  58.186 -33.761  1.00  0.00     0.110 A 
HETATM    7  C13 UNL     1      23.868  58.754 -32.499  1.00  0.00     0.202 A 
HETATM    8  O3  UNL     1      22.842  58.389 -31.887  1.00  0.00    -0.286 OA
ENDROOT
BRANCH   5   9
HETATM    9  C9  UNL     1      25.454  58.226 -35.820  1.00  0.00     0.159 C 
HETATM   10  N3  UNL     1      25.466  59.261 -36.868  1.00  0.00    -0.079 NA
HETATM   11  N4  UNL     1      25.760  57.100 -36.258  1.00  0.00    -0.284 N 
ATOM     12  H4  UNL     1      25.860  57.105 -37.273  1.00  0.00     0.188 HD
BRANCH  11  13
HETATM   13  N5  UNL     1      25.988  55.902 -35.749  1.00  0.00    -0.275 N 
HETATM   14  C10 UNL     1      26.289  54.869 -36.492  1.00  0.00     0.215 C 
HETATM   15  N6  UNL     1      26.507  53.649 -35.813  1.00  0.00    -0.065 NA
HETATM   16  N7  UNL     1      26.389  54.977 -37.899  1.00  0.00    -0.065 NA
ATOM     17  H5  UNL     1      25.927  55.779 -34.739  1.00  0.00     0.189 HD
ENDBRANCH  11  13
ENDBRANCH   5   9
BRANCH   6  18
HETATM   18  C12 UNL     1      23.228  57.093 -34.136  1.00  0.00     0.271 C 
HETATM   19  N8  UNL     1      23.698  55.772 -33.910  1.00  0.00    -0.057 NA
HETATM   20  O2  UNL     1      22.116  57.255 -34.630  1.00  0.00    -0.271 OA
ENDBRANCH   6  18
BRANCH   2  21
HETATM   21  C7  UNL     1      26.646  61.195 -32.261  1.00  0.00     0.282 C 
HETATM   22  N1  UNL     1      27.831  61.002 -31.535  1.00  0.00    -0.056 NA
HETATM   23  O1  UNL     1      26.295  62.335 -32.601  1.00  0.00    -0.269 OA
ENDBRANCH   2  21
BRANCH   1  24
HETATM   24  C4  UNL     1      24.435  60.002 -30.514  1.00  0.00     0.018 C 
HETATM   25  C3  UNL     1      24.778  59.360 -29.470  1.00  0.00     0.000 C 
BRANCH  25  26
HETATM   26  C2  UNL     1      25.533  58.124 -29.351  1.00  0.00    -0.010 C 
HETATM   27  C1  UNL     1      25.433  57.363 -28.271  1.00  0.00     0.011 C 
ENDBRANCH  25  26
ENDBRANCH   1  24
TORSDOF 6
ENDMDL
MODEL 3
REMARK VINA RESULT: -6.822878856      5.096      7.639
REMARK  6 active torsions:
REMARK  status: ('A' for Active; 'I' for Inactive)
REMARK    1  A    between atoms: C2_2  and  C3_3 
REMARK    2  A    between atoms: C4_4  and  C5_5 
REMARK    3  A    between atoms: C6_6  and  C7_7 
REMARK    4  A    between atoms: C8_12  and  C9_13 
REMARK    5  A    between atoms: N4_15  and  N5_17 
REMARK    6  A    between atoms: C11_22  and  C12_23 
ROOT
HETATM    1  C5  UNL     1      26.087  60.879 -30.133  1.00  0.00     0.047 A 
HETATM    2  C6  UNL     1      26.227  60.069 -29.069  1.00  0.00     0.112 A 
HETATM    3  N2  UNL     1      27.433  59.938 -28.432  1.00  0.00    -0.348 N 
ATOM      4  H2  UNL     1      27.500  59.309 -27.631  1.00  0.00     0.166 HD
HETATM    5  C8  UNL     1      28.552  60.622 -28.829  1.00  0.00     0.095 A 
HETATM    6  C11 UNL     1      28.467  61.464 -29.909  1.00  0.00     0.110 A 
HETATM    7  C13 UNL     1      27.220  61.580 -30.545  1.00  0.00     0.202 A 
HETATM    8  O3  UNL     1      27.140  62.351 -31.525  1.00  0.00    -0.286 OA
ENDROOT
BRANCH   5   9
HETATM    9  C9  UNL     1      29.729  60.593 -27.985  1.00  0.00     0.159 C 
HETATM   10  N3  UNL     1      30.670  59.462 -28.061  1.00  0.00    -0.079 NA
HETATM   11  N4  UNL     1      30.135  61.501 -27.234  1.00  0.00    -0.284 N 
ATOM     12  H4  UNL     1      30.990  61.232 -26.746  1.00  0.00     0.188 HD
BRANCH  11  13
HETATM   13  N5  UNL     1      29.745  62.719 -26.905  1.00  0.00    -0.275 N 
HETATM   14  C10 UNL     1      29.209  62.997 -25.745  1.00  0.00     0.215 C 
HETATM   15  N6  UNL     1      28.840  64.344 -25.529  1.00  0.00    -0.065 NA
HETATM   16  N7  UNL     1      29.013  61.995 -24.765  1.00  0.00    -0.065 NA
ATOM     17  H5  UNL     1      29.868  63.472 -27.581  1.00  0.00     0.189 HD
ENDBRANCH  11  13
ENDBRANCH   5   9
BRANCH   6  18
HETATM   18  C12 UNL     1      29.577  62.117 -30.579  1.00  0.00     0.271 C 
HETATM   19  N8  UNL     1      29.962  63.398 -30.103  1.00  0.00    -0.057 NA
HETATM   20  O2  UNL     1      30.188  61.622 -31.522  1.00  0.00    -0.271 OA
ENDBRANCH   6  18
BRANCH   2  21
HETATM   21  C7  UNL     1      25.094  59.464 -28.368  1.00  0.00     0.282 C 
HETATM   22  N1  UNL     1      24.627  58.193 -28.737  1.00  0.00    -0.056 NA
HETATM   23  O1  UNL     1      24.548  60.094 -27.450  1.00  0.00    -0.269 OA
ENDBRANCH   2  21
BRANCH   1  24
HETATM   24  C4  UNL     1      24.945  60.946 -31.041  1.00  0.00     0.018 C 
HETATM   25  C3  UNL     1      24.592  60.120 -31.942  1.00  0.00     0.000 C 
BRANCH  25  26
HETATM   26  C2  UNL     1      25.220  58.874 -32.351  1.00  0.00    -0.010 C 
HETATM   27  C1  UNL     1      26.142  58.855 -33.303  1.00  0.00     0.011 C 
ENDBRANCH  25  26
ENDBRANCH   1  24
TORSDOF 6
ENDMDL
MODEL 4
REMARK VINA RESULT: -6.753510995      2.736      6.127
REMARK  6 active torsions:
REMARK  status: ('A' for Active; 'I' for Inactive)
REMARK    1  A    between atoms: C2_2  and  C3_3 
REMARK    2  A    between atoms: C4_4  and  C5_5 
REMARK    3  A    between atoms: C6_6  and  C7_7 
REMARK    4  A    between atoms: C8_12  and  C9_13 
REMARK    5  A    between atoms: N4_15  and  N5_17 
REMARK    6  A    between atoms: C11_22  and  C12_23 
ROOT
HETATM    1  C5  UNL     1      24.362  58.960 -31.904  1.00  0.00     0.047 A 
HETATM    2  C6  UNL     1      24.779  57.998 -31.061  1.00  0.00     0.112 A 
HETATM    3  N2  UNL     1      24.739  56.675 -31.420  1.00  0.00    -0.348 N 
ATOM      4  H2  UNL     1      25.059  55.975 -30.751  1.00  0.00     0.166 HD
HETATM    5  C8  UNL     1      24.287  56.260 -32.645  1.00  0.00     0.095 A 
HETATM    6  C11 UNL     1      23.851  57.200 -33.545  1.00  0.00     0.110 A 
HETATM    7  C13 UNL     1      23.901  58.547 -33.153  1.00  0.00     0.202 A 
HETATM    8  O3  UNL     1      23.511  59.403 -33.975  1.00  0.00    -0.286 OA
ENDROOT
BRANCH   5   9
HETATM    9  C9  UNL     1      24.470  54.875 -33.029  1.00  0.00     0.159 C 
HETATM   10  N3  UNL     1      23.736  53.808 -32.326  1.00  0.00    -0.079 NA
HETATM   11  N4  UNL     1      25.122  54.446 -33.999  1.00  0.00    -0.284 N 
ATOM     12  H4  UNL     1      25.095  53.427 -34.051  1.00  0.00     0.188 HD
BRANCH  11  13
HETATM   13  N5  UNL     1      25.840  54.966 -34.978  1.00  0.00    -0.275 N 
HETATM   14  C10 UNL     1      26.074  54.327 -36.095  1.00  0.00     0.215 C 
HETATM   15  N6  UNL     1      26.858  55.006 -37.056  1.00  0.00    -0.065 NA
HETATM   16  N7  UNL     1      25.565  53.027 -36.320  1.00  0.00    -0.065 NA
ATOM     17  H5  UNL     1      26.226  55.902 -34.859  1.00  0.00     0.189 HD
ENDBRANCH  11  13
ENDBRANCH   5   9
BRANCH   6  18
HETATM   18  C12 UNL     1      23.173  56.936 -34.802  1.00  0.00     0.271 C 
HETATM   19  N8  UNL     1      21.832  56.472 -34.734  1.00  0.00    -0.057 NA
HETATM   20  O2  UNL     1      23.695  57.092 -35.902  1.00  0.00    -0.271 OA
ENDBRANCH   6  18
BRANCH   2  21
HETATM   21  C7  UNL     1      25.512  58.275 -29.826  1.00  0.00     0.282 C 
HETATM   22  N1  UNL     1      25.253  57.534 -28.664  1.00  0.00    -0.056 NA
HETATM   23  O1  UNL     1      26.359  59.181 -29.820  1.00  0.00    -0.269 OA
ENDBRANCH   2  21
BRANCH   1  24
HETATM   24  C4  UNL     1      24.133  60.366 -31.585  1.00  0.00     0.018 C 
HETATM   25  C3  UNL     1      24.873  61.371 -31.828  1.00  0.00     0.000 C 
BRANCH  25  26
HETATM   26  C2  UNL     1      26.173  61.426 -32.478  1.00  0.00    -0.010 C 
HETATM   27  C1  UNL     1      26.984  62.458 -32.297  1.00  0.00     0.011 C 
ENDBRANCH  25  26
ENDBRANCH   1  24
TORSDOF 6
ENDMDL
MODEL 5
REMARK VINA RESULT: -6.736206267      1.639      3.514
REMARK  6 active torsions:
REMARK  status: ('A' for Active; 'I' for Inactive)
REMARK    1  A    between atoms: C2_2  and  C3_3 
REMARK    2  A    between atoms: C4_4  and  C5_5 
REMARK    3  A    between atoms: C6_6  and  C7_7 
REMARK    4  A    between atoms: C8_12  and  C9_13 
REMARK    5  A    between atoms: N4_15  and  N5_17 
REMARK    6  A    between atoms: C11_22  and  C12_23 
ROOT
HETATM    1  C5  UNL     1      26.171  55.693 -36.045  1.00  0.00     0.047 A 
HETATM    2  C6  UNL     1      25.567  56.666 -36.749  1.00  0.00     0.112 A 
HETATM    3  N2  UNL     1      24.721  57.558 -36.143  1.00  0.00    -0.348 N 
ATOM      4  H2  UNL     1      24.277  58.279 -36.713  1.00  0.00     0.166 HD
HETATM    5  C8  UNL     1      24.449  57.518 -34.801  1.00  0.00     0.095 A 
HETATM    6  C11 UNL     1      25.040  56.546 -34.033  1.00  0.00     0.110 A 
HETATM    7  C13 UNL     1      25.902  55.644 -34.678  1.00  0.00     0.202 A 
HETATM    8  O3  UNL     1      26.445  54.763 -33.978  1.00  0.00    -0.286 OA
ENDROOT
BRANCH   5   9
HETATM    9  C9  UNL     1      23.716  58.613 -34.200  1.00  0.00     0.159 C 
HETATM   10  N3  UNL     1      22.251  58.538 -34.063  1.00  0.00    -0.079 NA
HETATM   11  N4  UNL     1      24.194  59.625 -33.653  1.00  0.00    -0.284 N 
ATOM     12  H4  UNL     1      23.464  60.248 -33.308  1.00  0.00     0.188 HD
BRANCH  11  13
HETATM   13  N5  UNL     1      25.401  60.101 -33.405  1.00  0.00    -0.275 N 
HETATM   14  C10 UNL     1      25.721  60.645 -32.260  1.00  0.00     0.215 C 
HETATM   15  N6  UNL     1      27.049  61.112 -32.134  1.00  0.00    -0.065 NA
HETATM   16  N7  UNL     1      24.781  60.754 -31.208  1.00  0.00    -0.065 NA
ATOM     17  H5  UNL     1      26.111  60.043 -34.135  1.00  0.00     0.189 HD
ENDBRANCH  11  13
ENDBRANCH   5   9
BRANCH   6  18
HETATM   18  C12 UNL     1      24.729  56.237 -32.649  1.00  0.00     0.271 C 
HETATM   19  N8  UNL     1      25.182  57.151 -31.661  1.00  0.00    -0.057 NA
HETATM   20  O2  UNL     1      24.103  55.241 -32.299  1.00  0.00    -0.271 OA
ENDBRANCH   6  18
BRANCH   2  21
HETATM   21  C7  UNL     1      25.931  57.004 -38.125  1.00  0.00     0.282 C 
HETATM   22  N1  UNL     1      27.063  57.789 -38.389  1.00  0.00    -0.056 NA
HETATM   23  O1  UNL     1      25.218  56.595 -39.054  1.00  0.00    -0.269 OA
ENDBRANCH   2  21
BRANCH   1  24
HETATM   24  C4  UNL     1      26.904  54.549 -36.580  1.00  0.00     0.018 C 
HETATM   25  C3  UNL     1      26.480  53.377 -36.835  1.00  0.00     0.000 C 
BRANCH  25  26
HETATM   26  C2  UNL     1      25.150  52.817 -36.657  1.00  0.00    -0.010 C 
HETATM   27  C1  UNL     1      24.833  52.148 -35.558  1.00  0.00     0.011 C 
ENDBRANCH  25  26
ENDBRANCH   1  24
TORSDOF 6
ENDMDL
