MODEL 1
REMARK VINA RESULT: -7.161151068      0.000      0.000
REMARK  6 active torsions:
REMARK  status: ('A' for Active; 'I' for Inactive)
REMARK    1  A    between atoms: C1_2  and  C2_4 
REMARK    2  A    between atoms: C2_4  and  N2_5 
REMARK    3  A    between atoms: C2_4  and  C3_9 
REMARK    4  A    between atoms: C3_9  and  N3_10 
REMARK    5  A    between atoms: C3_9  and  C11_23 
REMARK       I    between atoms: N3_10  and  C4_12 
REMARK       I    between atoms: C4_12  and  N4_14 
REMARK    6  A    between atoms: C9_19  and  C10_20 
ROOT
HETATM    1  N3  UNL     1      24.542  56.908 -32.948  1.00  0.00    -0.326 N 
ATOM      2  H3  UNL     1      25.558  56.938 -33.038  1.00  0.00     0.165 HD
HETATM    3  C4  UNL     1      23.884  55.779 -33.419  1.00  0.00     0.319 C 
HETATM    4  O2  UNL     1      22.596  55.674 -33.332  1.00  0.00    -0.247 OA
HETATM    5  N4  UNL     1      24.537  54.689 -34.007  1.00  0.00    -0.321 N 
HETATM    6  C5  UNL     1      25.959  54.651 -34.182  1.00  0.00     0.128 C 
HETATM    7  C6  UNL     1      26.291  54.460 -35.656  1.00  0.00     0.020 C 
HETATM    8  C7  UNL     1      25.621  53.252 -36.221  1.00  0.00     0.004 C 
HETATM    9  C8  UNL     1      24.685  52.579 -35.275  1.00  0.00     0.035 C 
HETATM   10  C9  UNL     1      23.821  53.505 -34.484  1.00  0.00     0.178 C 
ENDROOT
BRANCH   1  11
HETATM   11  C3  UNL     1      23.881  58.050 -32.336  1.00  0.00     0.226 C 
BRANCH  11  12
HETATM   12  C2  UNL     1      24.188  59.343 -33.026  1.00  0.00     0.304 C 
BRANCH  12  13
HETATM   13  C1  UNL     1      25.548  59.263 -33.583  1.00  0.00     0.264 C 
HETATM   14  N1  UNL     1      25.745  58.820 -34.900  1.00  0.00    -0.060 NA
HETATM   15  O1  UNL     1      26.527  59.589 -32.885  1.00  0.00    -0.274 OA
ENDBRANCH  12  13
BRANCH  12  16
HETATM   16  N2  UNL     1      23.269  59.690 -34.058  1.00  0.00    -0.064 N 
ATOM     17  H23 UNL     1      23.485  60.595 -34.477  1.00  0.00     0.275 HD
ATOM     18  H22 UNL     1      23.387  59.112 -34.889  1.00  0.00     0.275 HD
ATOM     19  H21 UNL     1      22.317  59.652 -33.694  1.00  0.00     0.275 HD
ENDBRANCH  12  16
ENDBRANCH  11  12
BRANCH  11  20
HETATM   20  C11 UNL     1      24.288  58.086 -30.909  1.00  0.00     0.199 C 
HETATM   21  O4  UNL     1      25.220  57.343 -30.455  1.00  0.00    -0.646 OA
HETATM   22  O5  UNL     1      23.691  58.923 -29.977  1.00  0.00    -0.646 OA
ENDBRANCH  11  20
ENDBRANCH   1  11
BRANCH  10  23
HETATM   23  C10 UNL     1      23.277  52.726 -33.328  1.00  0.00     0.254 C 
HETATM   24  N5  UNL     1      22.306  51.699 -33.483  1.00  0.00    -0.060 NA
HETATM   25  O3  UNL     1      23.666  52.956 -32.154  1.00  0.00    -0.275 OA
ENDBRANCH  10  23
TORSDOF 6
ENDMDL
MODEL 2
REMARK VINA RESULT: -6.853816132      2.672      5.816
REMARK  6 active torsions:
REMARK  status: ('A' for Active; 'I' for Inactive)
REMARK    1  A    between atoms: C1_2  and  C2_4 
REMARK    2  A    between atoms: C2_4  and  N2_5 
REMARK    3  A    between atoms: C2_4  and  C3_9 
REMARK    4  A    between atoms: C3_9  and  N3_10 
REMARK    5  A    between atoms: C3_9  and  C11_23 
REMARK       I    between atoms: N3_10  and  C4_12 
REMARK       I    between atoms: C4_12  and  N4_14 
REMARK    6  A    between atoms: C9_19  and  C10_20 
ROOT
HETATM    1  N3  UNL     1      24.209  57.759 -33.608  1.00  0.00    -0.326 N 
ATOM      2  H3  UNL     1      23.695  58.561 -33.972  1.00  0.00     0.165 HD
HETATM    3  C4  UNL     1      24.861  57.907 -32.390  1.00  0.00     0.319 C 
HETATM    4  O2  UNL     1      25.528  56.927 -31.869  1.00  0.00    -0.247 OA
HETATM    5  N4  UNL     1      24.851  59.091 -31.644  1.00  0.00    -0.321 N 
HETATM    6  C5  UNL     1      24.164  60.269 -32.084  1.00  0.00     0.128 C 
HETATM    7  C6  UNL     1      25.144  61.431 -32.183  1.00  0.00     0.020 C 
HETATM    8  C7  UNL     1      25.871  61.649 -30.899  1.00  0.00     0.004 C 
HETATM    9  C8  UNL     1      25.585  60.623 -29.855  1.00  0.00     0.035 C 
HETATM   10  C9  UNL     1      25.537  59.217 -30.357  1.00  0.00     0.178 C 
ENDROOT
BRANCH   1  11
HETATM   11  C3  UNL     1      24.209  56.537 -34.398  1.00  0.00     0.226 C 
BRANCH  11  12
HETATM   12  C2  UNL     1      24.727  56.740 -35.788  1.00  0.00     0.304 C 
BRANCH  12  13
HETATM   13  C1  UNL     1      24.854  58.186 -36.033  1.00  0.00     0.264 C 
HETATM   14  N1  UNL     1      26.061  58.845 -35.754  1.00  0.00    -0.060 NA
HETATM   15  O1  UNL     1      23.888  58.828 -36.489  1.00  0.00    -0.274 OA
ENDBRANCH  12  13
BRANCH  12  16
HETATM   16  N2  UNL     1      25.973  56.101 -36.049  1.00  0.00    -0.064 N 
ATOM     17  H23 UNL     1      26.594  56.683 -36.611  1.00  0.00     0.275 HD
ATOM     18  H22 UNL     1      26.554  56.034 -35.213  1.00  0.00     0.275 HD
ATOM     19  H21 UNL     1      25.807  55.190 -36.477  1.00  0.00     0.275 HD
ENDBRANCH  12  16
ENDBRANCH  11  12
BRANCH  11  20
HETATM   20  C11 UNL     1      22.820  56.014 -34.407  1.00  0.00     0.199 C 
HETATM   21  O4  UNL     1      21.830  56.737 -34.760  1.00  0.00    -0.646 OA
HETATM   22  O5  UNL     1      22.502  54.714 -34.039  1.00  0.00    -0.646 OA
ENDBRANCH  11  20
ENDBRANCH   1  11
BRANCH  10  23
HETATM   23  C10 UNL     1      24.842  58.397 -29.316  1.00  0.00     0.254 C 
HETATM   24  N5  UNL     1      25.500  57.375 -28.579  1.00  0.00    -0.060 NA
HETATM   25  O3  UNL     1      23.628  58.586 -29.049  1.00  0.00    -0.275 OA
ENDBRANCH  10  23
TORSDOF 6
ENDMDL
MODEL 3
REMARK VINA RESULT: -6.745308060      2.589      4.078
REMARK  6 active torsions:
REMARK  status: ('A' for Active; 'I' for Inactive)
REMARK    1  A    between atoms: C1_2  and  C2_4 
REMARK    2  A    between atoms: C2_4  and  N2_5 
REMARK    3  A    between atoms: C2_4  and  C3_9 
REMARK    4  A    between atoms: C3_9  and  N3_10 
REMARK    5  A    between atoms: C3_9  and  C11_23 
REMARK       I    between atoms: N3_10  and  C4_12 
REMARK       I    between atoms: C4_12  and  N4_14 
REMARK    6  A    between atoms: C9_19  and  C10_20 
ROOT
HETATM    1  N3  UNL     1      24.678  57.287 -31.198  1.00  0.00    -0.326 N 
ATOM      2  H3  UNL     1      23.830  56.835 -30.856  1.00  0.00     0.165 HD
HETATM    3  C4  UNL     1      25.169  56.891 -32.435  1.00  0.00     0.319 C 
HETATM    4  O2  UNL     1      26.240  57.427 -32.930  1.00  0.00    -0.247 OA
HETATM    5  N4  UNL     1      24.567  55.911 -33.232  1.00  0.00    -0.321 N 
HETATM    6  C5  UNL     1      23.379  55.217 -32.826  1.00  0.00     0.128 C 
HETATM    7  C6  UNL     1      23.642  53.717 -32.800  1.00  0.00     0.020 C 
HETATM    8  C7  UNL     1      24.163  53.226 -34.109  1.00  0.00     0.004 C 
HETATM    9  C8  UNL     1      24.432  54.307 -35.101  1.00  0.00     0.035 C 
HETATM   10  C9  UNL     1      25.097  55.520 -34.538  1.00  0.00     0.178 C 
ENDROOT
BRANCH   1  11
HETATM   11  C3  UNL     1      25.292  58.303 -30.356  1.00  0.00     0.226 C 
BRANCH  11  12
HETATM   12  C2  UNL     1      24.810  58.258 -28.939  1.00  0.00     0.304 C 
BRANCH  12  13
HETATM   13  C1  UNL     1      25.520  59.294 -28.171  1.00  0.00     0.264 C 
HETATM   14  N1  UNL     1      26.913  59.222 -28.011  1.00  0.00    -0.060 NA
HETATM   15  O1  UNL     1      24.885  60.237 -27.662  1.00  0.00    -0.274 OA
ENDBRANCH  12  13
BRANCH  12  16
HETATM   16  N2  UNL     1      23.405  58.434 -28.791  1.00  0.00    -0.064 N 
ATOM     17  H23 UNL     1      23.069  58.108 -27.884  1.00  0.00     0.275 HD
ATOM     18  H22 UNL     1      23.147  59.416 -28.697  1.00  0.00     0.275 HD
ATOM     19  H21 UNL     1      22.921  57.980 -29.566  1.00  0.00     0.275 HD
ENDBRANCH  12  16
ENDBRANCH  11  12
BRANCH  11  20
HETATM   20  C11 UNL     1      25.017  59.622 -30.980  1.00  0.00     0.199 C 
HETATM   21  O4  UNL     1      23.848  59.955 -31.366  1.00  0.00    -0.646 OA
HETATM   22  O5  UNL     1      26.002  60.578 -31.185  1.00  0.00    -0.646 OA
ENDBRANCH  11  20
ENDBRANCH   1  11
BRANCH  10  23
HETATM   23  C10 UNL     1      24.911  56.628 -35.527  1.00  0.00     0.254 C 
HETATM   24  N5  UNL     1      23.696  57.358 -35.641  1.00  0.00    -0.060 NA
HETATM   25  O3  UNL     1      25.839  56.961 -36.307  1.00  0.00    -0.275 OA
ENDBRANCH  10  23
TORSDOF 6
ENDMDL
MODEL 4
REMARK VINA RESULT: -6.723961963      2.664      4.280
REMARK  6 active torsions:
REMARK  status: ('A' for Active; 'I' for Inactive)
REMARK    1  A    between atoms: C1_2  and  C2_4 
REMARK    2  A    between atoms: C2_4  and  N2_5 
REMARK    3  A    between atoms: C2_4  and  C3_9 
REMARK    4  A    between atoms: C3_9  and  N3_10 
REMARK    5  A    between atoms: C3_9  and  C11_23 
REMARK       I    between atoms: N3_10  and  C4_12 
REMARK       I    between atoms: C4_12  and  N4_14 
REMARK    6  A    between atoms: C9_19  and  C10_20 
ROOT
HETATM    1  N3  UNL     1      24.398  57.642 -31.190  1.00  0.00    -0.326 N 
ATOM      2  H3  UNL     1      23.536  57.171 -30.915  1.00  0.00     0.165 HD
HETATM    3  C4  UNL     1      25.013  57.232 -32.366  1.00  0.00     0.319 C 
HETATM    4  O2  UNL     1      26.108  57.791 -32.775  1.00  0.00    -0.247 OA
HETATM    5  N4  UNL     1      24.517  56.214 -33.188  1.00  0.00    -0.321 N 
HETATM    6  C5  UNL     1      23.318  55.493 -32.874  1.00  0.00     0.128 C 
HETATM    7  C6  UNL     1      23.622  54.003 -32.784  1.00  0.00     0.020 C 
HETATM    8  C7  UNL     1      24.276  53.498 -34.026  1.00  0.00     0.004 C 
HETATM    9  C8  UNL     1      24.604  54.563 -35.018  1.00  0.00     0.035 C 
HETATM   10  C9  UNL     1      25.177  55.809 -34.429  1.00  0.00     0.178 C 
ENDROOT
BRANCH   1  11
HETATM   11  C3  UNL     1      24.901  58.697 -30.323  1.00  0.00     0.226 C 
BRANCH  11  12
HETATM   12  C2  UNL     1      24.326  58.642 -28.941  1.00  0.00     0.304 C 
BRANCH  12  13
HETATM   13  C1  UNL     1      25.037  57.601 -28.181  1.00  0.00     0.264 C 
HETATM   14  N1  UNL     1      24.941  57.561 -26.782  1.00  0.00    -0.060 NA
HETATM   15  O1  UNL     1      25.727  56.754 -28.780  1.00  0.00    -0.274 OA
ENDBRANCH  12  13
BRANCH  12  16
HETATM   16  N2  UNL     1      24.386  59.876 -28.232  1.00  0.00    -0.064 N 
ATOM     17  H23 UNL     1      24.710  60.643 -28.820  1.00  0.00     0.275 HD
ATOM     18  H22 UNL     1      23.458  60.240 -28.014  1.00  0.00     0.275 HD
ATOM     19  H21 UNL     1      24.961  59.761 -27.397  1.00  0.00     0.275 HD
ENDBRANCH  12  16
ENDBRANCH  11  12
BRANCH  11  20
HETATM   20  C11 UNL     1      24.604  59.993 -30.983  1.00  0.00     0.199 C 
HETATM   21  O4  UNL     1      23.798  60.078 -31.968  1.00  0.00    -0.646 OA
HETATM   22  O5  UNL     1      25.174  61.192 -30.580  1.00  0.00    -0.646 OA
ENDBRANCH  11  20
ENDBRANCH   1  11
BRANCH  10  23
HETATM   23  C10 UNL     1      25.050  56.887 -35.460  1.00  0.00     0.254 C 
HETATM   24  N5  UNL     1      23.816  57.535 -35.744  1.00  0.00    -0.060 NA
HETATM   25  O3  UNL     1      26.048  57.266 -36.125  1.00  0.00    -0.275 OA
ENDBRANCH  10  23
TORSDOF 6
ENDMDL
MODEL 5
REMARK VINA RESULT: -6.619429612      2.168      2.716
REMARK  6 active torsions:
REMARK  status: ('A' for Active; 'I' for Inactive)
REMARK    1  A    between atoms: C1_2  and  C2_4 
REMARK    2  A    between atoms: C2_4  and  N2_5 
REMARK    3  A    between atoms: C2_4  and  C3_9 
REMARK    4  A    between atoms: C3_9  and  N3_10 
REMARK    5  A    between atoms: C3_9  and  C11_23 
REMARK       I    between atoms: N3_10  and  C4_12 
REMARK       I    between atoms: C4_12  and  N4_14 
REMARK    6  A    between atoms: C9_19  and  C10_20 
ROOT
HETATM    1  N3  UNL     1      24.605  58.105 -31.295  1.00  0.00    -0.326 N 
ATOM      2  H3  UNL     1      25.271  57.499 -30.817  1.00  0.00     0.165 HD
HETATM    3  C4  UNL     1      24.133  57.697 -32.536  1.00  0.00     0.319 C 
HETATM    4  O2  UNL     1      23.282  58.418 -33.195  1.00  0.00    -0.247 OA
HETATM    5  N4  UNL     1      24.522  56.507 -33.162  1.00  0.00    -0.321 N 
HETATM    6  C5  UNL     1      25.461  55.601 -32.568  1.00  0.00     0.128 C 
HETATM    7  C6  UNL     1      26.643  55.395 -33.506  1.00  0.00     0.020 C 
HETATM    8  C7  UNL     1      26.201  54.944 -34.858  1.00  0.00     0.004 C 
HETATM    9  C8  UNL     1      24.721  54.917 -35.037  1.00  0.00     0.035 C 
HETATM   10  C9  UNL     1      24.001  56.094 -34.465  1.00  0.00     0.178 C 
ENDROOT
BRANCH   1  11
HETATM   11  C3  UNL     1      24.212  59.339 -30.631  1.00  0.00     0.226 C 
BRANCH  11  12
HETATM   12  C2  UNL     1      24.943  60.539 -31.148  1.00  0.00     0.304 C 
BRANCH  12  13
HETATM   13  C1  UNL     1      26.370  60.201 -31.269  1.00  0.00     0.264 C 
HETATM   14  N1  UNL     1      27.266  60.551 -30.247  1.00  0.00    -0.060 NA
HETATM   15  O1  UNL     1      26.785  59.602 -32.280  1.00  0.00    -0.274 OA
ENDBRANCH  12  13
BRANCH  12  16
HETATM   16  N2  UNL     1      24.461  61.026 -32.397  1.00  0.00    -0.064 N 
ATOM     17  H23 UNL     1      23.702  61.698 -32.282  1.00  0.00     0.275 HD
ATOM     18  H22 UNL     1      25.133  61.642 -32.855  1.00  0.00     0.275 HD
ATOM     19  H21 UNL     1      24.193  60.240 -32.989  1.00  0.00     0.275 HD
ENDBRANCH  12  16
ENDBRANCH  11  12
BRANCH  11  20
HETATM   20  C11 UNL     1      24.438  59.152 -29.176  1.00  0.00     0.199 C 
HETATM   21  O4  UNL     1      24.584  57.994 -28.660  1.00  0.00    -0.646 OA
HETATM   22  O5  UNL     1      24.507  60.211 -28.282  1.00  0.00    -0.646 OA
ENDBRANCH  11  20
ENDBRANCH   1  11
BRANCH  10  23
HETATM   23  C10 UNL     1      22.557  55.718 -34.351  1.00  0.00     0.254 C 
HETATM   24  N5  UNL     1      21.518  56.462 -34.976  1.00  0.00    -0.060 NA
HETATM   25  O3  UNL     1      22.201  54.711 -33.686  1.00  0.00    -0.275 OA
ENDBRANCH  10  23
TORSDOF 6
ENDMDL
