MODEL 1
REMARK VINA RESULT: -8.123969998      0.000      0.000
REMARK  12 active torsions:
REMARK  status: ('A' for Active; 'I' for Inactive)
REMARK    1  A    between atoms: C3_3  and  C5_5 
REMARK    2  A    between atoms: C5_5  and  O2_7 
REMARK    3  A    between atoms: O2_7  and  C6_8 
REMARK    4  A    between atoms: C6_8  and  O3_10 
REMARK    5  A    between atoms: C6_8  and  C8_12 
REMARK    6  A    between atoms: C11_15  and  C12_16 
REMARK    7  A    between atoms: C12_16  and  C14_18 
REMARK    8  A    between atoms: C14_18  and  O4_19 
REMARK    9  A    between atoms: C14_18  and  C15_21 
REMARK   10  A    between atoms: C15_21  and  C16_22 
REMARK   11  A    between atoms: C15_21  and  C17_24 
REMARK   12  A    between atoms: C19_26  and  O6_27 
ROOT
HETATM    1  C8  UNL     1       9.324 -15.094  71.063  1.00  0.00     0.248 C 
HETATM    2  C9  UNL     1      10.152 -16.321  71.012  1.00  0.00     0.041 C 
HETATM    3  C10 UNL     1       9.733 -17.093  72.250  1.00  0.00     0.036 C 
HETATM    4  C11 UNL     1       8.332 -16.653  72.463  1.00  0.00     0.196 C 
HETATM    5  N1  UNL     1       8.116 -15.470  71.710  1.00  0.00    -0.061 N 
ATOM      6  H11 UNL     1       7.340 -15.566  71.054  1.00  0.00     0.278 HD
ATOM      7  H12 UNL     1       7.733 -14.715  72.279  1.00  0.00     0.278 HD
ENDROOT
BRANCH   4   8
HETATM    8  C12 UNL     1       8.049 -16.457  73.974  1.00  0.00     0.069 C 
HETATM    9  C13 UNL     1       7.103 -15.261  74.034  1.00  0.00     0.019 C 
BRANCH   8  10
HETATM   10  C14 UNL     1       7.477 -17.738  74.444  1.00  0.00     0.061 C 
BRANCH  10  11
HETATM   11  O4  UNL     1       8.511 -18.459  75.100  1.00  0.00    -0.364 OA
ATOM     12  H4  UNL     1       8.137 -18.861  75.875  1.00  0.00     0.217 HD
ENDBRANCH  10  11
BRANCH  10  13
HETATM   13  C15 UNL     1       6.600 -18.552  73.607  1.00  0.00     0.038 C 
BRANCH  13  14
HETATM   14  C16 UNL     1       6.943 -20.010  73.627  1.00  0.00     0.270 C 
HETATM   15  O5  UNL     1       7.756 -20.506  72.867  1.00  0.00    -0.302 OA
ENDBRANCH  13  14
BRANCH  13  16
HETATM   16  C17 UNL     1       5.146 -18.255  73.553  1.00  0.00     0.172 C 
HETATM   17  C18 UNL     1       4.380 -19.473  73.076  1.00  0.00     0.070 C 
HETATM   18  C19 UNL     1       3.541 -20.178  74.045  1.00  0.00     0.130 C 
HETATM   19  C20 UNL     1       3.401 -19.639  75.418  1.00  0.00     0.142 C 
HETATM   20  C21 UNL     1       3.487 -18.138  75.350  1.00  0.00     0.261 C 
HETATM   21  O7  UNL     1       2.629 -17.396  75.886  1.00  0.00    -0.265 OA
HETATM   22  O8  UNL     1       4.569 -17.664  74.662  1.00  0.00    -0.311 OA
BRANCH  18  23
HETATM   23  O6  UNL     1       3.945 -21.532  74.177  1.00  0.00    -0.395 OA
ATOM     24  H6  UNL     1       3.208 -22.086  74.408  1.00  0.00     0.210 HD
ENDBRANCH  18  23
ENDBRANCH  13  16
ENDBRANCH  10  13
ENDBRANCH   8  10
ENDBRANCH   4   8
BRANCH   1  25
HETATM   25  C6  UNL     1       9.128 -14.414  69.739  1.00  0.00     0.196 C 
HETATM   26  C7  UNL     1       9.834 -13.111  69.608  1.00  0.00     0.081 C 
BRANCH  25  27
HETATM   27  O2  UNL     1       7.743 -14.214  69.550  1.00  0.00    -0.278 OA
BRANCH  27  28
HETATM   28  C5  UNL     1       7.181 -14.103  68.252  1.00  0.00     0.291 C 
HETATM   29  O1  UNL     1       6.585 -15.141  67.881  1.00  0.00    -0.260 OA
BRANCH  28  30
HETATM   30  C3  UNL     1       7.323 -12.882  67.496  1.00  0.00     0.009 C 
HETATM   31  C2  UNL     1       7.908 -12.837  66.347  1.00  0.00    -0.018 C 
HETATM   32  C1  UNL     1       8.485 -14.022  65.698  1.00  0.00     0.036 C 
HETATM   33  C4  UNL     1       6.764 -11.627  68.084  1.00  0.00     0.054 C 
ENDBRANCH  28  30
ENDBRANCH  27  28
ENDBRANCH  25  27
BRANCH  25  34
HETATM   34  O3  UNL     1       9.648 -15.279  68.752  1.00  0.00    -0.363 OA
ATOM     35  H3  UNL     1      10.598 -15.270  68.764  1.00  0.00     0.213 HD
ENDBRANCH  25  34
ENDBRANCH   1  25
TORSDOF 12
ENDMDL
MODEL 2
REMARK VINA RESULT: -7.909275876      1.715      8.117
REMARK  12 active torsions:
REMARK  status: ('A' for Active; 'I' for Inactive)
REMARK    1  A    between atoms: C3_3  and  C5_5 
REMARK    2  A    between atoms: C5_5  and  O2_7 
REMARK    3  A    between atoms: O2_7  and  C6_8 
REMARK    4  A    between atoms: C6_8  and  O3_10 
REMARK    5  A    between atoms: C6_8  and  C8_12 
REMARK    6  A    between atoms: C11_15  and  C12_16 
REMARK    7  A    between atoms: C12_16  and  C14_18 
REMARK    8  A    between atoms: C14_18  and  O4_19 
REMARK    9  A    between atoms: C14_18  and  C15_21 
REMARK   10  A    between atoms: C15_21  and  C16_22 
REMARK   11  A    between atoms: C15_21  and  C17_24 
REMARK   12  A    between atoms: C19_26  and  O6_27 
ROOT
HETATM    1  C8  UNL     1       8.824 -17.073  73.102  1.00  0.00     0.248 C 
HETATM    2  C9  UNL     1       8.178 -15.917  73.766  1.00  0.00     0.041 C 
HETATM    3  C10 UNL     1       8.461 -14.757  72.827  1.00  0.00     0.036 C 
HETATM    4  C11 UNL     1       8.571 -15.415  71.502  1.00  0.00     0.196 C 
HETATM    5  N1  UNL     1       8.757 -16.806  71.708  1.00  0.00    -0.061 N 
ATOM      6  H11 UNL     1       8.040 -17.365  71.243  1.00  0.00     0.278 HD
ATOM      7  H12 UNL     1       9.569 -17.166  71.207  1.00  0.00     0.278 HD
ENDROOT
BRANCH   4   8
HETATM    8  C12 UNL     1       9.716 -14.778  70.674  1.00  0.00     0.069 C 
HETATM    9  C13 UNL     1      10.722 -15.909  70.479  1.00  0.00     0.019 C 
BRANCH   8  10
HETATM   10  C14 UNL     1       9.083 -14.275  69.435  1.00  0.00     0.061 C 
BRANCH  10  11
HETATM   11  O4  UNL     1       9.477 -15.130  68.371  1.00  0.00    -0.364 OA
ATOM     12  H4  UNL     1       9.493 -14.612  67.575  1.00  0.00     0.217 HD
ENDBRANCH  10  11
BRANCH  10  13
HETATM   13  C15 UNL     1       9.051 -12.855  69.098  1.00  0.00     0.038 C 
BRANCH  13  14
HETATM   14  C16 UNL     1      10.411 -12.231  69.017  1.00  0.00     0.270 C 
HETATM   15  O5  UNL     1      10.578 -11.027  68.928  1.00  0.00    -0.302 OA
ENDBRANCH  13  14
BRANCH  13  16
HETATM   16  C17 UNL     1       8.076 -12.356  68.095  1.00  0.00     0.172 C 
HETATM   17  C18 UNL     1       8.520 -12.740  66.697  1.00  0.00     0.070 C 
HETATM   18  C19 UNL     1       7.747 -13.759  65.987  1.00  0.00     0.130 C 
HETATM   19  C20 UNL     1       6.524 -14.314  66.612  1.00  0.00     0.142 C 
HETATM   20  C21 UNL     1       5.885 -13.237  67.445  1.00  0.00     0.261 C 
HETATM   21  O7  UNL     1       4.670 -12.943  67.338  1.00  0.00    -0.265 OA
HETATM   22  O8  UNL     1       6.736 -12.616  68.317  1.00  0.00    -0.311 OA
BRANCH  18  23
HETATM   23  O6  UNL     1       8.565 -14.865  65.637  1.00  0.00    -0.395 OA
ATOM     24  H6  UNL     1       8.341 -15.194  64.774  1.00  0.00     0.210 HD
ENDBRANCH  18  23
ENDBRANCH  13  16
ENDBRANCH  10  13
ENDBRANCH   8  10
ENDBRANCH   4   8
BRANCH   1  25
HETATM   25  C6  UNL     1       8.276 -18.412  73.501  1.00  0.00     0.196 C 
HETATM   26  C7  UNL     1       8.228 -19.409  72.397  1.00  0.00     0.081 C 
BRANCH  25  27
HETATM   27  O2  UNL     1       6.973 -18.219  74.009  1.00  0.00    -0.278 OA
BRANCH  27  28
HETATM   28  C5  UNL     1       6.170 -19.313  74.425  1.00  0.00     0.291 C 
HETATM   29  O1  UNL     1       6.830 -20.240  74.948  1.00  0.00    -0.260 OA
BRANCH  28  30
HETATM   30  C3  UNL     1       4.740 -19.284  74.231  1.00  0.00     0.009 C 
HETATM   31  C2  UNL     1       4.064 -18.186  74.180  1.00  0.00    -0.018 C 
HETATM   32  C1  UNL     1       4.684 -16.861  74.314  1.00  0.00     0.036 C 
HETATM   33  C4  UNL     1       4.028 -20.591  74.086  1.00  0.00     0.054 C 
ENDBRANCH  28  30
ENDBRANCH  27  28
ENDBRANCH  25  27
BRANCH  25  34
HETATM   34  O3  UNL     1       9.131 -18.926  74.499  1.00  0.00    -0.363 OA
ATOM     35  H3  UNL     1      10.042 -18.819  74.249  1.00  0.00     0.213 HD
ENDBRANCH  25  34
ENDBRANCH   1  25
TORSDOF 12
ENDMDL
MODEL 3
REMARK VINA RESULT: -7.871359952      1.047      1.556
REMARK  12 active torsions:
REMARK  status: ('A' for Active; 'I' for Inactive)
REMARK    1  A    between atoms: C3_3  and  C5_5 
REMARK    2  A    between atoms: C5_5  and  O2_7 
REMARK    3  A    between atoms: O2_7  and  C6_8 
REMARK    4  A    between atoms: C6_8  and  O3_10 
REMARK    5  A    between atoms: C6_8  and  C8_12 
REMARK    6  A    between atoms: C11_15  and  C12_16 
REMARK    7  A    between atoms: C12_16  and  C14_18 
REMARK    8  A    between atoms: C14_18  and  O4_19 
REMARK    9  A    between atoms: C14_18  and  C15_21 
REMARK   10  A    between atoms: C15_21  and  C16_22 
REMARK   11  A    between atoms: C15_21  and  C17_24 
REMARK   12  A    between atoms: C19_26  and  O6_27 
ROOT
HETATM    1  C8  UNL     1       9.443 -14.982  70.835  1.00  0.00     0.248 C 
HETATM    2  C9  UNL     1      10.284 -16.193  70.695  1.00  0.00     0.041 C 
HETATM    3  C10 UNL     1       9.974 -16.995  71.948  1.00  0.00     0.036 C 
HETATM    4  C11 UNL     1       8.588 -16.582  72.278  1.00  0.00     0.196 C 
HETATM    5  N1  UNL     1       8.296 -15.390  71.568  1.00  0.00    -0.061 N 
ATOM      6  H11 UNL     1       7.472 -15.486  70.972  1.00  0.00     0.278 HD
ATOM      7  H12 UNL     1       7.947 -14.652  72.180  1.00  0.00     0.278 HD
ENDROOT
BRANCH   4   8
HETATM    8  C12 UNL     1       8.422 -16.419  73.810  1.00  0.00     0.069 C 
HETATM    9  C13 UNL     1       7.353 -15.340  73.965  1.00  0.00     0.019 C 
BRANCH   8  10
HETATM   10  C14 UNL     1       8.046 -17.757  74.317  1.00  0.00     0.061 C 
BRANCH  10  11
HETATM   11  O4  UNL     1       9.224 -18.549  74.363  1.00  0.00    -0.364 OA
ATOM     12  H4  UNL     1       9.045 -19.304  74.911  1.00  0.00     0.217 HD
ENDBRANCH  10  11
BRANCH  10  13
HETATM   13  C15 UNL     1       6.855 -18.460  73.849  1.00  0.00     0.038 C 
BRANCH  13  14
HETATM   14  C16 UNL     1       7.132 -19.430  72.742  1.00  0.00     0.270 C 
HETATM   15  O5  UNL     1       6.384 -19.575  71.792  1.00  0.00    -0.302 OA
ENDBRANCH  13  14
BRANCH  13  16
HETATM   16  C17 UNL     1       5.830 -18.907  74.827  1.00  0.00     0.172 C 
HETATM   17  C18 UNL     1       4.556 -18.105  74.653  1.00  0.00     0.070 C 
HETATM   18  C19 UNL     1       3.387 -18.786  74.096  1.00  0.00     0.130 C 
HETATM   19  C20 UNL     1       3.458 -20.237  73.804  1.00  0.00     0.142 C 
HETATM   20  C21 UNL     1       4.377 -20.879  74.807  1.00  0.00     0.261 C 
HETATM   21  O7  UNL     1       4.043 -21.893  75.465  1.00  0.00    -0.265 OA
HETATM   22  O8  UNL     1       5.592 -20.265  74.934  1.00  0.00    -0.311 OA
BRANCH  18  23
HETATM   23  O6  UNL     1       2.947 -18.150  72.905  1.00  0.00    -0.395 OA
ATOM     24  H6  UNL     1       2.591 -18.784  72.293  1.00  0.00     0.210 HD
ENDBRANCH  18  23
ENDBRANCH  13  16
ENDBRANCH  10  13
ENDBRANCH   8  10
ENDBRANCH   4   8
BRANCH   1  25
HETATM   25  C6  UNL     1       9.133 -14.281  69.545  1.00  0.00     0.196 C 
HETATM   26  C7  UNL     1       9.753 -12.934  69.413  1.00  0.00     0.081 C 
BRANCH  25  27
HETATM   27  O2  UNL     1       7.731 -14.160  69.437  1.00  0.00    -0.278 OA
BRANCH  27  28
HETATM   28  C5  UNL     1       7.091 -14.053  68.175  1.00  0.00     0.291 C 
HETATM   29  O1  UNL     1       6.507 -15.106  67.826  1.00  0.00    -0.260 OA
BRANCH  28  30
HETATM   30  C3  UNL     1       7.151 -12.820  67.428  1.00  0.00     0.009 C 
HETATM   31  C2  UNL     1       7.679 -12.741  66.253  1.00  0.00    -0.018 C 
HETATM   32  C1  UNL     1       8.268 -13.897  65.564  1.00  0.00     0.036 C 
HETATM   33  C4  UNL     1       6.573 -11.593  68.056  1.00  0.00     0.054 C 
ENDBRANCH  28  30
ENDBRANCH  27  28
ENDBRANCH  25  27
BRANCH  25  34
HETATM   34  O3  UNL     1       9.647 -15.087  68.506  1.00  0.00    -0.363 OA
ATOM     35  H3  UNL     1       9.925 -15.931  68.842  1.00  0.00     0.213 HD
ENDBRANCH  25  34
ENDBRANCH   1  25
TORSDOF 12
ENDMDL
MODEL 4
REMARK VINA RESULT: -7.748326346      0.275      1.032
REMARK  12 active torsions:
REMARK  status: ('A' for Active; 'I' for Inactive)
REMARK    1  A    between atoms: C3_3  and  C5_5 
REMARK    2  A    between atoms: C5_5  and  O2_7 
REMARK    3  A    between atoms: O2_7  and  C6_8 
REMARK    4  A    between atoms: C6_8  and  O3_10 
REMARK    5  A    between atoms: C6_8  and  C8_12 
REMARK    6  A    between atoms: C11_15  and  C12_16 
REMARK    7  A    between atoms: C12_16  and  C14_18 
REMARK    8  A    between atoms: C14_18  and  O4_19 
REMARK    9  A    between atoms: C14_18  and  C15_21 
REMARK   10  A    between atoms: C15_21  and  C16_22 
REMARK   11  A    between atoms: C15_21  and  C17_24 
REMARK   12  A    between atoms: C19_26  and  O6_27 
ROOT
HETATM    1  C8  UNL     1       9.399 -15.108  71.063  1.00  0.00     0.248 C 
HETATM    2  C9  UNL     1      10.119 -16.401  71.007  1.00  0.00     0.041 C 
HETATM    3  C10 UNL     1       9.622 -17.144  72.235  1.00  0.00     0.036 C 
HETATM    4  C11 UNL     1       8.263 -16.586  72.440  1.00  0.00     0.196 C 
HETATM    5  N1  UNL     1       8.157 -15.383  71.697  1.00  0.00    -0.061 N 
ATOM      6  H11 UNL     1       7.382 -15.405  71.033  1.00  0.00     0.278 HD
ATOM      7  H12 UNL     1       7.836 -14.602  72.269  1.00  0.00     0.278 HD
ENDROOT
BRANCH   4   8
HETATM    8  C12 UNL     1       7.984 -16.379  73.951  1.00  0.00     0.069 C 
HETATM    9  C13 UNL     1       7.012 -15.204  74.002  1.00  0.00     0.019 C 
BRANCH   8  10
HETATM   10  C14 UNL     1       7.445 -17.667  74.439  1.00  0.00     0.061 C 
BRANCH  10  11
HETATM   11  O4  UNL     1       8.504 -18.365  75.080  1.00  0.00    -0.364 OA
ATOM     12  H4  UNL     1       8.442 -19.279  74.828  1.00  0.00     0.217 HD
ENDBRANCH  10  11
BRANCH  10  13
HETATM   13  C15 UNL     1       6.568 -18.502  73.624  1.00  0.00     0.038 C 
BRANCH  13  14
HETATM   14  C16 UNL     1       6.919 -19.958  73.670  1.00  0.00     0.270 C 
HETATM   15  O5  UNL     1       7.711 -20.469  72.899  1.00  0.00    -0.302 OA
ENDBRANCH  13  14
BRANCH  13  16
HETATM   16  C17 UNL     1       5.112 -18.214  73.573  1.00  0.00     0.172 C 
HETATM   17  C18 UNL     1       4.354 -19.429  73.076  1.00  0.00     0.070 C 
HETATM   18  C19 UNL     1       3.518 -20.155  74.033  1.00  0.00     0.130 C 
HETATM   19  C20 UNL     1       3.373 -19.638  75.414  1.00  0.00     0.142 C 
HETATM   20  C21 UNL     1       3.450 -18.136  75.370  1.00  0.00     0.261 C 
HETATM   21  O7  UNL     1       2.587 -17.408  75.916  1.00  0.00    -0.265 OA
HETATM   22  O8  UNL     1       4.529 -17.644  74.690  1.00  0.00    -0.311 OA
BRANCH  18  23
HETATM   23  O6  UNL     1       3.932 -21.509  74.144  1.00  0.00    -0.395 OA
ATOM     24  H6  UNL     1       4.236 -21.700  75.024  1.00  0.00     0.210 HD
ENDBRANCH  18  23
ENDBRANCH  13  16
ENDBRANCH  10  13
ENDBRANCH   8  10
ENDBRANCH   4   8
BRANCH   1  25
HETATM   25  C6  UNL     1       9.275 -14.402  69.744  1.00  0.00     0.196 C 
HETATM   26  C7  UNL     1      10.075 -13.152  69.638  1.00  0.00     0.081 C 
BRANCH  25  27
HETATM   27  O2  UNL     1       7.912 -14.101  69.535  1.00  0.00    -0.278 OA
BRANCH  27  28
HETATM   28  C5  UNL     1       7.322 -14.192  68.248  1.00  0.00     0.291 C 
HETATM   29  O1  UNL     1       6.571 -15.187  68.117  1.00  0.00    -0.260 OA
BRANCH  28  30
HETATM   30  C3  UNL     1       7.606 -13.198  67.241  1.00  0.00     0.009 C 
HETATM   31  C2  UNL     1       7.427 -11.935  67.438  1.00  0.00    -0.018 C 
HETATM   32  C1  UNL     1       6.919 -11.389  68.704  1.00  0.00     0.036 C 
HETATM   33  C4  UNL     1       8.127 -13.668  65.921  1.00  0.00     0.054 C 
ENDBRANCH  28  30
ENDBRANCH  27  28
ENDBRANCH  25  27
BRANCH  25  34
HETATM   34  O3  UNL     1       9.748 -15.292  68.756  1.00  0.00    -0.363 OA
ATOM     35  H3  UNL     1       9.966 -14.824  67.958  1.00  0.00     0.213 HD
ENDBRANCH  25  34
ENDBRANCH   1  25
TORSDOF 12
ENDMDL
MODEL 5
REMARK VINA RESULT: -7.596822277      1.906      8.265
REMARK  12 active torsions:
REMARK  status: ('A' for Active; 'I' for Inactive)
REMARK    1  A    between atoms: C3_3  and  C5_5 
REMARK    2  A    between atoms: C5_5  and  O2_7 
REMARK    3  A    between atoms: O2_7  and  C6_8 
REMARK    4  A    between atoms: C6_8  and  O3_10 
REMARK    5  A    between atoms: C6_8  and  C8_12 
REMARK    6  A    between atoms: C11_15  and  C12_16 
REMARK    7  A    between atoms: C12_16  and  C14_18 
REMARK    8  A    between atoms: C14_18  and  O4_19 
REMARK    9  A    between atoms: C14_18  and  C15_21 
REMARK   10  A    between atoms: C15_21  and  C16_22 
REMARK   11  A    between atoms: C15_21  and  C17_24 
REMARK   12  A    between atoms: C19_26  and  O6_27 
ROOT
HETATM    1  C8  UNL     1       8.858 -17.134  73.176  1.00  0.00     0.248 C 
HETATM    2  C9  UNL     1       8.294 -15.970  73.898  1.00  0.00     0.041 C 
HETATM    3  C10 UNL     1       8.534 -14.807  72.952  1.00  0.00     0.036 C 
HETATM    4  C11 UNL     1       8.526 -15.452  71.616  1.00  0.00     0.196 C 
HETATM    5  N1  UNL     1       8.691 -16.849  71.794  1.00  0.00    -0.061 N 
ATOM      6  H11 UNL     1       7.927 -17.385  71.379  1.00  0.00     0.278 HD
ATOM      7  H12 UNL     1       9.454 -17.223  71.229  1.00  0.00     0.278 HD
ENDROOT
BRANCH   4   8
HETATM    8  C12 UNL     1       9.620 -14.833  70.709  1.00  0.00     0.069 C 
HETATM    9  C13 UNL     1      10.515 -16.011  70.333  1.00  0.00     0.019 C 
BRANCH   8  10
HETATM   10  C14 UNL     1       8.898 -14.205  69.582  1.00  0.00     0.061 C 
BRANCH  10  11
HETATM   11  O4  UNL     1       7.782 -15.026  69.270  1.00  0.00    -0.364 OA
ATOM     12  H4  UNL     1       7.022 -14.463  69.185  1.00  0.00     0.217 HD
ENDBRANCH  10  11
BRANCH  10  13
HETATM   13  C15 UNL     1       9.594 -13.654  68.422  1.00  0.00     0.038 C 
BRANCH  13  14
HETATM   14  C16 UNL     1       9.576 -14.561  67.230  1.00  0.00     0.270 C 
HETATM   15  O5  UNL     1       8.550 -14.855  66.642  1.00  0.00    -0.302 OA
ENDBRANCH  13  14
BRANCH  13  16
HETATM   16  C17 UNL     1       9.474 -12.208  68.106  1.00  0.00     0.172 C 
HETATM   17  C18 UNL     1       8.204 -11.948  67.320  1.00  0.00     0.070 C 
HETATM   18  C19 UNL     1       7.118 -11.230  67.987  1.00  0.00     0.130 C 
HETATM   19  C20 UNL     1       7.321 -10.714  69.362  1.00  0.00     0.142 C 
HETATM   20  C21 UNL     1       8.768 -10.334  69.517  1.00  0.00     0.261 C 
HETATM   21  O7  UNL     1       9.120  -9.214  69.958  1.00  0.00    -0.265 OA
HETATM   22  O8  UNL     1       9.652 -11.307  69.141  1.00  0.00    -0.311 OA
BRANCH  18  23
HETATM   23  O6  UNL     1       5.934 -12.013  68.016  1.00  0.00    -0.395 OA
ATOM     24  H6  UNL     1       5.170 -11.482  67.822  1.00  0.00     0.210 HD
ENDBRANCH  18  23
ENDBRANCH  13  16
ENDBRANCH  10  13
ENDBRANCH   8  10
ENDBRANCH   4   8
BRANCH   1  25
HETATM   25  C6  UNL     1       8.307 -18.463  73.602  1.00  0.00     0.196 C 
HETATM   26  C7  UNL     1       8.315 -19.502  72.537  1.00  0.00     0.081 C 
BRANCH  25  27
HETATM   27  O2  UNL     1       6.983 -18.266  74.050  1.00  0.00    -0.278 OA
BRANCH  27  28
HETATM   28  C5  UNL     1       6.174 -19.353  74.473  1.00  0.00     0.291 C 
HETATM   29  O1  UNL     1       6.830 -20.280  75.003  1.00  0.00    -0.260 OA
BRANCH  28  30
HETATM   30  C3  UNL     1       4.745 -19.320  74.278  1.00  0.00     0.009 C 
HETATM   31  C2  UNL     1       4.076 -18.219  74.202  1.00  0.00    -0.018 C 
HETATM   32  C1  UNL     1       4.705 -16.895  74.305  1.00  0.00     0.036 C 
HETATM   33  C4  UNL     1       4.024 -20.625  74.163  1.00  0.00     0.054 C 
ENDBRANCH  28  30
ENDBRANCH  27  28
ENDBRANCH  25  27
BRANCH  25  34
HETATM   34  O3  UNL     1       9.126 -18.929  74.654  1.00  0.00    -0.363 OA
ATOM     35  H3  UNL     1      10.014 -19.077  74.348  1.00  0.00     0.213 HD
ENDBRANCH  25  34
ENDBRANCH   1  25
TORSDOF 12
ENDMDL
