MODEL 1
REMARK VINA RESULT: -6.572376571      0.000      0.000
REMARK  11 active torsions:
REMARK  status: ('A' for Active; 'I' for Inactive)
REMARK    1  A    between atoms: N1_2  and  C2_5 
REMARK    2  A    between atoms: C2_5  and  C3_6 
REMARK    3  A    between atoms: C2_5  and  C19_32 
REMARK       I    between atoms: C3_6  and  N2_8 
REMARK    4  A    between atoms: N2_8  and  C4_10 
REMARK    5  A    between atoms: C5_11  and  O2_12 
REMARK    6  A    between atoms: O2_12  and  C6_13 
REMARK    7  A    between atoms: C6_13  and  O4_15 
REMARK    8  A    between atoms: O4_15  and  C7_16 
REMARK    9  A    between atoms: C7_16  and  C8_17 
REMARK   10  A    between atoms: C16_26  and  O6_27 
REMARK   11  A    between atoms: C17_29  and  O7_30 
ROOT
HETATM    1  C4  UNL     1       8.727 -12.868  66.634  1.00  0.00     0.171 C 
HETATM    2  C5  UNL     1       9.650 -12.918  67.805  1.00  0.00     0.297 C 
HETATM    3  O5  UNL     1       9.203 -12.049  68.809  1.00  0.00    -0.351 OA
HETATM    4  C14 UNL     1       7.882 -12.187  69.137  1.00  0.00     0.152 C 
HETATM    5  C15 UNL     1       7.090 -10.916  68.825  1.00  0.00     0.042 C 
HETATM    6  C16 UNL     1       7.172 -13.345  68.492  1.00  0.00     0.178 C 
HETATM    7  C17 UNL     1       7.321 -13.275  67.013  1.00  0.00     0.179 C 
ENDROOT
BRANCH   1   8
HETATM    8  N2  UNL     1       9.159 -13.669  65.499  1.00  0.00    -0.347 N 
HETATM    9  C3  UNL     1       9.233 -13.150  64.184  1.00  0.00     0.249 C 
HETATM   10  O1  UNL     1       8.893 -11.933  64.057  1.00  0.00    -0.271 OA
ATOM     11  H2  UNL     1       9.419 -14.642  65.657  1.00  0.00     0.163 HD
BRANCH   9  12
HETATM   12  C2  UNL     1       9.671 -13.984  63.073  1.00  0.00     0.279 C 
BRANCH  12  13
HETATM   13  N1  UNL     1      11.069 -13.623  62.705  1.00  0.00    -0.066 N 
HETATM   14  C1  UNL     1      11.807 -14.777  62.246  1.00  0.00     0.267 C 
ATOM     15  H12 UNL     1      11.549 -13.153  63.473  1.00  0.00     0.277 HD
ATOM     16  H11 UNL     1      11.092 -12.867  62.020  1.00  0.00     0.277 HD
ENDBRANCH  12  13
BRANCH  12  17
HETATM   17  C19 UNL     1       9.677 -15.452  63.269  1.00  0.00     0.017 C 
HETATM   18  C20 UNL     1       9.008 -16.000  64.471  1.00  0.00     0.012 C 
HETATM   19  C21 UNL     1       8.990 -16.099  62.055  1.00  0.00     0.012 C 
ENDBRANCH  12  17
ENDBRANCH   9  12
ENDBRANCH   1   8
BRANCH   2  20
HETATM   20  O2  UNL     1       9.897 -14.180  68.330  1.00  0.00    -0.264 OA
BRANCH  20  21
HETATM   21  C6  UNL     1      10.564 -14.319  69.535  1.00  0.00     0.409 C 
HETATM   22  O3  UNL     1      11.772 -13.985  69.663  1.00  0.00    -0.229 OA
BRANCH  21  23
HETATM   23  O4  UNL     1       9.942 -14.830  70.660  1.00  0.00    -0.293 OA
BRANCH  23  24
HETATM   24  C7  UNL     1       9.944 -16.237  70.942  1.00  0.00     0.219 C 
BRANCH  24  25
HETATM   25  C8  UNL     1       9.157 -16.497  72.174  1.00  0.00    -0.034 A 
HETATM   26  C9  UNL     1       9.005 -17.827  72.577  1.00  0.00     0.009 A 
HETATM   27  C10 UNL     1       8.290 -18.126  73.709  1.00  0.00     0.001 A 
HETATM   28  C11 UNL     1       7.718 -17.102  74.450  1.00  0.00     0.000 A 
HETATM   29  C12 UNL     1       7.849 -15.787  74.079  1.00  0.00     0.001 A 
HETATM   30  C13 UNL     1       8.575 -15.514  72.936  1.00  0.00     0.009 A 
ENDBRANCH  24  25
ENDBRANCH  23  24
ENDBRANCH  21  23
ENDBRANCH  20  21
ENDBRANCH   2  20
BRANCH   7  31
HETATM   31  O7  UNL     1       6.378 -12.376  66.503  1.00  0.00    -0.386 OA
HETATM   32  C18 UNL     1       5.357 -13.014  65.829  1.00  0.00     0.202 C 
ENDBRANCH   7  31
BRANCH   6  33
HETATM   33  O6  UNL     1       5.814 -13.299  68.838  1.00  0.00    -0.390 OA
ATOM     34  H6  UNL     1       5.505 -14.182  68.996  1.00  0.00     0.210 HD
ENDBRANCH   6  33
TORSDOF 11
ENDMDL
MODEL 2
REMARK VINA RESULT: -6.553495474      2.490      5.159
REMARK  11 active torsions:
REMARK  status: ('A' for Active; 'I' for Inactive)
REMARK    1  A    between atoms: N1_2  and  C2_5 
REMARK    2  A    between atoms: C2_5  and  C3_6 
REMARK    3  A    between atoms: C2_5  and  C19_32 
REMARK       I    between atoms: C3_6  and  N2_8 
REMARK    4  A    between atoms: N2_8  and  C4_10 
REMARK    5  A    between atoms: C5_11  and  O2_12 
REMARK    6  A    between atoms: O2_12  and  C6_13 
REMARK    7  A    between atoms: C6_13  and  O4_15 
REMARK    8  A    between atoms: O4_15  and  C7_16 
REMARK    9  A    between atoms: C7_16  and  C8_17 
REMARK   10  A    between atoms: C16_26  and  O6_27 
REMARK   11  A    between atoms: C17_29  and  O7_30 
ROOT
HETATM    1  C4  UNL     1       7.915 -12.648  68.189  1.00  0.00     0.171 C 
HETATM    2  C5  UNL     1       7.530 -13.938  68.831  1.00  0.00     0.297 C 
HETATM    3  O5  UNL     1       6.539 -14.579  68.075  1.00  0.00    -0.351 OA
HETATM    4  C14 UNL     1       6.819 -14.684  66.740  1.00  0.00     0.152 C 
HETATM    5  C15 UNL     1       5.811 -13.909  65.891  1.00  0.00     0.042 C 
HETATM    6  C16 UNL     1       8.199 -14.250  66.331  1.00  0.00     0.178 C 
HETATM    7  C17 UNL     1       8.454 -12.858  66.792  1.00  0.00     0.179 C 
ENDROOT
BRANCH   1   8
HETATM    8  N2  UNL     1       8.874 -11.864  68.951  1.00  0.00    -0.347 N 
HETATM    9  C3  UNL     1       8.529 -10.648  69.589  1.00  0.00     0.249 C 
HETATM   10  O1  UNL     1       7.321 -10.282  69.449  1.00  0.00    -0.271 OA
ATOM     11  H2  UNL     1       9.832 -12.204  69.030  1.00  0.00     0.163 HD
BRANCH   9  12
HETATM   12  C2  UNL     1       9.519  -9.892  70.344  1.00  0.00     0.279 C 
BRANCH  12  13
HETATM   13  N1  UNL     1      10.727  -9.677  69.498  1.00  0.00    -0.066 N 
HETATM   14  C1  UNL     1      11.137 -10.901  68.848  1.00  0.00     0.267 C 
ATOM     15  H12 UNL     1      11.490  -9.264  70.034  1.00  0.00     0.277 HD
ATOM     16  H11 UNL     1      10.583  -8.925  68.824  1.00  0.00     0.277 HD
ENDBRANCH  12  13
BRANCH  12  17
HETATM   17  C19 UNL     1       9.135  -8.550  70.840  1.00  0.00     0.017 C 
HETATM   18  C20 UNL     1       7.779  -8.048  70.520  1.00  0.00     0.012 C 
HETATM   19  C21 UNL     1       9.246  -8.558  72.374  1.00  0.00     0.012 C 
ENDBRANCH  12  17
ENDBRANCH   9  12
ENDBRANCH   1   8
BRANCH   2  20
HETATM   20  O2  UNL     1       8.574 -14.815  69.104  1.00  0.00    -0.264 OA
BRANCH  20  21
HETATM   21  C6  UNL     1       9.248 -14.746  70.312  1.00  0.00     0.409 C 
HETATM   22  O3  UNL     1      10.236 -13.982  70.472  1.00  0.00    -0.229 OA
BRANCH  21  23
HETATM   23  O4  UNL     1       8.875 -15.511  71.402  1.00  0.00    -0.293 OA
BRANCH  23  24
HETATM   24  C7  UNL     1       9.609 -16.685  71.779  1.00  0.00     0.219 C 
BRANCH  24  25
HETATM   25  C8  UNL     1       8.738 -17.577  72.584  1.00  0.00    -0.034 A 
HETATM   26  C9  UNL     1       8.313 -17.114  73.833  1.00  0.00     0.009 A 
HETATM   27  C10 UNL     1       7.505 -17.895  74.619  1.00  0.00     0.001 A 
HETATM   28  C11 UNL     1       7.112 -19.148  74.168  1.00  0.00     0.000 A 
HETATM   29  C12 UNL     1       7.513 -19.630  72.947  1.00  0.00     0.001 A 
HETATM   30  C13 UNL     1       8.326 -18.822  72.176  1.00  0.00     0.009 A 
ENDBRANCH  24  25
ENDBRANCH  23  24
ENDBRANCH  21  23
ENDBRANCH  20  21
ENDBRANCH   2  20
BRANCH   7  31
HETATM   31  O7  UNL     1       7.873 -11.965  65.884  1.00  0.00    -0.386 OA
HETATM   32  C18 UNL     1       8.670 -11.750  64.779  1.00  0.00     0.202 C 
ENDBRANCH   7  31
BRANCH   6  33
HETATM   33  O6  UNL     1       8.305 -14.318  64.935  1.00  0.00    -0.390 OA
ATOM     34  H6  UNL     1       8.136 -13.457  64.570  1.00  0.00     0.210 HD
ENDBRANCH   6  33
TORSDOF 11
ENDMDL
MODEL 3
REMARK VINA RESULT: -6.267563021      1.396      1.953
REMARK  11 active torsions:
REMARK  status: ('A' for Active; 'I' for Inactive)
REMARK    1  A    between atoms: N1_2  and  C2_5 
REMARK    2  A    between atoms: C2_5  and  C3_6 
REMARK    3  A    between atoms: C2_5  and  C19_32 
REMARK       I    between atoms: C3_6  and  N2_8 
REMARK    4  A    between atoms: N2_8  and  C4_10 
REMARK    5  A    between atoms: C5_11  and  O2_12 
REMARK    6  A    between atoms: O2_12  and  C6_13 
REMARK    7  A    between atoms: C6_13  and  O4_15 
REMARK    8  A    between atoms: O4_15  and  C7_16 
REMARK    9  A    between atoms: C7_16  and  C8_17 
REMARK   10  A    between atoms: C16_26  and  O6_27 
REMARK   11  A    between atoms: C17_29  and  O7_30 
ROOT
HETATM    1  C4  UNL     1       8.971 -13.154  66.494  1.00  0.00     0.171 C 
HETATM    2  C5  UNL     1       9.391 -13.434  67.898  1.00  0.00     0.297 C 
HETATM    3  O5  UNL     1       8.602 -12.700  68.794  1.00  0.00    -0.351 OA
HETATM    4  C14 UNL     1       7.254 -12.805  68.586  1.00  0.00     0.152 C 
HETATM    5  C15 UNL     1       6.636 -11.457  68.214  1.00  0.00     0.042 C 
HETATM    6  C16 UNL     1       6.835 -13.808  67.547  1.00  0.00     0.178 C 
HETATM    7  C17 UNL     1       7.525 -13.527  66.258  1.00  0.00     0.179 C 
ENDROOT
BRANCH   1   8
HETATM    8  N2  UNL     1       9.794 -13.801  65.485  1.00  0.00    -0.347 N 
HETATM    9  C3  UNL     1       9.409 -15.001  64.841  1.00  0.00     0.249 C 
HETATM   10  O1  UNL     1       8.291 -15.482  65.206  1.00  0.00    -0.271 OA
ATOM     11  H2  UNL     1      10.684 -13.373  65.230  1.00  0.00     0.163 HD
BRANCH   9  12
HETATM   12  C2  UNL     1      10.261 -15.619  63.834  1.00  0.00     0.279 C 
BRANCH  12  13
HETATM   13  N1  UNL     1       9.751 -16.984  63.525  1.00  0.00    -0.066 N 
HETATM   14  C1  UNL     1      10.685 -17.721  62.703  1.00  0.00     0.267 C 
ATOM     15  H12 UNL     1       8.825 -16.950  63.099  1.00  0.00     0.277 HD
ATOM     16  H11 UNL     1       9.514 -17.497  64.374  1.00  0.00     0.277 HD
ENDBRANCH  12  13
BRANCH  12  17
HETATM   17  C19 UNL     1      10.396 -14.937  62.527  1.00  0.00     0.017 C 
HETATM   18  C20 UNL     1       9.268 -14.102  62.055  1.00  0.00     0.012 C 
HETATM   19  C21 UNL     1      11.624 -14.013  62.594  1.00  0.00     0.012 C 
ENDBRANCH  12  17
ENDBRANCH   9  12
ENDBRANCH   1   8
BRANCH   2  20
HETATM   20  O2  UNL     1       9.424 -14.774  68.266  1.00  0.00    -0.264 OA
BRANCH  20  21
HETATM   21  C6  UNL     1       9.958 -15.152  69.486  1.00  0.00     0.409 C 
HETATM   22  O3  UNL     1      11.117 -14.802  69.835  1.00  0.00    -0.229 OA
BRANCH  21  23
HETATM   23  O4  UNL     1       9.251 -15.930  70.384  1.00  0.00    -0.293 OA
BRANCH  23  24
HETATM   24  C7  UNL     1       9.908 -16.614  71.461  1.00  0.00     0.219 C 
BRANCH  24  25
HETATM   25  C8  UNL     1       8.985 -16.718  72.619  1.00  0.00    -0.034 A 
HETATM   26  C9  UNL     1       8.332 -15.553  73.033  1.00  0.00     0.009 A 
HETATM   27  C10 UNL     1       7.466 -15.589  74.096  1.00  0.00     0.001 A 
HETATM   28  C11 UNL     1       7.243 -16.787  74.759  1.00  0.00     0.000 A 
HETATM   29  C12 UNL     1       7.869 -17.947  74.376  1.00  0.00     0.001 A 
HETATM   30  C13 UNL     1       8.736 -17.882  73.302  1.00  0.00     0.009 A 
ENDBRANCH  24  25
ENDBRANCH  23  24
ENDBRANCH  21  23
ENDBRANCH  20  21
ENDBRANCH   2  20
BRANCH   7  31
HETATM   31  O7  UNL     1       6.840 -12.506  65.589  1.00  0.00    -0.386 OA
HETATM   32  C18 UNL     1       7.666 -11.779  64.759  1.00  0.00     0.202 C 
ENDBRANCH   7  31
BRANCH   6  33
HETATM   33  O6  UNL     1       5.446 -13.732  67.372  1.00  0.00    -0.390 OA
ATOM     34  H6  UNL     1       5.130 -14.565  67.042  1.00  0.00     0.210 HD
ENDBRANCH   6  33
TORSDOF 11
ENDMDL
MODEL 4
REMARK VINA RESULT: -6.121329570      0.975      1.487
REMARK  11 active torsions:
REMARK  status: ('A' for Active; 'I' for Inactive)
REMARK    1  A    between atoms: N1_2  and  C2_5 
REMARK    2  A    between atoms: C2_5  and  C3_6 
REMARK    3  A    between atoms: C2_5  and  C19_32 
REMARK       I    between atoms: C3_6  and  N2_8 
REMARK    4  A    between atoms: N2_8  and  C4_10 
REMARK    5  A    between atoms: C5_11  and  O2_12 
REMARK    6  A    between atoms: O2_12  and  C6_13 
REMARK    7  A    between atoms: C6_13  and  O4_15 
REMARK    8  A    between atoms: O4_15  and  C7_16 
REMARK    9  A    between atoms: C7_16  and  C8_17 
REMARK   10  A    between atoms: C16_26  and  O6_27 
REMARK   11  A    between atoms: C17_29  and  O7_30 
ROOT
HETATM    1  C4  UNL     1       8.663 -12.964  67.172  1.00  0.00     0.171 C 
HETATM    2  C5  UNL     1       9.398 -12.717  68.446  1.00  0.00     0.297 C 
HETATM    3  O5  UNL     1       8.877 -11.588  69.093  1.00  0.00    -0.351 OA
HETATM    4  C14 UNL     1       7.516 -11.584  69.227  1.00  0.00     0.152 C 
HETATM    5  C15 UNL     1       6.879 -10.424  68.460  1.00  0.00     0.042 C 
HETATM    6  C16 UNL     1       6.820 -12.851  68.812  1.00  0.00     0.178 C 
HETATM    7  C17 UNL     1       7.189 -13.201  67.412  1.00  0.00     0.179 C 
ENDROOT
BRANCH   1   8
HETATM    8  N2  UNL     1       9.193 -14.063  66.381  1.00  0.00    -0.347 N 
HETATM    9  C3  UNL     1       9.320 -13.997  64.972  1.00  0.00     0.249 C 
HETATM   10  O1  UNL     1       8.936 -12.910  64.440  1.00  0.00    -0.271 OA
ATOM     11  H2  UNL     1       9.486 -14.915  66.859  1.00  0.00     0.163 HD
BRANCH   9  12
HETATM   12  C2  UNL     1       9.856 -15.120  64.215  1.00  0.00     0.279 C 
BRANCH  12  13
HETATM   13  N1  UNL     1       8.902 -16.263  64.283  1.00  0.00    -0.066 N 
HETATM   14  C1  UNL     1       7.622 -15.848  64.809  1.00  0.00     0.267 C 
ATOM     15  H12 UNL     1       9.290 -17.042  64.815  1.00  0.00     0.277 HD
ATOM     16  H11 UNL     1       8.804 -16.723  63.378  1.00  0.00     0.277 HD
ENDBRANCH  12  13
BRANCH  12  17
HETATM   17  C19 UNL     1      10.132 -14.916  62.774  1.00  0.00     0.017 C 
HETATM   18  C20 UNL     1      11.466 -14.406  62.383  1.00  0.00     0.012 C 
HETATM   19  C21 UNL     1       9.953 -16.265  62.057  1.00  0.00     0.012 C 
ENDBRANCH  12  17
ENDBRANCH   9  12
ENDBRANCH   1   8
BRANCH   2  20
HETATM   20  O2  UNL     1       9.467 -13.791  69.325  1.00  0.00    -0.264 OA
BRANCH  20  21
HETATM   21  C6  UNL     1      10.681 -14.176  69.867  1.00  0.00     0.409 C 
HETATM   22  O3  UNL     1      11.756 -13.604  69.547  1.00  0.00    -0.229 OA
BRANCH  21  23
HETATM   23  O4  UNL     1      10.778 -15.204  70.786  1.00  0.00    -0.293 OA
BRANCH  23  24
HETATM   24  C7  UNL     1       9.911 -16.346  70.726  1.00  0.00     0.219 C 
BRANCH  24  25
HETATM   25  C8  UNL     1       9.165 -16.470  72.003  1.00  0.00    -0.034 A 
HETATM   26  C9  UNL     1       8.948 -17.757  72.505  1.00  0.00     0.009 A 
HETATM   27  C10 UNL     1       8.267 -17.933  73.682  1.00  0.00     0.001 A 
HETATM   28  C11 UNL     1       7.793 -16.826  74.372  1.00  0.00     0.000 A 
HETATM   29  C12 UNL     1       7.990 -15.550  73.905  1.00  0.00     0.001 A 
HETATM   30  C13 UNL     1       8.680 -15.402  72.717  1.00  0.00     0.009 A 
ENDBRANCH  24  25
ENDBRANCH  23  24
ENDBRANCH  21  23
ENDBRANCH  20  21
ENDBRANCH   2  20
BRANCH   7  31
HETATM   31  O7  UNL     1       6.404 -12.447  66.533  1.00  0.00    -0.386 OA
HETATM   32  C18 UNL     1       5.475 -13.220  65.868  1.00  0.00     0.202 C 
ENDBRANCH   7  31
BRANCH   6  33
HETATM   33  O6  UNL     1       5.434 -12.664  68.907  1.00  0.00    -0.390 OA
ATOM     34  H6  UNL     1       5.004 -13.198  68.251  1.00  0.00     0.210 HD
ENDBRANCH   6  33
TORSDOF 11
ENDMDL
MODEL 5
REMARK VINA RESULT: -6.026589332      2.115      5.315
REMARK  11 active torsions:
REMARK  status: ('A' for Active; 'I' for Inactive)
REMARK    1  A    between atoms: N1_2  and  C2_5 
REMARK    2  A    between atoms: C2_5  and  C3_6 
REMARK    3  A    between atoms: C2_5  and  C19_32 
REMARK       I    between atoms: C3_6  and  N2_8 
REMARK    4  A    between atoms: N2_8  and  C4_10 
REMARK    5  A    between atoms: C5_11  and  O2_12 
REMARK    6  A    between atoms: O2_12  and  C6_13 
REMARK    7  A    between atoms: C6_13  and  O4_15 
REMARK    8  A    between atoms: O4_15  and  C7_16 
REMARK    9  A    between atoms: C7_16  and  C8_17 
REMARK   10  A    between atoms: C16_26  and  O6_27 
REMARK   11  A    between atoms: C17_29  and  O7_30 
ROOT
HETATM    1  C4  UNL     1       8.986 -14.352  67.754  1.00  0.00     0.171 C 
HETATM    2  C5  UNL     1       7.644 -14.626  68.345  1.00  0.00     0.297 C 
HETATM    3  O5  UNL     1       7.775 -15.408  69.500  1.00  0.00    -0.351 OA
HETATM    4  C14 UNL     1       8.695 -14.946  70.401  1.00  0.00     0.152 C 
HETATM    5  C15 UNL     1       9.844 -15.938  70.590  1.00  0.00     0.042 C 
HETATM    6  C16 UNL     1       9.291 -13.602  70.087  1.00  0.00     0.178 C 
HETATM    7  C17 UNL     1       9.883 -13.613  68.721  1.00  0.00     0.179 C 
ENDROOT
BRANCH   1   8
HETATM    8  N2  UNL     1       8.946 -13.623  66.496  1.00  0.00    -0.347 N 
HETATM    9  C3  UNL     1       9.034 -14.267  65.239  1.00  0.00     0.249 C 
HETATM   10  O1  UNL     1       9.153 -15.531  65.279  1.00  0.00    -0.271 OA
ATOM     11  H2  UNL     1       8.852 -12.608  66.521  1.00  0.00     0.163 HD
BRANCH   9  12
HETATM   12  C2  UNL     1       8.991 -13.501  64.000  1.00  0.00     0.279 C 
BRANCH  12  13
HETATM   13  N1  UNL     1       9.387 -12.092  64.277  1.00  0.00    -0.066 N 
HETATM   14  C1  UNL     1       8.549 -11.159  63.558  1.00  0.00     0.267 C 
ATOM     15  H12 UNL     1      10.375 -11.935  64.079  1.00  0.00     0.277 HD
ATOM     16  H11 UNL     1       9.394 -11.894  65.278  1.00  0.00     0.277 HD
ENDBRANCH  12  13
BRANCH  12  17
HETATM   17  C19 UNL     1       9.851 -13.946  62.880  1.00  0.00     0.017 C 
HETATM   18  C20 UNL     1      11.314 -14.001  63.101  1.00  0.00     0.012 C 
HETATM   19  C21 UNL     1       9.416 -15.365  62.477  1.00  0.00     0.012 C 
ENDBRANCH  12  17
ENDBRANCH   9  12
ENDBRANCH   1   8
BRANCH   2  20
HETATM   20  O2  UNL     1       6.855 -13.510  68.601  1.00  0.00    -0.264 OA
BRANCH  20  21
HETATM   21  C6  UNL     1       6.612 -12.581  67.605  1.00  0.00     0.409 C 
HETATM   22  O3  UNL     1       6.016 -12.896  66.540  1.00  0.00    -0.229 OA
BRANCH  21  23
HETATM   23  O4  UNL     1       7.007 -11.261  67.724  1.00  0.00    -0.293 OA
BRANCH  23  24
HETATM   24  C7  UNL     1       6.582 -10.449  68.828  1.00  0.00     0.219 C 
BRANCH  24  25
HETATM   25  C8  UNL     1       7.771  -9.915  69.538  1.00  0.00    -0.034 A 
HETATM   26  C9  UNL     1       7.582  -8.815  70.381  1.00  0.00     0.009 A 
HETATM   27  C10 UNL     1       8.645  -8.280  71.064  1.00  0.00     0.001 A 
HETATM   28  C11 UNL     1       9.907  -8.837  70.913  1.00  0.00     0.000 A 
HETATM   29  C12 UNL     1      10.123  -9.917  70.094  1.00  0.00     0.001 A 
HETATM   30  C13 UNL     1       9.036 -10.435  69.418  1.00  0.00     0.009 A 
ENDBRANCH  24  25
ENDBRANCH  23  24
ENDBRANCH  21  23
ENDBRANCH  20  21
ENDBRANCH   2  20
BRANCH   7  31
HETATM   31  O7  UNL     1      11.154 -14.194  68.780  1.00  0.00    -0.386 OA
HETATM   32  C18 UNL     1      12.075 -13.376  69.400  1.00  0.00     0.202 C 
ENDBRANCH   7  31
BRANCH   6  33
HETATM   33  O6  UNL     1      10.282 -13.308  71.034  1.00  0.00    -0.390 OA
ATOM     34  H6  UNL     1      10.898 -12.692  70.656  1.00  0.00     0.210 HD
ENDBRANCH   6  33
TORSDOF 11
ENDMDL
