MODEL 1
REMARK VINA RESULT: -4.532810200      0.000      0.000
REMARK  1 active torsions:
REMARK  status: ('A' for Active; 'I' for Inactive)
REMARK    1  A    between atoms: O1_2  and  C2_3 
ROOT
HETATM    1  C2  UNL     1     -33.282   3.221  18.486  1.00  0.00     0.070 A 
HETATM    2  C3  UNL     1     -33.217   1.864  18.700  1.00  0.00     0.063 A 
HETATM    3  C4  UNL     1     -33.996   1.297  19.683  1.00  0.00     0.064 A 
HETATM    4 CL1  UNL     1     -33.900  -0.431  19.941  1.00  0.00    -0.082 Cl
HETATM    5  C5  UNL     1     -34.811   2.121  20.412  1.00  0.00     0.065 A 
HETATM    6  N1  UNL     1     -35.533   1.582  21.392  1.00  0.00    -0.358 N 
ATOM      7  H1  UNL     1     -35.470   0.575  21.536  1.00  0.00     0.166 HD
HETATM    8  C6  UNL     1     -36.337   2.285  22.199  1.00  0.00     0.006 A 
HETATM    9  C7  UNL     1     -37.099   1.585  23.265  1.00  0.00     0.068 C 
HETATM   10  C8  UNL     1     -36.416   3.642  21.992  1.00  0.00     0.039 A 
HETATM   11  C9  UNL     1     -35.688   4.300  20.976  1.00  0.00     0.005 A 
HETATM   12  C10 UNL     1     -35.866   5.726  20.917  1.00  0.00     0.044 A 
HETATM   13  C11 UNL     1     -35.896   6.589  19.865  1.00  0.00     0.044 A 
HETATM   14  C12 UNL     1     -36.223   7.868  20.276  1.00  0.00    -0.004 A 
HETATM   15  C13 UNL     1     -36.363   9.022  19.578  1.00  0.00     0.033 A 
HETATM   16  C14 UNL     1     -36.704  10.203  20.236  1.00  0.00     0.013 A 
HETATM   17 BR1  UNL     1     -36.890  11.802  19.223  1.00  0.00    -0.051 Br
HETATM   18  C15 UNL     1     -36.887  10.135  21.593  1.00  0.00     0.045 A 
HETATM   19  C16 UNL     1     -36.741   8.950  22.284  1.00  0.00     0.062 A 
HETATM   20 CL2  UNL     1     -36.978   8.886  24.015  1.00  0.00    -0.082 Cl
HETATM   21  C17 UNL     1     -36.401   7.775  21.632  1.00  0.00     0.065 A 
HETATM   22  N2  UNL     1     -36.189   6.516  21.994  1.00  0.00    -0.353 N 
ATOM     23  H2  UNL     1     -36.258   6.176  22.953  1.00  0.00     0.166 HD
HETATM   24  C18 UNL     1     -34.894   3.508  20.208  1.00  0.00     0.007 A 
HETATM   25  C19 UNL     1     -34.117   4.049  19.239  1.00  0.00     0.051 A 
ENDROOT
BRANCH   1  26
HETATM   26  O1  UNL     1     -32.510   3.809  17.507  1.00  0.00    -0.356 OA
HETATM   27  C1  UNL     1     -31.255   3.264  17.207  1.00  0.00     0.210 C 
ENDBRANCH   1  26
TORSDOF 1
ENDMDL
MODEL 2
REMARK VINA RESULT: -3.340188121      2.635      2.784
REMARK  1 active torsions:
REMARK  status: ('A' for Active; 'I' for Inactive)
REMARK    1  A    between atoms: O1_2  and  C2_3 
ROOT
HETATM    1  C2  UNL     1     -37.140   2.121  19.341  1.00  0.00     0.070 A 
HETATM    2  C3  UNL     1     -36.953   0.948  20.036  1.00  0.00     0.063 A 
HETATM    3  C4  UNL     1     -36.647   1.000  21.378  1.00  0.00     0.064 A 
HETATM    4 CL1  UNL     1     -36.412  -0.501  22.245  1.00  0.00    -0.082 Cl
HETATM    5  C5  UNL     1     -36.542   2.232  21.965  1.00  0.00     0.065 A 
HETATM    6  N1  UNL     1     -36.204   2.287  23.252  1.00  0.00    -0.358 N 
ATOM      7  H1  UNL     1     -36.068   1.407  23.750  1.00  0.00     0.166 HD
HETATM    8  C6  UNL     1     -36.033   3.427  23.930  1.00  0.00     0.006 A 
HETATM    9  C7  UNL     1     -35.652   3.376  25.366  1.00  0.00     0.068 C 
HETATM   10  C8  UNL     1     -36.223   4.606  23.248  1.00  0.00     0.039 A 
HETATM   11  C9  UNL     1     -36.584   4.646  21.884  1.00  0.00     0.005 A 
HETATM   12  C10 UNL     1     -36.715   5.963  21.321  1.00  0.00     0.044 A 
HETATM   13  C11 UNL     1     -37.559   6.460  20.376  1.00  0.00     0.044 A 
HETATM   14  C12 UNL     1     -37.406   7.828  20.238  1.00  0.00    -0.004 A 
HETATM   15  C13 UNL     1     -38.028   8.719  19.427  1.00  0.00     0.033 A 
HETATM   16  C14 UNL     1     -37.689  10.070  19.480  1.00  0.00     0.013 A 
HETATM   17 BR1  UNL     1     -38.583  11.290  18.327  1.00  0.00    -0.051 Br
HETATM   18  C15 UNL     1     -36.717  10.440  20.373  1.00  0.00     0.045 A 
HETATM   19  C16 UNL     1     -36.098   9.517  21.190  1.00  0.00     0.062 A 
HETATM   20 CL2  UNL     1     -34.860  10.010  22.323  1.00  0.00    -0.082 Cl
HETATM   21  C17 UNL     1     -36.432   8.172  21.140  1.00  0.00     0.065 A 
HETATM   22  N2  UNL     1     -36.037   7.072  21.767  1.00  0.00    -0.353 N 
ATOM     23  H2  UNL     1     -35.319   7.051  22.490  1.00  0.00     0.166 HD
HETATM   24  C18 UNL     1     -36.732   3.440  21.275  1.00  0.00     0.007 A 
HETATM   25  C19 UNL     1     -37.029   3.370  19.954  1.00  0.00     0.051 A 
ENDROOT
BRANCH   1  26
HETATM   26  O1  UNL     1     -37.446   2.092  17.997  1.00  0.00    -0.356 OA
HETATM   27  C1  UNL     1     -37.761   3.290  17.342  1.00  0.00     0.210 C 
ENDBRANCH   1  26
TORSDOF 1
ENDMDL
MODEL 3
REMARK VINA RESULT: -3.083050120      3.578      6.986
REMARK  1 active torsions:
REMARK  status: ('A' for Active; 'I' for Inactive)
REMARK    1  A    between atoms: O1_2  and  C2_3 
ROOT
HETATM    1  C2  UNL     1     -35.432   7.709  22.921  1.00  0.00     0.070 A 
HETATM    2  C3  UNL     1     -36.692   7.813  23.462  1.00  0.00     0.063 A 
HETATM    3  C4  UNL     1     -37.517   6.711  23.471  1.00  0.00     0.064 A 
HETATM    4 CL1  UNL     1     -39.117   6.863  24.162  1.00  0.00    -0.082 Cl
HETATM    5  C5  UNL     1     -37.038   5.546  22.935  1.00  0.00     0.065 A 
HETATM    6  N1  UNL     1     -37.848   4.490  22.903  1.00  0.00    -0.358 N 
ATOM      7  H1  UNL     1     -38.779   4.587  23.307  1.00  0.00     0.166 HD
HETATM    8  C6  UNL     1     -37.512   3.309  22.372  1.00  0.00     0.006 A 
HETATM    9  C7  UNL     1     -38.494   2.193  22.386  1.00  0.00     0.068 C 
HETATM   10  C8  UNL     1     -36.252   3.189  21.834  1.00  0.00     0.039 A 
HETATM   11  C9  UNL     1     -35.325   4.254  21.825  1.00  0.00     0.005 A 
HETATM   12  C10 UNL     1     -34.063   3.965  21.198  1.00  0.00     0.044 A 
HETATM   13  C11 UNL     1     -32.799   4.382  21.480  1.00  0.00     0.044 A 
HETATM   14  C12 UNL     1     -31.870   3.742  20.680  1.00  0.00    -0.004 A 
HETATM   15  C13 UNL     1     -30.520   3.848  20.618  1.00  0.00     0.033 A 
HETATM   16  C14 UNL     1     -29.797   3.079  19.707  1.00  0.00     0.013 A 
HETATM   17 BR1  UNL     1     -27.905   3.257  19.649  1.00  0.00    -0.051 Br
HETATM   18  C15 UNL     1     -30.507   2.230  18.899  1.00  0.00     0.045 A 
HETATM   19  C16 UNL     1     -31.881   2.136  18.979  1.00  0.00     0.062 A 
HETATM   20 CL2  UNL     1     -32.767   1.046  17.939  1.00  0.00    -0.082 Cl
HETATM   21  C17 UNL     1     -32.603   2.900  19.883  1.00  0.00     0.065 A 
HETATM   22  N2  UNL     1     -33.884   3.040  20.197  1.00  0.00    -0.353 N 
ATOM     23  H2  UNL     1     -34.643   2.526  19.750  1.00  0.00     0.166 HD
HETATM   24  C18 UNL     1     -35.754   5.417  22.381  1.00  0.00     0.007 A 
HETATM   25  C19 UNL     1     -34.957   6.514  22.377  1.00  0.00     0.051 A 
ENDROOT
BRANCH   1  26
HETATM   26  O1  UNL     1     -34.590   8.800  22.902  1.00  0.00    -0.356 OA
HETATM   27  C1  UNL     1     -34.792   9.802  21.943  1.00  0.00     0.210 C 
ENDBRANCH   1  26
TORSDOF 1
ENDMDL
MODEL 4
REMARK VINA RESULT: -2.955834647      3.836      7.369
REMARK  1 active torsions:
REMARK  status: ('A' for Active; 'I' for Inactive)
REMARK    1  A    between atoms: O1_2  and  C2_3 
ROOT
HETATM    1  C2  UNL     1     -38.419   8.651  18.745  1.00  0.00     0.070 A 
HETATM    2  C3  UNL     1     -38.233   9.987  19.014  1.00  0.00     0.063 A 
HETATM    3  C4  UNL     1     -37.353  10.360  20.005  1.00  0.00     0.064 A 
HETATM    4 CL1  UNL     1     -37.130  12.063  20.335  1.00  0.00    -0.082 Cl
HETATM    5  C5  UNL     1     -36.694   9.370  20.684  1.00  0.00     0.065 A 
HETATM    6  N1  UNL     1     -35.875   9.726  21.672  1.00  0.00    -0.358 N 
ATOM      7  H1  UNL     1     -35.751  10.721  21.858  1.00  0.00     0.166 HD
HETATM    8  C6  UNL     1     -35.203   8.855  22.434  1.00  0.00     0.006 A 
HETATM    9  C7  UNL     1     -34.315   9.357  23.513  1.00  0.00     0.068 C 
HETATM   10  C8  UNL     1     -35.376   7.516  22.170  1.00  0.00     0.039 A 
HETATM   11  C9  UNL     1     -36.222   7.046  21.142  1.00  0.00     0.005 A 
HETATM   12  C10 UNL     1     -36.307   5.615  21.022  1.00  0.00     0.044 A 
HETATM   13  C11 UNL     1     -36.447   4.808  19.935  1.00  0.00     0.044 A 
HETATM   14  C12 UNL     1     -36.355   3.473  20.287  1.00  0.00    -0.004 A 
HETATM   15  C13 UNL     1     -36.435   2.345  19.541  1.00  0.00     0.033 A 
HETATM   16  C14 UNL     1     -36.307   1.095  20.144  1.00  0.00     0.013 A 
HETATM   17 BR1  UNL     1     -36.427  -0.466  19.064  1.00  0.00    -0.051 Br
HETATM   18  C15 UNL     1     -36.100   1.069  21.499  1.00  0.00     0.045 A 
HETATM   19  C16 UNL     1     -36.020   2.229  22.240  1.00  0.00     0.062 A 
HETATM   20 CL2  UNL     1     -35.756   2.174  23.967  1.00  0.00    -0.082 Cl
HETATM   21  C17 UNL     1     -36.147   3.474  21.643  1.00  0.00     0.065 A 
HETATM   22  N2  UNL     1     -36.122   4.734  22.060  1.00  0.00    -0.353 N 
ATOM     23  H2  UNL     1     -35.982   5.013  23.030  1.00  0.00     0.166 HD
HETATM   24  C18 UNL     1     -36.867   8.002  20.423  1.00  0.00     0.007 A 
HETATM   25  C19 UNL     1     -37.740   7.653  19.447  1.00  0.00     0.051 A 
ENDROOT
BRANCH   1  26
HETATM   26  O1  UNL     1     -39.296   8.256  17.757  1.00  0.00    -0.356 OA
HETATM   27  C1  UNL     1     -39.163   6.979  17.195  1.00  0.00     0.210 C 
ENDBRANCH   1  26
TORSDOF 1
ENDMDL
MODEL 5
REMARK VINA RESULT: -1.074471694      4.269      6.111
REMARK  1 active torsions:
REMARK  status: ('A' for Active; 'I' for Inactive)
REMARK    1  A    between atoms: O1_2  and  C2_3 
ROOT
HETATM    1  C2  UNL     1     -37.194   1.095  19.542  1.00  0.00     0.070 A 
HETATM    2  C3  UNL     1     -38.515   1.389  19.791  1.00  0.00     0.063 A 
HETATM    3  C4  UNL     1     -38.831   2.522  20.507  1.00  0.00     0.064 A 
HETATM    4 CL1  UNL     1     -40.516   2.880  20.815  1.00  0.00    -0.082 Cl
HETATM    5  C5  UNL     1     -37.803   3.314  20.943  1.00  0.00     0.065 A 
HETATM    6  N1  UNL     1     -38.103   4.387  21.672  1.00  0.00    -0.358 N 
ATOM      7  H1  UNL     1     -39.088   4.587  21.848  1.00  0.00     0.166 HD
HETATM    8  C6  UNL     1     -37.190   5.217  22.188  1.00  0.00     0.006 A 
HETATM    9  C7  UNL     1     -37.632   6.387  22.991  1.00  0.00     0.068 C 
HETATM   10  C8  UNL     1     -35.866   4.938  21.941  1.00  0.00     0.039 A 
HETATM   11  C9  UNL     1     -35.453   3.825  21.177  1.00  0.00     0.005 A 
HETATM   12  C10 UNL     1     -34.030   3.666  21.040  1.00  0.00     0.044 A 
HETATM   13  C11 UNL     1     -33.269   3.205  20.011  1.00  0.00     0.044 A 
HETATM   14  C12 UNL     1     -31.920   3.351  20.280  1.00  0.00    -0.004 A 
HETATM   15  C13 UNL     1     -30.823   3.032  19.551  1.00  0.00     0.033 A 
HETATM   16  C14 UNL     1     -29.549   3.285  20.054  1.00  0.00     0.013 A 
HETATM   17 BR1  UNL     1     -28.034   2.822  19.002  1.00  0.00    -0.051 Br
HETATM   18  C15 UNL     1     -29.466   3.861  21.295  1.00  0.00     0.045 A 
HETATM   19  C16 UNL     1     -30.595   4.180  22.021  1.00  0.00     0.062 A 
HETATM   20 CL2  UNL     1     -30.467   4.914  23.602  1.00  0.00    -0.082 Cl
HETATM   21  C17 UNL     1     -31.864   3.929  21.523  1.00  0.00     0.065 A 
HETATM   22  N2  UNL     1     -33.106   4.107  21.956  1.00  0.00    -0.353 N 
ATOM     23  H2  UNL     1     -33.344   4.521  22.857  1.00  0.00     0.166 HD
HETATM   24  C18 UNL     1     -36.449   3.033  20.698  1.00  0.00     0.007 A 
HETATM   25  C19 UNL     1     -36.157   1.913  19.994  1.00  0.00     0.051 A 
ENDROOT
BRANCH   1  26
HETATM   26  O1  UNL     1     -36.855  -0.034  18.828  1.00  0.00    -0.356 OA
HETATM   27  C1  UNL     1     -35.727  -0.772  19.209  1.00  0.00     0.210 C 
ENDBRANCH   1  26
TORSDOF 1
ENDMDL
