MODEL 1
REMARK VINA RESULT: -9.425196677      0.000      0.000
REMARK  2 active torsions:
REMARK  status: ('A' for Active; 'I' for Inactive)
REMARK       I    between atoms: C2_2  and  N1_4 
REMARK    1  A    between atoms: N1_4  and  C3_6 
REMARK    2  A    between atoms: C7_12  and  C8_13 
ROOT
HETATM    1  C8  UNL     1     -37.368   4.521  21.850  1.00  0.00     0.004 A 
HETATM    2  C9  UNL     1     -38.432   3.845  22.504  1.00  0.00     0.101 A 
HETATM    3  N2  UNL     1     -38.250   2.524  22.407  1.00  0.00    -0.364 N 
ATOM      4  H2  UNL     1     -38.876   1.819  22.796  1.00  0.00     0.165 HD
HETATM    5  C10 UNL     1     -37.120   2.257  21.720  1.00  0.00     0.045 A 
HETATM    6  C11 UNL     1     -36.498   1.085  21.327  1.00  0.00     0.054 A 
HETATM    7  C12 UNL     1     -35.313   1.107  20.581  1.00  0.00     0.058 A 
HETATM    8  C13 UNL     1     -34.709  -0.083  20.062  1.00  0.00     0.100 C 
HETATM    9  N3  UNL     1     -34.258  -1.086  19.613  1.00  0.00    -0.191 NA
HETATM   10  C14 UNL     1     -34.820   2.315  20.278  1.00  0.00     0.001 A 
HETATM   11  C15 UNL     1     -35.416   3.539  20.653  1.00  0.00    -0.032 A 
HETATM   12  C16 UNL     1     -36.572   3.507  21.375  1.00  0.00     0.010 A 
HETATM   13  C17 UNL     1     -34.684   4.699  20.170  1.00  0.00     0.041 C 
HETATM   14  C18 UNL     1     -34.435   4.570  18.655  1.00  0.00     0.009 C 
HETATM   15  C19 UNL     1     -33.535   3.393  18.347  1.00  0.00     0.042 C 
HETATM   16  C20 UNL     1     -33.574   2.412  19.517  1.00  0.00    -0.012 C 
HETATM   17  C21 UNL     1     -32.512   1.805  19.873  1.00  0.00     0.097 C 
HETATM   18  C22 UNL     1     -31.280   1.930  19.035  1.00  0.00     0.082 C 
HETATM   19  F1  UNL     1     -32.338   1.152  21.039  1.00  0.00    -0.211 F 
ENDROOT
BRANCH   1  20
HETATM   20  C7  UNL     1     -37.225   5.952  21.751  1.00  0.00     0.002 A 
HETATM   21  C6  UNL     1     -36.302   6.569  22.542  1.00  0.00     0.067 A 
HETATM   22  C5  UNL     1     -36.096   7.926  22.415  1.00  0.00     0.058 A 
HETATM   23 CL2  UNL     1     -35.370   5.669  23.737  1.00  0.00    -0.082 Cl
HETATM   24  C4  UNL     1     -36.811   8.638  21.503  1.00  0.00     0.055 A 
HETATM   25 CL1  UNL     1     -34.909   8.760  23.430  1.00  0.00    -0.082 Cl
HETATM   26  C3  UNL     1     -37.770   8.054  20.668  1.00  0.00     0.037 A 
HETATM   27  C23 UNL     1     -37.936   6.676  20.841  1.00  0.00     0.043 A 
BRANCH  26  28
HETATM   28  N1  UNL     1     -38.455   8.834  19.714  1.00  0.00    -0.327 N 
HETATM   29  C2  UNL     1     -37.910   9.992  19.145  1.00  0.00     0.218 C 
HETATM   30  C1  UNL     1     -38.678  10.818  18.146  1.00  0.00     0.117 C 
HETATM   31  O1  UNL     1     -36.776  10.386  19.441  1.00  0.00    -0.274 OA
ATOM     32  H1  UNL     1     -39.389   8.542  19.425  1.00  0.00     0.169 HD
ENDBRANCH  26  28
ENDBRANCH   1  20
TORSDOF 2
ENDMDL
MODEL 2
REMARK VINA RESULT: -7.000818206      2.896      4.047
REMARK  2 active torsions:
REMARK  status: ('A' for Active; 'I' for Inactive)
REMARK       I    between atoms: C2_2  and  N1_4 
REMARK    1  A    between atoms: N1_4  and  C3_6 
REMARK    2  A    between atoms: C7_12  and  C8_13 
ROOT
HETATM    1  C8  UNL     1     -34.048   4.840  22.373  1.00  0.00     0.004 A 
HETATM    2  C9  UNL     1     -33.450   5.156  23.623  1.00  0.00     0.101 A 
HETATM    3  N2  UNL     1     -32.141   4.889  23.572  1.00  0.00    -0.364 N 
ATOM      4  H2  UNL     1     -31.486   5.030  24.342  1.00  0.00     0.165 HD
HETATM    5  C10 UNL     1     -31.808   4.407  22.356  1.00  0.00     0.045 A 
HETATM    6  C11 UNL     1     -30.621   3.966  21.799  1.00  0.00     0.054 A 
HETATM    7  C12 UNL     1     -30.572   3.483  20.485  1.00  0.00     0.058 A 
HETATM    8  C13 UNL     1     -29.386   2.913  19.920  1.00  0.00     0.100 C 
HETATM    9  N3  UNL     1     -28.396   2.410  19.496  1.00  0.00    -0.191 NA
HETATM   10  C14 UNL     1     -31.727   3.478  19.806  1.00  0.00     0.001 A 
HETATM   11  C15 UNL     1     -32.963   3.915  20.330  1.00  0.00    -0.032 A 
HETATM   12  C16 UNL     1     -33.002   4.379  21.611  1.00  0.00     0.010 A 
HETATM   13  C17 UNL     1     -34.060   3.775  19.386  1.00  0.00     0.041 C 
HETATM   14  C18 UNL     1     -34.096   2.339  18.830  1.00  0.00     0.009 C 
HETATM   15  C19 UNL     1     -32.854   2.034  18.021  1.00  0.00     0.042 C 
HETATM   16  C20 UNL     1     -31.744   3.004  18.423  1.00  0.00    -0.012 C 
HETATM   17  C21 UNL     1     -30.952   3.463  17.537  1.00  0.00     0.097 C 
HETATM   18  C22 UNL     1     -31.008   2.917  16.147  1.00  0.00     0.082 C 
HETATM   19  F1  UNL     1     -30.134   4.523  17.695  1.00  0.00    -0.211 F 
ENDROOT
BRANCH   1  20
HETATM   20  C7  UNL     1     -35.445   4.997  22.054  1.00  0.00     0.002 A 
HETATM   21  C6  UNL     1     -36.306   3.999  22.400  1.00  0.00     0.067 A 
HETATM   22  C5  UNL     1     -37.656   4.157  22.169  1.00  0.00     0.058 A 
HETATM   23 CL2  UNL     1     -35.730   2.502  23.129  1.00  0.00    -0.082 Cl
HETATM   24  C4  UNL     1     -38.118   5.302  21.601  1.00  0.00     0.055 A 
HETATM   25 CL1  UNL     1     -38.803   2.879  22.602  1.00  0.00    -0.082 Cl
HETATM   26  C3  UNL     1     -37.276   6.356  21.227  1.00  0.00     0.037 A 
HETATM   27  C23 UNL     1     -35.919   6.141  21.484  1.00  0.00     0.043 A 
BRANCH  26  28
HETATM   28  N1  UNL     1     -37.815   7.538  20.675  1.00  0.00    -0.327 N 
HETATM   29  C2  UNL     1     -37.057   8.700  20.480  1.00  0.00     0.218 C 
HETATM   30  C1  UNL     1     -37.668   9.954  19.911  1.00  0.00     0.117 C 
HETATM   31  O1  UNL     1     -35.856   8.744  20.769  1.00  0.00    -0.274 OA
ATOM     32  H1  UNL     1     -38.799   7.546  20.407  1.00  0.00     0.169 HD
ENDBRANCH  26  28
ENDBRANCH   1  20
TORSDOF 2
ENDMDL
MODEL 3
REMARK VINA RESULT: -5.861457307      2.643      3.283
REMARK  2 active torsions:
REMARK  status: ('A' for Active; 'I' for Inactive)
REMARK       I    between atoms: C2_2  and  N1_4 
REMARK    1  A    between atoms: N1_4  and  C3_6 
REMARK    2  A    between atoms: C7_12  and  C8_13 
ROOT
HETATM    1  C8  UNL     1     -35.731   6.901  22.146  1.00  0.00     0.004 A 
HETATM    2  C9  UNL     1     -35.607   7.231  23.522  1.00  0.00     0.101 A 
HETATM    3  N2  UNL     1     -34.679   6.450  24.087  1.00  0.00    -0.364 N 
ATOM      4  H2  UNL     1     -34.402   6.489  25.068  1.00  0.00     0.165 HD
HETATM    5  C10 UNL     1     -34.162   5.603  23.173  1.00  0.00     0.045 A 
HETATM    6  C11 UNL     1     -33.211   4.599  23.235  1.00  0.00     0.054 A 
HETATM    7  C12 UNL     1     -32.879   3.842  22.104  1.00  0.00     0.058 A 
HETATM    8  C13 UNL     1     -31.988   2.723  22.162  1.00  0.00     0.100 C 
HETATM    9  N3  UNL     1     -31.276   1.777  22.254  1.00  0.00    -0.191 NA
HETATM   10  C14 UNL     1     -33.524   4.149  20.970  1.00  0.00     0.001 A 
HETATM   11  C15 UNL     1     -34.501   5.161  20.855  1.00  0.00    -0.032 A 
HETATM   12  C16 UNL     1     -34.821   5.889  21.962  1.00  0.00     0.010 A 
HETATM   13  C17 UNL     1     -35.058   5.263  19.515  1.00  0.00     0.041 C 
HETATM   14  C18 UNL     1     -35.541   3.879  19.040  1.00  0.00     0.009 C 
HETATM   15  C19 UNL     1     -34.384   2.913  18.902  1.00  0.00     0.042 C 
HETATM   16  C20 UNL     1     -33.212   3.411  19.746  1.00  0.00    -0.012 C 
HETATM   17  C21 UNL     1     -32.020   3.285  19.314  1.00  0.00     0.097 C 
HETATM   18  C22 UNL     1     -31.771   2.499  18.067  1.00  0.00     0.082 C 
HETATM   19  F1  UNL     1     -30.939   3.924  19.804  1.00  0.00    -0.211 F 
ENDROOT
BRANCH   1  20
HETATM   20  C7  UNL     1     -36.632   7.534  21.215  1.00  0.00     0.002 A 
HETATM   21  C6  UNL     1     -37.775   6.876  20.869  1.00  0.00     0.067 A 
HETATM   22  C5  UNL     1     -38.686   7.490  20.036  1.00  0.00     0.058 A 
HETATM   23 CL2  UNL     1     -38.109   5.248  21.455  1.00  0.00    -0.082 Cl
HETATM   24  C4  UNL     1     -38.442   8.743  19.569  1.00  0.00     0.055 A 
HETATM   25 CL1  UNL     1     -40.178   6.662  19.562  1.00  0.00    -0.082 Cl
HETATM   26  C3  UNL     1     -37.285   9.461  19.894  1.00  0.00     0.037 A 
HETATM   27  C23 UNL     1     -36.397   8.789  20.741  1.00  0.00     0.043 A 
BRANCH  26  28
HETATM   28  N1  UNL     1     -37.101  10.773  19.410  1.00  0.00    -0.327 N 
HETATM   29  C2  UNL     1     -37.972  11.375  18.493  1.00  0.00     0.218 C 
HETATM   30  C1  UNL     1     -37.734  12.771  17.977  1.00  0.00     0.117 C 
HETATM   31  O1  UNL     1     -38.971  10.785  18.068  1.00  0.00    -0.274 OA
ATOM     32  H1  UNL     1     -36.298  11.307  19.744  1.00  0.00     0.169 HD
ENDBRANCH  26  28
ENDBRANCH   1  20
TORSDOF 2
ENDMDL
MODEL 4
REMARK VINA RESULT: -5.626110909      3.675      7.163
REMARK  2 active torsions:
REMARK  status: ('A' for Active; 'I' for Inactive)
REMARK       I    between atoms: C2_2  and  N1_4 
REMARK    1  A    between atoms: N1_4  and  C3_6 
REMARK    2  A    between atoms: C7_12  and  C8_13 
ROOT
HETATM    1  C8  UNL     1     -34.197   1.731  20.102  1.00  0.00     0.004 A 
HETATM    2  C9  UNL     1     -34.700   0.404  20.165  1.00  0.00     0.101 A 
HETATM    3  N2  UNL     1     -35.742   0.360  21.002  1.00  0.00    -0.364 N 
ATOM      4  H2  UNL     1     -36.281  -0.479  21.220  1.00  0.00     0.165 HD
HETATM    5  C10 UNL     1     -35.980   1.585  21.517  1.00  0.00     0.045 A 
HETATM    6  C11 UNL     1     -36.903   2.073  22.425  1.00  0.00     0.054 A 
HETATM    7  C12 UNL     1     -36.904   3.421  22.805  1.00  0.00     0.058 A 
HETATM    8  C13 UNL     1     -37.768   3.931  23.827  1.00  0.00     0.100 C 
HETATM    9  N3  UNL     1     -38.471   4.312  24.705  1.00  0.00    -0.191 NA
HETATM   10  C14 UNL     1     -35.972   4.201  22.241  1.00  0.00     0.001 A 
HETATM   11  C15 UNL     1     -35.009   3.751  21.313  1.00  0.00    -0.032 A 
HETATM   12  C16 UNL     1     -35.014   2.437  20.952  1.00  0.00     0.010 A 
HETATM   13  C17 UNL     1     -34.103   4.804  20.879  1.00  0.00     0.041 C 
HETATM   14  C18 UNL     1     -33.497   5.514  22.106  1.00  0.00     0.009 C 
HETATM   15  C19 UNL     1     -34.564   6.231  22.905  1.00  0.00     0.042 C 
HETATM   16  C20 UNL     1     -35.928   5.624  22.579  1.00  0.00    -0.012 C 
HETATM   17  C21 UNL     1     -36.952   6.376  22.490  1.00  0.00     0.097 C 
HETATM   18  C22 UNL     1     -36.841   7.816  22.872  1.00  0.00     0.082 C 
HETATM   19  F1  UNL     1     -38.131   6.028  21.936  1.00  0.00    -0.211 F 
ENDROOT
BRANCH   1  20
HETATM   20  C7  UNL     1     -33.078   2.161  19.302  1.00  0.00     0.002 A 
HETATM   21  C6  UNL     1     -33.295   3.093  18.331  1.00  0.00     0.067 A 
HETATM   22  C5  UNL     1     -32.228   3.574  17.601  1.00  0.00     0.058 A 
HETATM   23 CL2  UNL     1     -34.914   3.693  17.981  1.00  0.00    -0.082 Cl
HETATM   24  C4  UNL     1     -30.972   3.117  17.852  1.00  0.00     0.055 A 
HETATM   25 CL1  UNL     1     -32.474   4.781  16.329  1.00  0.00    -0.082 Cl
HETATM   26  C3  UNL     1     -30.697   2.161  18.837  1.00  0.00     0.037 A 
HETATM   27  C23 UNL     1     -31.815   1.711  19.546  1.00  0.00     0.043 A 
BRANCH  26  28
HETATM   28  N1  UNL     1     -29.369   1.752  19.081  1.00  0.00    -0.327 N 
HETATM   29  C2  UNL     1     -28.348   2.646  19.427  1.00  0.00     0.218 C 
HETATM   30  C1  UNL     1     -26.934   2.180  19.657  1.00  0.00     0.117 C 
HETATM   31  O1  UNL     1     -28.566   3.857  19.554  1.00  0.00    -0.274 OA
ATOM     32  H1  UNL     1     -29.143   0.760  19.003  1.00  0.00     0.169 HD
ENDBRANCH  26  28
ENDBRANCH   1  20
TORSDOF 2
ENDMDL
