MODEL 1
REMARK VINA RESULT: -8.250606033      0.000      0.000
REMARK  3 active torsions:
REMARK  status: ('A' for Active; 'I' for Inactive)
REMARK    1  A    between atoms: C6_7  and  C7_8 
REMARK    2  A    between atoms: C8_11  and  N2_12 
REMARK    3  A    between atoms: C9_16  and  C10_17 
ROOT
HETATM    1  C7  UNL     1     -34.658   2.108  20.184  1.00  0.00     0.062 A 
HETATM    2  N1  UNL     1     -34.719   0.897  19.668  1.00  0.00    -0.335 N 
ATOM      3  H1  UNL     1     -33.876   0.332  19.569  1.00  0.00     0.168 HD
HETATM    4  C8  UNL     1     -35.898   0.428  19.278  1.00  0.00     0.143 A 
HETATM    5  S1  UNL     1     -36.964   1.703  19.635  1.00  0.00    -0.051 SA
HETATM    6  C9  UNL     1     -35.835   2.807  20.282  1.00  0.00     0.046 A 
ENDROOT
BRANCH   6   7
HETATM    7  C10 UNL     1     -36.046   4.165  20.814  1.00  0.00    -0.009 A 
HETATM    8  C11 UNL     1     -35.456   5.251  20.239  1.00  0.00     0.015 A 
HETATM    9  C12 UNL     1     -35.635   6.530  20.721  1.00  0.00     0.026 A 
HETATM   10  C13 UNL     1     -36.444   6.700  21.825  1.00  0.00     0.056 A 
HETATM   11 CL1  UNL     1     -36.721   8.300  22.498  1.00  0.00    -0.083 Cl
HETATM   12  C14 UNL     1     -37.043   5.591  22.410  1.00  0.00     0.062 A 
HETATM   13 CL2  UNL     1     -38.067   5.794  23.807  1.00  0.00    -0.082 Cl
HETATM   14  C15 UNL     1     -36.848   4.319  21.908  1.00  0.00    -0.027 A 
HETATM   15  C16 UNL     1     -37.495   3.125  22.538  1.00  0.00     0.051 C 
ENDBRANCH   6   7
BRANCH   1  16
HETATM   16  C6  UNL     1     -33.365   2.706  20.648  1.00  0.00    -0.006 A 
HETATM   17  C5  UNL     1     -32.245   2.530  19.881  1.00  0.00     0.032 A 
HETATM   18  C4  UNL     1     -31.020   3.079  20.282  1.00  0.00     0.012 A 
HETATM   19  C3  UNL     1     -30.958   3.801  21.463  1.00  0.00     0.026 A 
HETATM   20 BR1  UNL     1     -29.441   2.860  19.250  1.00  0.00    -0.051 Br
HETATM   21  C2  UNL     1     -32.080   3.986  22.245  1.00  0.00    -0.060 A 
HETATM   22  C1  UNL     1     -31.991   4.766  23.515  1.00  0.00     0.048 C 
HETATM   23  C17 UNL     1     -33.266   3.427  21.811  1.00  0.00     0.020 A 
ENDBRANCH   1  16
BRANCH   4  24
HETATM   24  N2  UNL     1     -36.159  -0.749  18.742  1.00  0.00    -0.380 N 
ATOM     25  H22 UNL     1     -36.564  -1.579  19.177  1.00  0.00     0.158 HD
ATOM     26  H21 UNL     1     -35.998  -1.043  17.780  1.00  0.00     0.158 HD
ENDBRANCH   4  24
TORSDOF 3
ENDMDL
MODEL 2
REMARK VINA RESULT: -8.179103344      2.179      2.473
REMARK  3 active torsions:
REMARK  status: ('A' for Active; 'I' for Inactive)
REMARK    1  A    between atoms: C6_7  and  C7_8 
REMARK    2  A    between atoms: C8_11  and  N2_12 
REMARK    3  A    between atoms: C9_16  and  C10_17 
ROOT
HETATM    1  C7  UNL     1     -35.261   2.738  21.746  1.00  0.00     0.062 A 
HETATM    2  N1  UNL     1     -35.622   1.491  21.969  1.00  0.00    -0.335 N 
ATOM      3  H1  UNL     1     -35.003   0.719  21.723  1.00  0.00     0.168 HD
HETATM    4  C8  UNL     1     -36.808   1.258  22.519  1.00  0.00     0.143 A 
HETATM    5  S1  UNL     1     -37.451   2.816  22.738  1.00  0.00    -0.051 SA
HETATM    6  C9  UNL     1     -36.150   3.721  22.103  1.00  0.00     0.046 A 
ENDROOT
BRANCH   6   7
HETATM    7  C10 UNL     1     -36.000   5.180  21.964  1.00  0.00    -0.009 A 
HETATM    8  C11 UNL     1     -35.014   5.857  22.619  1.00  0.00     0.015 A 
HETATM    9  C12 UNL     1     -34.857   7.222  22.509  1.00  0.00     0.026 A 
HETATM   10  C13 UNL     1     -35.736   7.913  21.702  1.00  0.00     0.056 A 
HETATM   11 CL1  UNL     1     -35.600   9.655  21.510  1.00  0.00    -0.083 Cl
HETATM   12  C14 UNL     1     -36.740   7.221  21.036  1.00  0.00     0.062 A 
HETATM   13 CL2  UNL     1     -37.858   8.085  20.014  1.00  0.00    -0.082 Cl
HETATM   14  C15 UNL     1     -36.878   5.852  21.163  1.00  0.00    -0.027 A 
HETATM   15  C16 UNL     1     -37.960   5.107  20.444  1.00  0.00     0.051 C 
ENDBRANCH   6   7
BRANCH   1  16
HETATM   16  C6  UNL     1     -33.939   3.082  21.131  1.00  0.00    -0.006 A 
HETATM   17  C5  UNL     1     -33.846   3.150  19.767  1.00  0.00     0.032 A 
HETATM   18  C4  UNL     1     -32.627   3.473  19.156  1.00  0.00     0.012 A 
HETATM   19  C3  UNL     1     -31.519   3.721  19.952  1.00  0.00     0.026 A 
HETATM   20 BR1  UNL     1     -32.451   3.580  17.269  1.00  0.00    -0.051 Br
HETATM   21  C2  UNL     1     -31.600   3.655  21.328  1.00  0.00    -0.060 A 
HETATM   22  C1  UNL     1     -30.394   3.924  22.166  1.00  0.00     0.048 C 
HETATM   23  C17 UNL     1     -32.822   3.333  21.886  1.00  0.00     0.020 A 
ENDBRANCH   1  16
BRANCH   4  24
HETATM   24  N2  UNL     1     -37.341   0.088  22.816  1.00  0.00    -0.380 N 
ATOM     25  H22 UNL     1     -37.636  -0.663  22.191  1.00  0.00     0.158 HD
ATOM     26  H21 UNL     1     -37.557  -0.279  23.742  1.00  0.00     0.158 HD
ENDBRANCH   4  24
TORSDOF 3
ENDMDL
MODEL 3
REMARK VINA RESULT: -7.806679846      3.995      5.873
REMARK  3 active torsions:
REMARK  status: ('A' for Active; 'I' for Inactive)
REMARK    1  A    between atoms: C6_7  and  C7_8 
REMARK    2  A    between atoms: C8_11  and  N2_12 
REMARK    3  A    between atoms: C9_16  and  C10_17 
ROOT
HETATM    1  C7  UNL     1     -36.453   3.853  20.739  1.00  0.00     0.062 A 
HETATM    2  N1  UNL     1     -37.557   4.499  21.057  1.00  0.00    -0.335 N 
ATOM      3  H1  UNL     1     -38.418   3.989  21.254  1.00  0.00     0.168 HD
HETATM    4  C8  UNL     1     -37.528   5.825  21.115  1.00  0.00     0.143 A 
HETATM    5  S1  UNL     1     -35.918   6.198  20.716  1.00  0.00    -0.051 SA
HETATM    6  C9  UNL     1     -35.336   4.610  20.487  1.00  0.00     0.046 A 
ENDROOT
BRANCH   6   7
HETATM    7  C10 UNL     1     -33.988   4.148  20.114  1.00  0.00    -0.009 A 
HETATM    8  C11 UNL     1     -33.681   3.824  18.825  1.00  0.00     0.015 A 
HETATM    9  C12 UNL     1     -32.428   3.385  18.453  1.00  0.00     0.026 A 
HETATM   10  C13 UNL     1     -31.462   3.275  19.431  1.00  0.00     0.056 A 
HETATM   11 CL1  UNL     1     -29.841   2.722  19.034  1.00  0.00    -0.083 Cl
HETATM   12  C14 UNL     1     -31.778   3.605  20.743  1.00  0.00     0.062 A 
HETATM   13 CL2  UNL     1     -30.564   3.468  21.988  1.00  0.00    -0.082 Cl
HETATM   14  C15 UNL     1     -33.041   4.042  21.092  1.00  0.00    -0.027 A 
HETATM   15  C16 UNL     1     -33.380   4.398  22.506  1.00  0.00     0.051 C 
ENDBRANCH   6   7
BRANCH   1  16
HETATM   16  C6  UNL     1     -36.406   2.358  20.656  1.00  0.00    -0.006 A 
HETATM   17  C5  UNL     1     -36.596   1.629  21.798  1.00  0.00     0.032 A 
HETATM   18  C4  UNL     1     -36.564   0.228  21.757  1.00  0.00     0.012 A 
HETATM   19  C3  UNL     1     -36.337  -0.406  20.545  1.00  0.00     0.026 A 
HETATM   20 BR1  UNL     1     -36.823  -0.824  23.316  1.00  0.00    -0.051 Br
HETATM   21  C2  UNL     1     -36.144   0.318  19.387  1.00  0.00    -0.060 A 
HETATM   22  C1  UNL     1     -35.899  -0.385  18.092  1.00  0.00     0.048 C 
HETATM   23  C17 UNL     1     -36.184   1.696  19.475  1.00  0.00     0.020 A 
ENDBRANCH   1  16
BRANCH   4  24
HETATM   24  N2  UNL     1     -38.522   6.639  21.412  1.00  0.00    -0.380 N 
ATOM     25  H22 UNL     1     -38.509   7.496  21.966  1.00  0.00     0.158 HD
ATOM     26  H21 UNL     1     -39.499   6.555  21.133  1.00  0.00     0.158 HD
ENDBRANCH   4  24
TORSDOF 3
ENDMDL
MODEL 4
REMARK VINA RESULT: -7.770887820      1.213      1.620
REMARK  3 active torsions:
REMARK  status: ('A' for Active; 'I' for Inactive)
REMARK    1  A    between atoms: C6_7  and  C7_8 
REMARK    2  A    between atoms: C8_11  and  N2_12 
REMARK    3  A    between atoms: C9_16  and  C10_17 
ROOT
HETATM    1  C7  UNL     1     -34.461   1.793  20.323  1.00  0.00     0.062 A 
HETATM    2  N1  UNL     1     -34.571   0.584  19.811  1.00  0.00    -0.335 N 
ATOM      3  H1  UNL     1     -33.761   0.115  19.406  1.00  0.00     0.168 HD
HETATM    4  C8  UNL     1     -35.758  -0.013  19.830  1.00  0.00     0.143 A 
HETATM    5  S1  UNL     1     -36.760   1.136  20.583  1.00  0.00    -0.051 SA
HETATM    6  C9  UNL     1     -35.597   2.357  20.848  1.00  0.00     0.046 A 
ENDROOT
BRANCH   6   7
HETATM    7  C10 UNL     1     -35.751   3.681  21.473  1.00  0.00    -0.009 A 
HETATM    8  C11 UNL     1     -35.192   3.963  22.685  1.00  0.00     0.015 A 
HETATM    9  C12 UNL     1     -35.326   5.193  23.292  1.00  0.00     0.026 A 
HETATM   10  C13 UNL     1     -36.055   6.163  22.638  1.00  0.00     0.056 A 
HETATM   11 CL1  UNL     1     -36.271   7.756  23.349  1.00  0.00    -0.083 Cl
HETATM   12  C14 UNL     1     -36.625   5.874  21.404  1.00  0.00     0.062 A 
HETATM   13 CL2  UNL     1     -37.549   7.094  20.568  1.00  0.00    -0.082 Cl
HETATM   14  C15 UNL     1     -36.476   4.633  20.815  1.00  0.00    -0.027 A 
HETATM   15  C16 UNL     1     -37.089   4.323  19.485  1.00  0.00     0.051 C 
ENDBRANCH   6   7
BRANCH   1  16
HETATM   16  C6  UNL     1     -33.156   2.529  20.340  1.00  0.00    -0.006 A 
HETATM   17  C5  UNL     1     -32.483   2.703  19.161  1.00  0.00     0.032 A 
HETATM   18  C4  UNL     1     -31.262   3.390  19.138  1.00  0.00     0.012 A 
HETATM   19  C3  UNL     1     -30.748   3.891  20.324  1.00  0.00     0.026 A 
HETATM   20 BR1  UNL     1     -30.294   3.655  17.526  1.00  0.00    -0.051 Br
HETATM   21  C2  UNL     1     -31.417   3.723  21.519  1.00  0.00    -0.060 A 
HETATM   22  C1  UNL     1     -30.844   4.269  22.785  1.00  0.00     0.048 C 
HETATM   23  C17 UNL     1     -32.616   3.039  21.494  1.00  0.00     0.020 A 
ENDBRANCH   1  16
BRANCH   4  24
HETATM   24  N2  UNL     1     -36.064  -1.210  19.369  1.00  0.00    -0.380 N 
ATOM     25  H22 UNL     1     -36.885  -1.784  19.562  1.00  0.00     0.158 HD
ATOM     26  H21 UNL     1     -35.522  -1.785  18.725  1.00  0.00     0.158 HD
ENDBRANCH   4  24
TORSDOF 3
ENDMDL
MODEL 5
REMARK VINA RESULT: -7.687105518      3.931      5.622
REMARK  3 active torsions:
REMARK  status: ('A' for Active; 'I' for Inactive)
REMARK    1  A    between atoms: C6_7  and  C7_8 
REMARK    2  A    between atoms: C8_11  and  N2_12 
REMARK    3  A    between atoms: C9_16  and  C10_17 
ROOT
HETATM    1  C7  UNL     1     -36.470   3.961  21.070  1.00  0.00     0.062 A 
HETATM    2  N1  UNL     1     -37.543   4.627  21.446  1.00  0.00    -0.335 N 
ATOM      3  H1  UNL     1     -38.393   4.132  21.717  1.00  0.00     0.168 HD
HETATM    4  C8  UNL     1     -37.498   5.954  21.465  1.00  0.00     0.143 A 
HETATM    5  S1  UNL     1     -35.916   6.298  20.944  1.00  0.00    -0.051 SA
HETATM    6  C9  UNL     1     -35.366   4.698  20.719  1.00  0.00     0.046 A 
ENDROOT
BRANCH   6   7
HETATM    7  C10 UNL     1     -34.052   4.211  20.266  1.00  0.00    -0.009 A 
HETATM    8  C11 UNL     1     -33.828   3.885  18.961  1.00  0.00     0.015 A 
HETATM    9  C12 UNL     1     -32.608   3.423  18.514  1.00  0.00     0.026 A 
HETATM   10  C13 UNL     1     -31.589   3.291  19.433  1.00  0.00     0.056 A 
HETATM   11 CL1  UNL     1     -30.006   2.708  18.940  1.00  0.00    -0.083 Cl
HETATM   12  C14 UNL     1     -31.820   3.623  20.763  1.00  0.00     0.062 A 
HETATM   13 CL2  UNL     1     -30.538   3.458  21.933  1.00  0.00    -0.082 Cl
HETATM   14  C15 UNL     1     -33.051   4.084  21.186  1.00  0.00    -0.027 A 
HETATM   15  C16 UNL     1     -33.299   4.441  22.619  1.00  0.00     0.051 C 
ENDBRANCH   6   7
BRANCH   1  16
HETATM   16  C6  UNL     1     -36.443   2.464  21.025  1.00  0.00    -0.006 A 
HETATM   17  C5  UNL     1     -36.209   1.845  19.827  1.00  0.00     0.032 A 
HETATM   18  C4  UNL     1     -36.172   0.447  19.747  1.00  0.00     0.012 A 
HETATM   19  C3  UNL     1     -36.376  -0.300  20.898  1.00  0.00     0.026 A 
HETATM   20 BR1  UNL     1     -35.851  -0.454  18.107  1.00  0.00    -0.051 Br
HETATM   21  C2  UNL     1     -36.612   0.312  22.112  1.00  0.00    -0.060 A 
HETATM   22  C1  UNL     1     -36.831  -0.511  23.339  1.00  0.00     0.048 C 
HETATM   23  C17 UNL     1     -36.640   1.692  22.143  1.00  0.00     0.020 A 
ENDBRANCH   1  16
BRANCH   4  24
HETATM   24  N2  UNL     1     -38.461   6.787  21.807  1.00  0.00    -0.380 N 
ATOM     25  H22 UNL     1     -38.625   7.248  22.702  1.00  0.00     0.158 HD
ATOM     26  H21 UNL     1     -39.227   7.125  21.225  1.00  0.00     0.158 HD
ENDBRANCH   4  24
TORSDOF 3
ENDMDL
