MODEL 1
REMARK VINA RESULT: -9.454464381      0.000      0.000
REMARK  5 active torsions:
REMARK  status: ('A' for Active; 'I' for Inactive)
REMARK    1  A    between atoms: C2_2  and  C3_3 
REMARK    2  A    between atoms: C2_2  and  C19_27 
REMARK    3  A    between atoms: C4_4  and  C5_5 
REMARK    4  A    between atoms: C5_5  and  C6_6 
REMARK    5  A    between atoms: C16_19  and  O1_20 
ROOT
HETATM    1  C3  UNL     1     -36.795   4.601  21.505  1.00  0.00     0.022 A 
HETATM    2  C4  UNL     1     -36.055   3.712  20.748  1.00  0.00    -0.029 A 
HETATM    3  C12 UNL     1     -36.013   2.331  21.021  1.00  0.00     0.002 A 
HETATM    4  C13 UNL     1     -35.387   1.422  20.208  1.00  0.00     0.038 A 
HETATM    5  C14 UNL     1     -35.424   0.054  20.394  1.00  0.00     0.037 A 
HETATM    6 CL3  UNL     1     -34.614  -1.030  19.256  1.00  0.00    -0.084 Cl
HETATM    7  C15 UNL     1     -36.133  -0.422  21.466  1.00  0.00     0.062 A 
HETATM    8  C16 UNL     1     -36.787   0.437  22.323  1.00  0.00     0.095 A 
HETATM    9  C17 UNL     1     -36.728   1.816  22.092  1.00  0.00     0.079 A 
HETATM   10  N1  UNL     1     -37.433   2.683  22.820  1.00  0.00    -0.320 N 
ATOM     11  H1  UNL     1     -37.964   2.326  23.614  1.00  0.00     0.169 HD
HETATM   12  C18 UNL     1     -37.483   4.012  22.562  1.00  0.00     0.253 A 
HETATM   13  O2  UNL     1     -38.198   4.662  23.362  1.00  0.00    -0.268 OA
ENDROOT
BRANCH   2  14
HETATM   14  C5  UNL     1     -35.312   4.126  19.568  1.00  0.00     0.078 C 
BRANCH  14  15
HETATM   15  C6  UNL     1     -33.857   3.857  19.633  1.00  0.00    -0.051 A 
HETATM   16  C7  UNL     1     -33.262   3.516  18.436  1.00  0.00     0.031 A 
HETATM   17  C8  UNL     1     -31.913   3.258  18.345  1.00  0.00     0.036 A 
HETATM   18 CL1  UNL     1     -31.193   2.830  16.812  1.00  0.00    -0.084 Cl
HETATM   19  C9  UNL     1     -31.138   3.345  19.485  1.00  0.00     0.047 A 
HETATM   20  C10 UNL     1     -31.752   3.687  20.670  1.00  0.00     0.036 A 
HETATM   21 CL2  UNL     1     -30.785   3.803  22.106  1.00  0.00    -0.084 Cl
HETATM   22  C11 UNL     1     -33.110   3.944  20.760  1.00  0.00     0.031 A 
ENDBRANCH  14  15
ENDBRANCH   2  14
BRANCH   1  23
HETATM   23  C2  UNL     1     -36.845   6.046  21.244  1.00  0.00     0.028 C 
HETATM   24  C1  UNL     1     -38.330   6.508  21.178  1.00  0.00     0.016 C 
BRANCH  23  25
HETATM   25  C19 UNL     1     -36.130   7.007  22.108  1.00  0.00    -0.044 C 
HETATM   26  C20 UNL     1     -34.771   6.702  22.603  1.00  0.00     0.015 C 
HETATM   27  C21 UNL     1     -35.862   8.241  21.130  1.00  0.00     0.015 C 
HETATM   28  C22 UNL     1     -36.867   7.654  23.242  1.00  0.00     0.015 C 
ENDBRANCH  23  25
ENDBRANCH   1  23
BRANCH   8  29
HETATM   29  O1  UNL     1     -37.475  -0.070  23.370  1.00  0.00    -0.358 OA
ATOM     30  H1  UNL     1     -37.738   0.508  24.078  1.00  0.00     0.217 HD
ENDBRANCH   8  29
TORSDOF 5
ENDMDL
MODEL 2
REMARK VINA RESULT: -9.383778351      0.172      1.703
REMARK  5 active torsions:
REMARK  status: ('A' for Active; 'I' for Inactive)
REMARK    1  A    between atoms: C2_2  and  C3_3 
REMARK    2  A    between atoms: C2_2  and  C19_27 
REMARK    3  A    between atoms: C4_4  and  C5_5 
REMARK    4  A    between atoms: C5_5  and  C6_6 
REMARK    5  A    between atoms: C16_19  and  O1_20 
ROOT
HETATM    1  C3  UNL     1     -36.816   4.608  21.513  1.00  0.00     0.022 A 
HETATM    2  C4  UNL     1     -36.138   3.720  20.698  1.00  0.00    -0.029 A 
HETATM    3  C12 UNL     1     -36.077   2.338  20.963  1.00  0.00     0.002 A 
HETATM    4  C13 UNL     1     -35.518   1.431  20.102  1.00  0.00     0.038 A 
HETATM    5  C14 UNL     1     -35.542   0.062  20.285  1.00  0.00     0.037 A 
HETATM    6 CL3  UNL     1     -34.825  -1.019  19.085  1.00  0.00    -0.084 Cl
HETATM    7  C15 UNL     1     -36.168  -0.416  21.407  1.00  0.00     0.062 A 
HETATM    8  C16 UNL     1     -36.753   0.441  22.314  1.00  0.00     0.095 A 
HETATM    9  C17 UNL     1     -36.708   1.821  22.084  1.00  0.00     0.079 A 
HETATM   10  N1  UNL     1     -37.354   2.687  22.867  1.00  0.00    -0.320 N 
ATOM     11  H1  UNL     1     -37.823   2.328  23.698  1.00  0.00     0.169 HD
HETATM   12  C18 UNL     1     -37.422   4.016  22.618  1.00  0.00     0.253 A 
HETATM   13  O2  UNL     1     -38.071   4.665  23.473  1.00  0.00    -0.268 OA
ENDROOT
BRANCH   2  14
HETATM   14  C5  UNL     1     -35.487   4.136  19.466  1.00  0.00     0.078 C 
BRANCH  14  15
HETATM   15  C6  UNL     1     -34.033   3.862  19.417  1.00  0.00    -0.051 A 
HETATM   16  C7  UNL     1     -33.367   3.969  20.621  1.00  0.00     0.031 A 
HETATM   17  C8  UNL     1     -32.017   3.723  20.727  1.00  0.00     0.036 A 
HETATM   18 CL1  UNL     1     -31.207   3.866  22.268  1.00  0.00    -0.084 Cl
HETATM   19  C9  UNL     1     -31.313   3.359  19.595  1.00  0.00     0.047 A 
HETATM   20  C10 UNL     1     -31.997   3.259  18.403  1.00  0.00     0.036 A 
HETATM   21 CL2  UNL     1     -31.122   2.797  16.978  1.00  0.00    -0.084 Cl
HETATM   22  C11 UNL     1     -33.355   3.508  18.299  1.00  0.00     0.031 A 
ENDBRANCH  14  15
ENDBRANCH   2  14
BRANCH   1  23
HETATM   23  C2  UNL     1     -36.882   6.054  21.261  1.00  0.00     0.028 C 
HETATM   24  C1  UNL     1     -38.372   6.507  21.247  1.00  0.00     0.016 C 
BRANCH  23  25
HETATM   25  C19 UNL     1     -36.145   7.015  22.105  1.00  0.00    -0.044 C 
HETATM   26  C20 UNL     1     -34.784   6.697  22.588  1.00  0.00     0.015 C 
HETATM   27  C21 UNL     1     -35.872   8.233  21.110  1.00  0.00     0.015 C 
HETATM   28  C22 UNL     1     -36.859   7.685  23.240  1.00  0.00     0.015 C 
ENDBRANCH  23  25
ENDBRANCH   1  23
BRANCH   8  29
HETATM   29  O1  UNL     1     -37.359  -0.068  23.410  1.00  0.00    -0.358 OA
ATOM     30  H1  UNL     1     -38.297   0.037  23.514  1.00  0.00     0.217 HD
ENDBRANCH   8  29
TORSDOF 5
ENDMDL
MODEL 3
REMARK VINA RESULT: -9.342071453      1.998      5.396
REMARK  5 active torsions:
REMARK  status: ('A' for Active; 'I' for Inactive)
REMARK    1  A    between atoms: C2_2  and  C3_3 
REMARK    2  A    between atoms: C2_2  and  C19_27 
REMARK    3  A    between atoms: C4_4  and  C5_5 
REMARK    4  A    between atoms: C5_5  and  C6_6 
REMARK    5  A    between atoms: C16_19  and  O1_20 
ROOT
HETATM    1  C3  UNL     1     -36.307   2.948  21.064  1.00  0.00     0.022 A 
HETATM    2  C4  UNL     1     -35.546   4.057  21.384  1.00  0.00    -0.029 A 
HETATM    3  C12 UNL     1     -36.042   5.373  21.295  1.00  0.00     0.002 A 
HETATM    4  C13 UNL     1     -35.345   6.470  21.726  1.00  0.00     0.038 A 
HETATM    5  C14 UNL     1     -35.850   7.755  21.751  1.00  0.00     0.037 A 
HETATM    6 CL3  UNL     1     -34.873   9.093  22.370  1.00  0.00    -0.084 Cl
HETATM    7  C15 UNL     1     -37.135   7.941  21.313  1.00  0.00     0.062 A 
HETATM    8  C16 UNL     1     -37.893   6.880  20.867  1.00  0.00     0.095 A 
HETATM    9  C17 UNL     1     -37.342   5.593  20.865  1.00  0.00     0.079 A 
HETATM   10  N1  UNL     1     -38.066   4.517  20.553  1.00  0.00    -0.320 N 
ATOM     11  H1  UNL     1     -39.023   4.657  20.231  1.00  0.00     0.169 HD
HETATM   12  C18 UNL     1     -37.599   3.249  20.639  1.00  0.00     0.253 A 
HETATM   13  O2  UNL     1     -38.429   2.373  20.298  1.00  0.00    -0.268 OA
ENDROOT
BRANCH   2  14
HETATM   14  C5  UNL     1     -34.191   3.948  21.899  1.00  0.00     0.078 C 
BRANCH  14  15
HETATM   15  C6  UNL     1     -33.145   3.827  20.858  1.00  0.00    -0.051 A 
HETATM   16  C7  UNL     1     -31.848   3.759  21.323  1.00  0.00     0.031 A 
HETATM   17  C8  UNL     1     -30.778   3.626  20.468  1.00  0.00     0.036 A 
HETATM   18 CL1  UNL     1     -29.148   3.543  21.093  1.00  0.00    -0.084 Cl
HETATM   19  C9  UNL     1     -31.013   3.557  19.109  1.00  0.00     0.047 A 
HETATM   20  C10 UNL     1     -32.316   3.626  18.665  1.00  0.00     0.036 A 
HETATM   21 CL2  UNL     1     -32.620   3.535  16.960  1.00  0.00    -0.084 Cl
HETATM   22  C11 UNL     1     -33.391   3.762  19.527  1.00  0.00     0.031 A 
ENDBRANCH  14  15
ENDBRANCH   2  14
BRANCH   1  23
HETATM   23  C2  UNL     1     -35.806   1.569  21.139  1.00  0.00     0.028 C 
HETATM   24  C1  UNL     1     -36.728   0.736  22.076  1.00  0.00     0.016 C 
BRANCH  23  25
HETATM   25  C19 UNL     1     -35.586   0.765  19.921  1.00  0.00    -0.044 C 
HETATM   26  C20 UNL     1     -35.578   1.409  18.590  1.00  0.00     0.015 C 
HETATM   27  C21 UNL     1     -34.069   0.289  20.071  1.00  0.00     0.015 C 
HETATM   28  C22 UNL     1     -36.314  -0.537  19.766  1.00  0.00     0.015 C 
ENDBRANCH  23  25
ENDBRANCH   1  23
BRANCH   8  29
HETATM   29  O1  UNL     1     -39.156   7.102  20.440  1.00  0.00    -0.358 OA
ATOM     30  H1  UNL     1     -39.756   7.588  20.994  1.00  0.00     0.217 HD
ENDBRANCH   8  29
TORSDOF 5
ENDMDL
MODEL 4
REMARK VINA RESULT: -9.021622190      2.033      5.215
REMARK  5 active torsions:
REMARK  status: ('A' for Active; 'I' for Inactive)
REMARK    1  A    between atoms: C2_2  and  C3_3 
REMARK    2  A    between atoms: C2_2  and  C19_27 
REMARK    3  A    between atoms: C4_4  and  C5_5 
REMARK    4  A    between atoms: C5_5  and  C6_6 
REMARK    5  A    between atoms: C16_19  and  O1_20 
ROOT
HETATM    1  C3  UNL     1     -36.228   3.027  21.140  1.00  0.00     0.022 A 
HETATM    2  C4  UNL     1     -35.485   4.123  21.538  1.00  0.00    -0.029 A 
HETATM    3  C12 UNL     1     -35.957   5.446  21.425  1.00  0.00     0.002 A 
HETATM    4  C13 UNL     1     -35.287   6.529  21.928  1.00  0.00     0.038 A 
HETATM    5  C14 UNL     1     -35.778   7.820  21.928  1.00  0.00     0.037 A 
HETATM    6 CL3  UNL     1     -34.843   9.138  22.644  1.00  0.00    -0.084 Cl
HETATM    7  C15 UNL     1     -37.020   8.026  21.386  1.00  0.00     0.062 A 
HETATM    8  C16 UNL     1     -37.749   6.980  20.864  1.00  0.00     0.095 A 
HETATM    9  C17 UNL     1     -37.213   5.687  20.891  1.00  0.00     0.079 A 
HETATM   10  N1  UNL     1     -37.920   4.623  20.504  1.00  0.00    -0.320 N 
ATOM     11  H1  UNL     1     -38.846   4.779  20.105  1.00  0.00     0.169 HD
HETATM   12  C18 UNL     1     -37.476   3.348  20.612  1.00  0.00     0.253 A 
HETATM   13  O2  UNL     1     -38.284   2.487  20.190  1.00  0.00    -0.268 OA
ENDROOT
BRANCH   2  14
HETATM   14  C5  UNL     1     -34.179   3.991  22.164  1.00  0.00     0.078 C 
BRANCH  14  15
HETATM   15  C6  UNL     1     -33.056   3.826  21.213  1.00  0.00    -0.051 A 
HETATM   16  C7  UNL     1     -33.407   3.782  19.880  1.00  0.00     0.031 A 
HETATM   17  C8  UNL     1     -32.464   3.652  18.886  1.00  0.00     0.036 A 
HETATM   18 CL1  UNL     1     -32.946   3.601  17.207  1.00  0.00    -0.084 Cl
HETATM   19  C9  UNL     1     -31.131   3.563  19.236  1.00  0.00     0.047 A 
HETATM   20  C10 UNL     1     -30.802   3.608  20.574  1.00  0.00     0.036 A 
HETATM   21 CL2  UNL     1     -29.129   3.502  21.023  1.00  0.00    -0.084 Cl
HETATM   22  C11 UNL     1     -31.752   3.738  21.572  1.00  0.00     0.031 A 
ENDBRANCH  14  15
ENDBRANCH   2  14
BRANCH   1  23
HETATM   23  C2  UNL     1     -35.750   1.642  21.239  1.00  0.00     0.028 C 
HETATM   24  C1  UNL     1     -36.687   0.839  22.188  1.00  0.00     0.016 C 
BRANCH  23  25
HETATM   25  C19 UNL     1     -35.542   0.814  20.034  1.00  0.00    -0.044 C 
HETATM   26  C20 UNL     1     -35.552   1.431  18.691  1.00  0.00     0.015 C 
HETATM   27  C21 UNL     1     -34.021   0.346  20.176  1.00  0.00     0.015 C 
HETATM   28  C22 UNL     1     -36.266  -0.493  19.914  1.00  0.00     0.015 C 
ENDBRANCH  23  25
ENDBRANCH   1  23
BRANCH   8  29
HETATM   29  O1  UNL     1     -38.969   7.222  20.335  1.00  0.00    -0.358 OA
ATOM     30  H1  UNL     1     -39.078   7.215  19.391  1.00  0.00     0.217 HD
ENDBRANCH   8  29
TORSDOF 5
ENDMDL
MODEL 5
REMARK VINA RESULT: -8.915483386      2.110      5.158
REMARK  5 active torsions:
REMARK  status: ('A' for Active; 'I' for Inactive)
REMARK    1  A    between atoms: C2_2  and  C3_3 
REMARK    2  A    between atoms: C2_2  and  C19_27 
REMARK    3  A    between atoms: C4_4  and  C5_5 
REMARK    4  A    between atoms: C5_5  and  C6_6 
REMARK    5  A    between atoms: C16_19  and  O1_20 
ROOT
HETATM    1  C3  UNL     1     -36.158   4.191  22.170  1.00  0.00     0.022 A 
HETATM    2  C4  UNL     1     -35.983   5.125  21.166  1.00  0.00    -0.029 A 
HETATM    3  C12 UNL     1     -36.205   6.503  21.360  1.00  0.00     0.002 A 
HETATM    4  C13 UNL     1     -35.916   7.452  20.416  1.00  0.00     0.038 A 
HETATM    5  C14 UNL     1     -36.021   8.814  20.620  1.00  0.00     0.037 A 
HETATM    6 CL3  UNL     1     -35.580   9.951  19.341  1.00  0.00    -0.084 Cl
HETATM    7  C15 UNL     1     -36.445   9.239  21.852  1.00  0.00     0.062 A 
HETATM    8  C16 UNL     1     -36.751   8.338  22.848  1.00  0.00     0.095 A 
HETATM    9  C17 UNL     1     -36.624   6.967  22.598  1.00  0.00     0.079 A 
HETATM   10  N1  UNL     1     -36.797   6.056  23.558  1.00  0.00    -0.320 N 
ATOM     11  H1  UNL     1     -37.107   6.376  24.475  1.00  0.00     0.169 HD
HETATM   12  C18 UNL     1     -36.581   4.731  23.382  1.00  0.00     0.253 A 
HETATM   13  O2  UNL     1     -36.802   4.036  24.402  1.00  0.00    -0.268 OA
ENDROOT
BRANCH   2  14
HETATM   14  C5  UNL     1     -35.492   4.765  19.845  1.00  0.00     0.078 C 
BRANCH  14  15
HETATM   15  C6  UNL     1     -34.103   4.254  19.824  1.00  0.00    -0.051 A 
HETATM   16  C7  UNL     1     -33.630   3.867  18.587  1.00  0.00     0.031 A 
HETATM   17  C8  UNL     1     -32.350   3.392  18.417  1.00  0.00     0.036 A 
HETATM   18 CL1  UNL     1     -31.786   2.911  16.834  1.00  0.00    -0.084 Cl
HETATM   19  C9  UNL     1     -31.518   3.302  19.515  1.00  0.00     0.047 A 
HETATM   20  C10 UNL     1     -32.010   3.694  20.742  1.00  0.00     0.036 A 
HETATM   21 CL2  UNL     1     -30.970   3.590  22.127  1.00  0.00    -0.084 Cl
HETATM   22  C11 UNL     1     -33.299   4.171  20.911  1.00  0.00     0.031 A 
ENDBRANCH  14  15
ENDBRANCH   2  14
BRANCH   1  23
HETATM   23  C2  UNL     1     -35.943   2.749  21.986  1.00  0.00     0.028 C 
HETATM   24  C1  UNL     1     -35.489   2.119  23.335  1.00  0.00     0.016 C 
BRANCH  23  25
HETATM   25  C19 UNL     1     -37.001   1.879  21.435  1.00  0.00    -0.044 C 
HETATM   26  C20 UNL     1     -36.863   1.298  20.082  1.00  0.00     0.015 C 
HETATM   27  C21 UNL     1     -36.924   0.584  22.366  1.00  0.00     0.015 C 
HETATM   28  C22 UNL     1     -38.434   2.293  21.582  1.00  0.00     0.015 C 
ENDBRANCH  23  25
ENDBRANCH   1  23
BRANCH   8  29
HETATM   29  O1  UNL     1     -37.168   8.795  24.050  1.00  0.00    -0.358 OA
ATOM     30  H1  UNL     1     -36.941   8.313  24.836  1.00  0.00     0.217 HD
ENDBRANCH   8  29
TORSDOF 5
ENDMDL
