MODEL 1
REMARK VINA RESULT: -8.363603109      0.000      0.000
REMARK  4 active torsions:
REMARK  status: ('A' for Active; 'I' for Inactive)
REMARK    1  A    between atoms: C5_7  and  N2_8 
REMARK       I    between atoms: N2_8  and  C6_10 
REMARK       I    between atoms: C6_10  and  N3_12 
REMARK    2  A    between atoms: N3_12  and  C7_14 
REMARK    3  A    between atoms: C11_19  and  C12_20 
REMARK    4  A    between atoms: C13_21  and  C14_22 
ROOT
HETATM    1  C7  UNL     1     -37.746   7.372  20.978  1.00  0.00     0.037 A 
HETATM    2  C8  UNL     1     -38.398   6.936  22.091  1.00  0.00     0.031 A 
HETATM    3  C9  UNL     1     -37.893   5.906  22.902  1.00  0.00     0.027 A 
HETATM    4  C10 UNL     1     -36.707   5.290  22.599  1.00  0.00     0.052 A 
HETATM    5 CL1  UNL     1     -36.094   4.003  23.626  1.00  0.00    -0.083 Cl
HETATM    6  C11 UNL     1     -36.033   5.715  21.478  1.00  0.00     0.042 A 
HETATM    7  C21 UNL     1     -36.532   6.722  20.690  1.00  0.00     0.052 A 
ENDROOT
BRANCH   1   8
HETATM    8  N3  UNL     1     -38.190   8.396  20.121  1.00  0.00    -0.309 N 
HETATM    9  C6  UNL     1     -37.632   9.677  19.922  1.00  0.00     0.325 C 
HETATM   10  N2  UNL     1     -38.267  10.544  18.995  1.00  0.00    -0.307 N 
HETATM   11  O1  UNL     1     -36.614  10.089  20.515  1.00  0.00    -0.247 OA
ATOM     12  H2  UNL     1     -39.090  10.160  18.531  1.00  0.00     0.170 HD
ATOM     13  H3  UNL     1     -39.024   8.185  19.573  1.00  0.00     0.170 HD
BRANCH  10  14
HETATM   14  C5  UNL     1     -37.923  11.849  18.627  1.00  0.00     0.052 A 
HETATM   15  C4  UNL     1     -37.776  12.173  17.258  1.00  0.00     0.117 A 
HETATM   16  N1  UNL     1     -37.470  13.418  16.894  1.00  0.00    -0.373 N 
HETATM   17  C3  UNL     1     -37.288  14.408  17.767  1.00  0.00     0.094 A 
ATOM     18  H1  UNL     1     -37.370  13.623  15.900  1.00  0.00     0.164 HD
HETATM   19  C2  UNL     1     -37.412  14.175  19.108  1.00  0.00    -0.044 A 
HETATM   20  C1  UNL     1     -37.231  15.200  20.150  1.00  0.00     0.049 C 
HETATM   21  C22 UNL     1     -37.737  12.864  19.518  1.00  0.00     0.039 A 
ENDBRANCH  10  14
ENDBRANCH   1   8
BRANCH   6  22
HETATM   22  C12 UNL     1     -34.786   5.093  21.128  1.00  0.00    -0.060 C 
HETATM   23  C13 UNL     1     -33.739   4.583  20.816  1.00  0.00    -0.060 C 
BRANCH  23  24
HETATM   24  C14 UNL     1     -32.469   3.990  20.431  1.00  0.00     0.040 A 
HETATM   25  C15 UNL     1     -32.258   3.484  19.161  1.00  0.00     0.030 A 
HETATM   26  C16 UNL     1     -31.054   2.919  18.792  1.00  0.00    -0.039 A 
HETATM   27  C17 UNL     1     -30.811   2.371  17.429  1.00  0.00     0.050 C 
HETATM   28  C18 UNL     1     -30.062   2.885  19.764  1.00  0.00     0.041 A 
HETATM   29 CL2  UNL     1     -28.522   2.167  19.304  1.00  0.00    -0.084 Cl
HETATM   30  C19 UNL     1     -30.250   3.383  21.036  1.00  0.00     0.049 A 
HETATM   31  C20 UNL     1     -31.469   3.945  21.379  1.00  0.00     0.054 A 
HETATM   32 CL3  UNL     1     -31.752   4.588  22.981  1.00  0.00    -0.083 Cl
ENDBRANCH  23  24
ENDBRANCH   6  22
TORSDOF 4
ENDMDL
MODEL 2
REMARK VINA RESULT: -8.255366071      0.699      1.240
REMARK  4 active torsions:
REMARK  status: ('A' for Active; 'I' for Inactive)
REMARK    1  A    between atoms: C5_7  and  N2_8 
REMARK       I    between atoms: N2_8  and  C6_10 
REMARK       I    between atoms: C6_10  and  N3_12 
REMARK    2  A    between atoms: N3_12  and  C7_14 
REMARK    3  A    between atoms: C11_19  and  C12_20 
REMARK    4  A    between atoms: C13_21  and  C14_22 
ROOT
HETATM    1  C7  UNL     1     -37.854   7.418  20.774  1.00  0.00     0.037 A 
HETATM    2  C8  UNL     1     -38.551   6.959  21.850  1.00  0.00     0.031 A 
HETATM    3  C9  UNL     1     -38.088   5.900  22.649  1.00  0.00     0.027 A 
HETATM    4  C10 UNL     1     -36.898   5.279  22.372  1.00  0.00     0.052 A 
HETATM    5 CL1  UNL     1     -36.337   3.956  23.383  1.00  0.00    -0.083 Cl
HETATM    6  C11 UNL     1     -36.179   5.728  21.289  1.00  0.00     0.042 A 
HETATM    7  C21 UNL     1     -36.637   6.762  20.512  1.00  0.00     0.052 A 
ENDROOT
BRANCH   1   8
HETATM    8  N3  UNL     1     -38.256   8.471  19.932  1.00  0.00    -0.309 N 
HETATM    9  C6  UNL     1     -37.662   9.742  19.773  1.00  0.00     0.325 C 
HETATM   10  N2  UNL     1     -38.257  10.644  18.853  1.00  0.00    -0.307 N 
HETATM   11  O1  UNL     1     -36.648  10.116  20.396  1.00  0.00    -0.247 OA
ATOM     12  H2  UNL     1     -39.079  10.291  18.364  1.00  0.00     0.170 HD
ATOM     13  H3  UNL     1     -39.083   8.292  19.362  1.00  0.00     0.170 HD
BRANCH  10  14
HETATM   14  C5  UNL     1     -37.875  11.949  18.521  1.00  0.00     0.052 A 
HETATM   15  C4  UNL     1     -37.285  12.775  19.506  1.00  0.00     0.117 A 
HETATM   16  N1  UNL     1     -36.898  14.012  19.196  1.00  0.00    -0.373 N 
HETATM   17  C3  UNL     1     -37.037  14.536  17.979  1.00  0.00     0.094 A 
ATOM     18  H1  UNL     1     -36.475  14.586  19.927  1.00  0.00     0.164 HD
HETATM   19  C2  UNL     1     -37.598  13.801  16.974  1.00  0.00    -0.044 A 
HETATM   20  C1  UNL     1     -37.795  14.288  15.597  1.00  0.00     0.049 C 
HETATM   21  C22 UNL     1     -38.015  12.486  17.276  1.00  0.00     0.039 A 
ENDBRANCH  10  14
ENDBRANCH   1   8
BRANCH   6  22
HETATM   22  C12 UNL     1     -34.926   5.101  20.966  1.00  0.00    -0.060 C 
HETATM   23  C13 UNL     1     -33.874   4.588  20.679  1.00  0.00    -0.060 C 
BRANCH  23  24
HETATM   24  C14 UNL     1     -32.595   3.993  20.327  1.00  0.00     0.040 A 
HETATM   25  C15 UNL     1     -32.350   3.493  19.061  1.00  0.00     0.030 A 
HETATM   26  C16 UNL     1     -31.138   2.926  18.722  1.00  0.00    -0.039 A 
HETATM   27  C17 UNL     1     -30.860   2.384  17.363  1.00  0.00     0.050 C 
HETATM   28  C18 UNL     1     -30.175   2.884  19.721  1.00  0.00     0.041 A 
HETATM   29 CL2  UNL     1     -28.624   2.163  19.301  1.00  0.00    -0.084 Cl
HETATM   30  C19 UNL     1     -30.396   3.376  20.990  1.00  0.00     0.049 A 
HETATM   31  C20 UNL     1     -31.622   3.940  21.301  1.00  0.00     0.054 A 
HETATM   32 CL3  UNL     1     -31.948   4.576  22.899  1.00  0.00    -0.083 Cl
ENDBRANCH  23  24
ENDBRANCH   6  22
TORSDOF 4
ENDMDL
MODEL 3
REMARK VINA RESULT: -7.232721230      0.991      1.016
REMARK  4 active torsions:
REMARK  status: ('A' for Active; 'I' for Inactive)
REMARK    1  A    between atoms: C5_7  and  N2_8 
REMARK       I    between atoms: N2_8  and  C6_10 
REMARK       I    between atoms: C6_10  and  N3_12 
REMARK    2  A    between atoms: N3_12  and  C7_14 
REMARK    3  A    between atoms: C11_19  and  C12_20 
REMARK    4  A    between atoms: C13_21  and  C14_22 
ROOT
HETATM    1  C7  UNL     1     -37.016   7.681  22.055  1.00  0.00     0.037 A 
HETATM    2  C8  UNL     1     -37.924   6.937  22.746  1.00  0.00     0.031 A 
HETATM    3  C9  UNL     1     -37.724   5.573  23.020  1.00  0.00     0.027 A 
HETATM    4  C10 UNL     1     -36.591   4.930  22.596  1.00  0.00     0.052 A 
HETATM    5 CL1  UNL     1     -36.361   3.224  22.948  1.00  0.00    -0.083 Cl
HETATM    6  C11 UNL     1     -35.662   5.663  21.896  1.00  0.00     0.042 A 
HETATM    7  C21 UNL     1     -35.863   6.995  21.631  1.00  0.00     0.052 A 
ENDROOT
BRANCH   1   8
HETATM    8  N3  UNL     1     -37.149   9.047  21.745  1.00  0.00    -0.309 N 
HETATM    9  C6  UNL     1     -37.218   9.654  20.473  1.00  0.00     0.325 C 
HETATM   10  N2  UNL     1     -37.353  11.066  20.416  1.00  0.00    -0.307 N 
HETATM   11  O1  UNL     1     -37.168   9.021  19.399  1.00  0.00    -0.247 OA
ATOM     12  H2  UNL     1     -37.397  11.538  21.319  1.00  0.00     0.170 HD
ATOM     13  H3  UNL     1     -37.202   9.680  22.543  1.00  0.00     0.170 HD
BRANCH  10  14
HETATM   14  C5  UNL     1     -37.435  11.902  19.297  1.00  0.00     0.052 A 
HETATM   15  C4  UNL     1     -38.167  11.481  18.163  1.00  0.00     0.117 A 
HETATM   16  N1  UNL     1     -38.269  12.277  17.099  1.00  0.00    -0.373 N 
HETATM   17  C3  UNL     1     -37.706  13.483  17.034  1.00  0.00     0.094 A 
ATOM     18  H1  UNL     1     -38.804  11.948  16.295  1.00  0.00     0.164 HD
HETATM   19  C2  UNL     1     -36.981  13.961  18.089  1.00  0.00    -0.044 A 
HETATM   20  C1  UNL     1     -36.321  15.278  18.116  1.00  0.00     0.049 C 
HETATM   21  C22 UNL     1     -36.859  13.136  19.229  1.00  0.00     0.039 A 
ENDBRANCH  10  14
ENDBRANCH   1   8
BRANCH   6  22
HETATM   22  C12 UNL     1     -34.461   5.023  21.434  1.00  0.00    -0.060 C 
HETATM   23  C13 UNL     1     -33.448   4.504  21.036  1.00  0.00    -0.060 C 
BRANCH  23  24
HETATM   24  C14 UNL     1     -32.216   3.899  20.558  1.00  0.00     0.040 A 
HETATM   25  C15 UNL     1     -32.108   3.382  19.280  1.00  0.00     0.030 A 
HETATM   26  C16 UNL     1     -30.940   2.807  18.822  1.00  0.00    -0.039 A 
HETATM   27  C17 UNL     1     -30.808   2.246  17.449  1.00  0.00     0.050 C 
HETATM   28  C18 UNL     1     -29.876   2.774  19.714  1.00  0.00     0.041 A 
HETATM   29 CL2  UNL     1     -28.380   2.042  19.141  1.00  0.00    -0.084 Cl
HETATM   30  C19 UNL     1     -29.960   3.283  20.993  1.00  0.00     0.049 A 
HETATM   31  C20 UNL     1     -31.145   3.855  21.425  1.00  0.00     0.054 A 
HETATM   32 CL3  UNL     1     -31.299   4.513  23.039  1.00  0.00    -0.083 Cl
ENDBRANCH  23  24
ENDBRANCH   6  22
TORSDOF 4
ENDMDL
MODEL 4
REMARK VINA RESULT: -6.958239774      1.369      1.789
REMARK  4 active torsions:
REMARK  status: ('A' for Active; 'I' for Inactive)
REMARK    1  A    between atoms: C5_7  and  N2_8 
REMARK       I    between atoms: N2_8  and  C6_10 
REMARK       I    between atoms: C6_10  and  N3_12 
REMARK    2  A    between atoms: N3_12  and  C7_14 
REMARK    3  A    between atoms: C11_19  and  C12_20 
REMARK    4  A    between atoms: C13_21  and  C14_22 
ROOT
HETATM    1  C7  UNL     1     -37.414   8.094  20.692  1.00  0.00     0.037 A 
HETATM    2  C8  UNL     1     -38.565   7.370  20.772  1.00  0.00     0.031 A 
HETATM    3  C9  UNL     1     -38.578   5.967  20.696  1.00  0.00     0.027 A 
HETATM    4  C10 UNL     1     -37.414   5.262  20.535  1.00  0.00     0.052 A 
HETATM    5 CL1  UNL     1     -37.450   3.508  20.441  1.00  0.00    -0.083 Cl
HETATM    6  C11 UNL     1     -36.240   5.974  20.452  1.00  0.00     0.042 A 
HETATM    7  C21 UNL     1     -36.235   7.345  20.527  1.00  0.00     0.052 A 
ENDROOT
BRANCH   1   8
HETATM    8  N3  UNL     1     -37.327   9.496  20.761  1.00  0.00    -0.309 N 
HETATM    9  C6  UNL     1     -37.449  10.435  19.713  1.00  0.00     0.325 C 
HETATM   10  N2  UNL     1     -37.321  11.812  20.034  1.00  0.00    -0.307 N 
HETATM   11  O1  UNL     1     -37.663  10.122  18.524  1.00  0.00    -0.247 OA
ATOM     12  H2  UNL     1     -37.154  12.017  21.019  1.00  0.00     0.170 HD
ATOM     13  H3  UNL     1     -37.152   9.885  21.688  1.00  0.00     0.170 HD
BRANCH  10  14
HETATM   14  C5  UNL     1     -37.392  12.926  19.191  1.00  0.00     0.052 A 
HETATM   15  C4  UNL     1     -37.346  14.226  19.747  1.00  0.00     0.117 A 
HETATM   16  N1  UNL     1     -37.391  15.295  18.953  1.00  0.00    -0.373 N 
HETATM   17  C3  UNL     1     -37.480  15.213  17.626  1.00  0.00     0.094 A 
ATOM     18  H1  UNL     1     -37.357  16.220  19.382  1.00  0.00     0.164 HD
HETATM   19  C2  UNL     1     -37.528  13.993  17.013  1.00  0.00    -0.044 A 
HETATM   20  C1  UNL     1     -37.626  13.798  15.556  1.00  0.00     0.049 C 
HETATM   21  C22 UNL     1     -37.481  12.845  17.833  1.00  0.00     0.039 A 
ENDBRANCH  10  14
ENDBRANCH   1   8
BRANCH   6  22
HETATM   22  C12 UNL     1     -34.999   5.270  20.283  1.00  0.00    -0.060 C 
HETATM   23  C13 UNL     1     -33.953   4.692  20.125  1.00  0.00    -0.060 C 
BRANCH  23  24
HETATM   24  C14 UNL     1     -32.680   4.017  19.929  1.00  0.00     0.040 A 
HETATM   25  C15 UNL     1     -32.315   3.495  18.701  1.00  0.00     0.030 A 
HETATM   26  C16 UNL     1     -31.109   2.853  18.511  1.00  0.00    -0.039 A 
HETATM   27  C17 UNL     1     -30.701   2.287  17.195  1.00  0.00     0.050 C 
HETATM   28  C18 UNL     1     -30.278   2.757  19.619  1.00  0.00     0.041 A 
HETATM   29 CL2  UNL     1     -28.735   1.939  19.389  1.00  0.00    -0.084 Cl
HETATM   30  C19 UNL     1     -30.620   3.269  20.853  1.00  0.00     0.049 A 
HETATM   31  C20 UNL     1     -31.838   3.909  21.015  1.00  0.00     0.054 A 
HETATM   32 CL3  UNL     1     -32.315   4.573  22.562  1.00  0.00    -0.083 Cl
ENDBRANCH  23  24
ENDBRANCH   6  22
TORSDOF 4
ENDMDL
MODEL 5
REMARK VINA RESULT: -6.527286128      1.252      1.690
REMARK  4 active torsions:
REMARK  status: ('A' for Active; 'I' for Inactive)
REMARK    1  A    between atoms: C5_7  and  N2_8 
REMARK       I    between atoms: N2_8  and  C6_10 
REMARK       I    between atoms: C6_10  and  N3_12 
REMARK    2  A    between atoms: N3_12  and  C7_14 
REMARK    3  A    between atoms: C11_19  and  C12_20 
REMARK    4  A    between atoms: C13_21  and  C14_22 
ROOT
HETATM    1  C7  UNL     1     -37.570   7.696  21.051  1.00  0.00     0.037 A 
HETATM    2  C8  UNL     1     -38.026   7.442  22.309  1.00  0.00     0.031 A 
HETATM    3  C9  UNL     1     -37.492   6.419  23.110  1.00  0.00     0.027 A 
HETATM    4  C10 UNL     1     -36.476   5.623  22.648  1.00  0.00     0.052 A 
HETATM    5 CL1  UNL     1     -35.822   4.348  23.664  1.00  0.00    -0.083 Cl
HETATM    6  C11 UNL     1     -36.001   5.863  21.379  1.00  0.00     0.042 A 
HETATM    7  C21 UNL     1     -36.528   6.865  20.602  1.00  0.00     0.052 A 
ENDROOT
BRANCH   1   8
HETATM    8  N3  UNL     1     -38.056   8.702  20.196  1.00  0.00    -0.309 N 
HETATM    9  C6  UNL     1     -37.504   9.975  19.936  1.00  0.00     0.325 C 
HETATM   10  N2  UNL     1     -38.184  10.823  19.024  1.00  0.00    -0.307 N 
HETATM   11  O1  UNL     1     -36.454  10.395  20.463  1.00  0.00    -0.247 OA
ATOM     12  H2  UNL     1     -39.033  10.433  18.615  1.00  0.00     0.170 HD
ATOM     13  H3  UNL     1     -38.920   8.483  19.699  1.00  0.00     0.170 HD
BRANCH  10  14
HETATM   14  C5  UNL     1     -37.856  12.117  18.607  1.00  0.00     0.052 A 
HETATM   15  C4  UNL     1     -37.694  12.387  17.228  1.00  0.00     0.117 A 
HETATM   16  N1  UNL     1     -37.402  13.621  16.817  1.00  0.00    -0.373 N 
HETATM   17  C3  UNL     1     -37.248  14.648  17.651  1.00  0.00     0.094 A 
ATOM     18  H1  UNL     1     -37.291  13.786  15.817  1.00  0.00     0.164 HD
HETATM   19  C2  UNL     1     -37.388  14.469  18.998  1.00  0.00    -0.044 A 
HETATM   20  C1  UNL     1     -37.237  15.539  19.999  1.00  0.00     0.049 C 
HETATM   21  C22 UNL     1     -37.699  13.171  19.458  1.00  0.00     0.039 A 
ENDBRANCH  10  14
ENDBRANCH   1   8
BRANCH   6  22
HETATM   22  C12 UNL     1     -34.936   5.050  20.860  1.00  0.00    -0.060 C 
HETATM   23  C13 UNL     1     -34.052   4.368  20.405  1.00  0.00    -0.060 C 
BRANCH  23  24
HETATM   24  C14 UNL     1     -32.987   3.559  19.836  1.00  0.00     0.040 A 
HETATM   25  C15 UNL     1     -31.656   3.801  20.125  1.00  0.00     0.030 A 
HETATM   26  C16 UNL     1     -30.642   3.037  19.587  1.00  0.00    -0.039 A 
HETATM   27  C17 UNL     1     -29.205   3.285  19.889  1.00  0.00     0.050 C 
HETATM   28  C18 UNL     1     -31.027   2.008  18.737  1.00  0.00     0.041 A 
HETATM   29 CL2  UNL     1     -29.741   1.025  18.043  1.00  0.00    -0.084 Cl
HETATM   30  C19 UNL     1     -32.347   1.747  18.434  1.00  0.00     0.049 A 
HETATM   31  C20 UNL     1     -33.344   2.532  18.989  1.00  0.00     0.054 A 
HETATM   32 CL3  UNL     1     -35.032   2.239  18.632  1.00  0.00    -0.083 Cl
ENDBRANCH  23  24
ENDBRANCH   6  22
TORSDOF 4
ENDMDL
