MODEL 1
REMARK VINA RESULT: -8.217488727      0.000      0.000
REMARK  10 active torsions:
REMARK  status: ('A' for Active; 'I' for Inactive)
REMARK    1  A    between atoms: C2_2  and  C4_4 
REMARK    2  A    between atoms: C4_4  and  N1_5 
REMARK    3  A    between atoms: N1_5  and  C5_7 
REMARK    4  A    between atoms: C5_7  and  C6_8 
REMARK    5  A    between atoms: C5_7  and  C13_22 
REMARK    6  A    between atoms: C6_8  and  N2_9 
REMARK       I    between atoms: N2_9  and  C7_11 
REMARK       I    between atoms: C7_11  and  N3_13 
REMARK    7  A    between atoms: N3_13  and  C8_15 
REMARK    8  A    between atoms: C8_15  and  C9_16 
REMARK    9  A    between atoms: C8_15  and  C10_19 
REMARK       I    between atoms: C13_22  and  N4_24 
REMARK   10  A    between atoms: N4_24  and  C14_26 
ROOT
HETATM    1  C5  UNL     1      70.328  36.157   2.414  1.00  0.00     0.095 C 
ENDROOT
BRANCH   1   2
HETATM    2  N1  UNL     1      70.331  34.772   2.381  1.00  0.00    -0.367 N 
ATOM      3  H1  UNL     1      70.473  34.282   3.265  1.00  0.00     0.165 HD
BRANCH   2   4
HETATM    4  C4  UNL     1      70.156  34.000   1.247  1.00  0.00     0.065 C 
BRANCH   4   5
HETATM    5  C2  UNL     1      71.205  33.269   0.536  1.00  0.00     0.016 C 
HETATM    6  C1  UNL     1      72.610  33.768   0.633  1.00  0.00     0.015 C 
HETATM    7  C3  UNL     1      71.228  31.843   1.123  1.00  0.00     0.015 C 
ENDBRANCH   4   5
ENDBRANCH   2   4
ENDBRANCH   1   2
BRANCH   1   8
HETATM    8  C6  UNL     1      69.547  36.777   3.557  1.00  0.00     0.187 C 
BRANCH   8   9
HETATM    9  N2  UNL     1      68.497  35.832   3.965  1.00  0.00    -0.337 N 
HETATM   10  C7  UNL     1      67.148  36.017   3.580  1.00  0.00     0.317 C 
HETATM   11  O1  UNL     1      66.871  37.022   2.868  1.00  0.00    -0.247 OA
HETATM   12  N3  UNL     1      66.106  35.131   3.956  1.00  0.00    -0.328 N 
ATOM     13  H3  UNL     1      66.336  34.322   4.533  1.00  0.00     0.165 HD
ATOM     14  H2  UNL     1      68.747  35.026   4.538  1.00  0.00     0.164 HD
BRANCH  12  15
HETATM   15  C8  UNL     1      64.728  35.330   3.554  1.00  0.00     0.190 C 
BRANCH  15  16
HETATM   16  C9  UNL     1      63.963  36.080   4.585  1.00  0.00     0.197 C 
HETATM   17  O2  UNL     1      63.134  36.992   4.328  1.00  0.00    -0.646 OA
HETATM   18  O3  UNL     1      64.141  35.791   5.933  1.00  0.00    -0.646 OA
ENDBRANCH  15  16
BRANCH  15  19
HETATM   19  C10 UNL     1      64.142  33.988   3.236  1.00  0.00     0.011 C 
HETATM   20  C11 UNL     1      65.162  32.875   3.277  1.00  0.00     0.012 C 
HETATM   21  C12 UNL     1      63.510  34.049   1.875  1.00  0.00     0.012 C 
ENDBRANCH  15  19
ENDBRANCH  12  15
ENDBRANCH   8   9
ENDBRANCH   1   8
BRANCH   1  22
HETATM   22  C13 UNL     1      70.267  36.855   1.146  1.00  0.00     0.266 C 
HETATM   23  O4  UNL     1      69.171  37.290   0.713  1.00  0.00    -0.266 OA
HETATM   24  N4  UNL     1      71.412  37.093   0.319  1.00  0.00    -0.351 N 
ATOM     25  H4  UNL     1      72.335  36.766   0.608  1.00  0.00     0.163 HD
BRANCH  24  26
HETATM   26  C14 UNL     1      71.247  37.794  -0.915  1.00  0.00     0.084 C 
HETATM   27  C15 UNL     1      70.745  36.781  -1.946  1.00  0.00     0.025 C 
HETATM   28  C16 UNL     1      70.845  37.449  -3.294  1.00  0.00     0.002 C 
HETATM   29  C17 UNL     1      70.851  38.961  -3.183  1.00  0.00     0.000 C 
HETATM   30  C18 UNL     1      72.097  39.449  -2.490  1.00  0.00     0.002 C 
HETATM   31  C19 UNL     1      72.486  38.474  -1.400  1.00  0.00     0.025 C 
ENDBRANCH  24  26
ENDBRANCH   1  22
TORSDOF 10
ENDMDL
MODEL 2
REMARK VINA RESULT: -8.190035657      1.647      2.114
REMARK  10 active torsions:
REMARK  status: ('A' for Active; 'I' for Inactive)
REMARK    1  A    between atoms: C2_2  and  C4_4 
REMARK    2  A    between atoms: C4_4  and  N1_5 
REMARK    3  A    between atoms: N1_5  and  C5_7 
REMARK    4  A    between atoms: C5_7  and  C6_8 
REMARK    5  A    between atoms: C5_7  and  C13_22 
REMARK    6  A    between atoms: C6_8  and  N2_9 
REMARK       I    between atoms: N2_9  and  C7_11 
REMARK       I    between atoms: C7_11  and  N3_13 
REMARK    7  A    between atoms: N3_13  and  C8_15 
REMARK    8  A    between atoms: C8_15  and  C9_16 
REMARK    9  A    between atoms: C8_15  and  C10_19 
REMARK       I    between atoms: C13_22  and  N4_24 
REMARK   10  A    between atoms: N4_24  and  C14_26 
ROOT
HETATM    1  C5  UNL     1      70.076  36.020   2.411  1.00  0.00     0.095 C 
ENDROOT
BRANCH   1   2
HETATM    2  N1  UNL     1      70.209  34.642   2.355  1.00  0.00    -0.367 N 
ATOM      3  H1  UNL     1      70.426  34.156   3.225  1.00  0.00     0.165 HD
BRANCH   2   4
HETATM    4  C4  UNL     1      70.072  33.873   1.214  1.00  0.00     0.065 C 
BRANCH   4   5
HETATM    5  C2  UNL     1      71.146  33.155   0.528  1.00  0.00     0.016 C 
HETATM    6  C1  UNL     1      72.537  33.688   0.633  1.00  0.00     0.015 C 
HETATM    7  C3  UNL     1      71.196  31.741   1.139  1.00  0.00     0.015 C 
ENDBRANCH   4   5
ENDBRANCH   2   4
ENDBRANCH   1   2
BRANCH   1   8
HETATM    8  C6  UNL     1      69.140  36.538   3.485  1.00  0.00     0.187 C 
BRANCH   8   9
HETATM    9  N2  UNL     1      67.758  36.369   3.014  1.00  0.00    -0.337 N 
HETATM   10  C7  UNL     1      67.008  35.211   3.329  1.00  0.00     0.317 C 
HETATM   11  O1  UNL     1      67.563  34.323   4.034  1.00  0.00    -0.247 OA
HETATM   12  N3  UNL     1      65.673  35.008   2.891  1.00  0.00    -0.328 N 
ATOM     13  H3  UNL     1      65.231  35.728   2.320  1.00  0.00     0.165 HD
ATOM     14  H2  UNL     1      67.331  37.102   2.449  1.00  0.00     0.164 HD
BRANCH  12  15
HETATM   15  C8  UNL     1      64.915  33.819   3.221  1.00  0.00     0.190 C 
BRANCH  15  16
HETATM   16  C9  UNL     1      64.484  33.091   1.998  1.00  0.00     0.197 C 
HETATM   17  O2  UNL     1      65.110  32.121   1.495  1.00  0.00    -0.646 OA
HETATM   18  O3  UNL     1      63.324  33.469   1.334  1.00  0.00    -0.646 OA
ENDBRANCH  15  16
BRANCH  15  19
HETATM   19  C10 UNL     1      63.775  34.229   4.102  1.00  0.00     0.011 C 
HETATM   20  C11 UNL     1      63.510  35.716   4.070  1.00  0.00     0.012 C 
HETATM   21  C12 UNL     1      64.073  33.797   5.509  1.00  0.00     0.012 C 
ENDBRANCH  15  19
ENDBRANCH  12  15
ENDBRANCH   8   9
ENDBRANCH   1   8
BRANCH   1  22
HETATM   22  C13 UNL     1      70.069  36.743   1.154  1.00  0.00     0.266 C 
HETATM   23  O4  UNL     1      68.991  37.175   0.677  1.00  0.00    -0.266 OA
HETATM   24  N4  UNL     1      71.250  37.008   0.389  1.00  0.00    -0.351 N 
ATOM     25  H4  UNL     1      72.161  36.685   0.716  1.00  0.00     0.163 HD
BRANCH  24  26
HETATM   26  C14 UNL     1      71.137  37.731  -0.838  1.00  0.00     0.084 C 
HETATM   27  C15 UNL     1      70.644  36.744  -1.900  1.00  0.00     0.025 C 
HETATM   28  C16 UNL     1      70.799  37.431  -3.234  1.00  0.00     0.002 C 
HETATM   29  C17 UNL     1      70.834  38.941  -3.098  1.00  0.00     0.000 C 
HETATM   30  C18 UNL     1      72.069  39.390  -2.362  1.00  0.00     0.002 C 
HETATM   31  C19 UNL     1      72.404  38.391  -1.276  1.00  0.00     0.025 C 
ENDBRANCH  24  26
ENDBRANCH   1  22
TORSDOF 10
ENDMDL
MODEL 3
REMARK VINA RESULT: -8.146091663      3.212      7.045
REMARK  10 active torsions:
REMARK  status: ('A' for Active; 'I' for Inactive)
REMARK    1  A    between atoms: C2_2  and  C4_4 
REMARK    2  A    between atoms: C4_4  and  N1_5 
REMARK    3  A    between atoms: N1_5  and  C5_7 
REMARK    4  A    between atoms: C5_7  and  C6_8 
REMARK    5  A    between atoms: C5_7  and  C13_22 
REMARK    6  A    between atoms: C6_8  and  N2_9 
REMARK       I    between atoms: N2_9  and  C7_11 
REMARK       I    between atoms: C7_11  and  N3_13 
REMARK    7  A    between atoms: N3_13  and  C8_15 
REMARK    8  A    between atoms: C8_15  and  C9_16 
REMARK    9  A    between atoms: C8_15  and  C10_19 
REMARK       I    between atoms: C13_22  and  N4_24 
REMARK   10  A    between atoms: N4_24  and  C14_26 
ROOT
HETATM    1  C5  UNL     1      71.954  32.718   1.169  1.00  0.00     0.095 C 
ENDROOT
BRANCH   1   2
HETATM    2  N1  UNL     1      72.063  31.688   2.089  1.00  0.00    -0.367 N 
ATOM      3  H1  UNL     1      72.501  31.903   2.985  1.00  0.00     0.165 HD
BRANCH   2   4
HETATM    4  C4  UNL     1      71.625  30.392   1.891  1.00  0.00     0.065 C 
BRANCH   4   5
HETATM    5  C2  UNL     1      72.019  29.510   0.793  1.00  0.00     0.016 C 
HETATM    6  C1  UNL     1      72.889  28.335   1.101  1.00  0.00     0.015 C 
HETATM    7  C3  UNL     1      70.719  28.923   0.207  1.00  0.00     0.015 C 
ENDBRANCH   4   5
ENDBRANCH   2   4
ENDBRANCH   1   2
BRANCH   1   8
HETATM    8  C6  UNL     1      73.257  33.404   0.807  1.00  0.00     0.187 C 
BRANCH   8   9
HETATM    9  N2  UNL     1      73.019  34.259  -0.364  1.00  0.00    -0.337 N 
HETATM   10  C7  UNL     1      72.928  35.666  -0.245  1.00  0.00     0.317 C 
HETATM   11  O1  UNL     1      73.062  36.170   0.906  1.00  0.00    -0.247 OA
HETATM   12  N3  UNL     1      72.694  36.526  -1.349  1.00  0.00    -0.328 N 
ATOM     13  H3  UNL     1      72.585  36.113  -2.275  1.00  0.00     0.165 HD
ATOM     14  H2  UNL     1      72.916  33.829  -1.283  1.00  0.00     0.164 HD
BRANCH  12  15
HETATM   15  C8  UNL     1      72.605  37.965  -1.214  1.00  0.00     0.190 C 
BRANCH  15  16
HETATM   16  C9  UNL     1      71.465  38.361  -0.345  1.00  0.00     0.197 C 
HETATM   17  O2  UNL     1      70.273  38.004  -0.534  1.00  0.00    -0.646 OA
HETATM   18  O3  UNL     1      71.681  39.176   0.760  1.00  0.00    -0.646 OA
ENDBRANCH  15  16
BRANCH  15  19
HETATM   19  C10 UNL     1      72.537  38.555  -2.590  1.00  0.00     0.011 C 
HETATM   20  C11 UNL     1      72.068  39.991  -2.593  1.00  0.00     0.012 C 
HETATM   21  C12 UNL     1      71.615  37.717  -3.428  1.00  0.00     0.012 C 
ENDBRANCH  15  19
ENDBRANCH  12  15
ENDBRANCH   8   9
ENDBRANCH   1   8
BRANCH   1  22
HETATM   22  C13 UNL     1      70.785  33.570   1.254  1.00  0.00     0.266 C 
HETATM   23  O4  UNL     1      69.867  33.475   0.401  1.00  0.00    -0.266 OA
HETATM   24  N4  UNL     1      70.595  34.551   2.280  1.00  0.00    -0.351 N 
ATOM     25  H4  UNL     1      71.301  34.684   3.005  1.00  0.00     0.163 HD
BRANCH  24  26
HETATM   26  C14 UNL     1      69.405  35.341   2.276  1.00  0.00     0.084 C 
HETATM   27  C15 UNL     1      69.813  36.774   2.624  1.00  0.00     0.025 C 
HETATM   28  C16 UNL     1      68.538  37.533   2.898  1.00  0.00     0.002 C 
HETATM   29  C17 UNL     1      67.336  36.884   2.241  1.00  0.00     0.000 C 
HETATM   30  C18 UNL     1      67.045  35.539   2.853  1.00  0.00     0.002 C 
HETATM   31  C19 UNL     1      68.345  34.850   3.208  1.00  0.00     0.025 C 
ENDBRANCH  24  26
ENDBRANCH   1  22
TORSDOF 10
ENDMDL
MODEL 4
REMARK VINA RESULT: -8.102975936      1.470      1.953
REMARK  10 active torsions:
REMARK  status: ('A' for Active; 'I' for Inactive)
REMARK    1  A    between atoms: C2_2  and  C4_4 
REMARK    2  A    between atoms: C4_4  and  N1_5 
REMARK    3  A    between atoms: N1_5  and  C5_7 
REMARK    4  A    between atoms: C5_7  and  C6_8 
REMARK    5  A    between atoms: C5_7  and  C13_22 
REMARK    6  A    between atoms: C6_8  and  N2_9 
REMARK       I    between atoms: N2_9  and  C7_11 
REMARK       I    between atoms: C7_11  and  N3_13 
REMARK    7  A    between atoms: N3_13  and  C8_15 
REMARK    8  A    between atoms: C8_15  and  C9_16 
REMARK    9  A    between atoms: C8_15  and  C10_19 
REMARK       I    between atoms: C13_22  and  N4_24 
REMARK   10  A    between atoms: N4_24  and  C14_26 
ROOT
HETATM    1  C5  UNL     1      70.444  36.568   1.634  1.00  0.00     0.095 C 
ENDROOT
BRANCH   1   2
HETATM    2  N1  UNL     1      71.591  36.123   2.270  1.00  0.00    -0.367 N 
ATOM      3  H1  UNL     1      71.562  36.042   3.287  1.00  0.00     0.165 HD
BRANCH   2   4
HETATM    4  C4  UNL     1      72.771  35.779   1.638  1.00  0.00     0.065 C 
BRANCH   4   5
HETATM    5  C2  UNL     1      73.220  34.420   1.336  1.00  0.00     0.016 C 
HETATM    6  C1  UNL     1      72.197  33.404   0.947  1.00  0.00     0.015 C 
HETATM    7  C3  UNL     1      74.179  34.526   0.133  1.00  0.00     0.015 C 
ENDBRANCH   4   5
ENDBRANCH   2   4
ENDBRANCH   1   2
BRANCH   1   8
HETATM    8  C6  UNL     1      69.325  35.549   1.526  1.00  0.00     0.187 C 
BRANCH   8   9
HETATM    9  N2  UNL     1      68.571  35.556   2.787  1.00  0.00    -0.337 N 
HETATM   10  C7  UNL     1      67.181  35.292   2.818  1.00  0.00     0.317 C 
HETATM   11  O1  UNL     1      66.604  35.044   1.722  1.00  0.00    -0.247 OA
HETATM   12  N3  UNL     1      66.417  35.292   4.014  1.00  0.00    -0.328 N 
ATOM     13  H3  UNL     1      66.889  35.495   4.895  1.00  0.00     0.165 HD
ATOM     14  H2  UNL     1      69.061  35.756   3.660  1.00  0.00     0.164 HD
BRANCH  12  15
HETATM   15  C8  UNL     1      64.995  35.018   4.032  1.00  0.00     0.190 C 
BRANCH  15  16
HETATM   16  C9  UNL     1      64.204  36.217   3.647  1.00  0.00     0.197 C 
HETATM   17  O2  UNL     1      64.285  37.334   4.222  1.00  0.00    -0.646 OA
HETATM   18  O3  UNL     1      63.305  36.148   2.589  1.00  0.00    -0.646 OA
ENDBRANCH  15  16
BRANCH  15  19
HETATM   19  C10 UNL     1      64.645  34.485   5.388  1.00  0.00     0.011 C 
HETATM   20  C11 UNL     1      65.632  33.457   5.889  1.00  0.00     0.012 C 
HETATM   21  C12 UNL     1      63.271  33.883   5.329  1.00  0.00     0.012 C 
ENDBRANCH  15  19
ENDBRANCH  12  15
ENDBRANCH   8   9
ENDBRANCH   1   8
BRANCH   1  22
HETATM   22  C13 UNL     1      70.609  37.458   0.502  1.00  0.00     0.266 C 
HETATM   23  O4  UNL     1      70.505  38.701   0.652  1.00  0.00    -0.266 OA
HETATM   24  N4  UNL     1      70.891  37.004  -0.826  1.00  0.00    -0.351 N 
ATOM     25  H4  UNL     1      70.987  36.007  -1.022  1.00  0.00     0.163 HD
BRANCH  24  26
HETATM   26  C14 UNL     1      71.037  37.964  -1.874  1.00  0.00     0.084 C 
HETATM   27  C15 UNL     1      70.723  37.247  -3.189  1.00  0.00     0.025 C 
HETATM   28  C16 UNL     1      71.152  38.174  -4.300  1.00  0.00     0.002 C 
HETATM   29  C17 UNL     1      71.211  39.620  -3.847  1.00  0.00     0.000 C 
HETATM   30  C18 UNL     1      72.297  39.823  -2.823  1.00  0.00     0.002 C 
HETATM   31  C19 UNL     1      72.386  38.605  -1.928  1.00  0.00     0.025 C 
ENDBRANCH  24  26
ENDBRANCH   1  22
TORSDOF 10
ENDMDL
MODEL 5
REMARK VINA RESULT: -8.098793298      1.680      2.171
REMARK  10 active torsions:
REMARK  status: ('A' for Active; 'I' for Inactive)
REMARK    1  A    between atoms: C2_2  and  C4_4 
REMARK    2  A    between atoms: C4_4  and  N1_5 
REMARK    3  A    between atoms: N1_5  and  C5_7 
REMARK    4  A    between atoms: C5_7  and  C6_8 
REMARK    5  A    between atoms: C5_7  and  C13_22 
REMARK    6  A    between atoms: C6_8  and  N2_9 
REMARK       I    between atoms: N2_9  and  C7_11 
REMARK       I    between atoms: C7_11  and  N3_13 
REMARK    7  A    between atoms: N3_13  and  C8_15 
REMARK    8  A    between atoms: C8_15  and  C9_16 
REMARK    9  A    between atoms: C8_15  and  C10_19 
REMARK       I    between atoms: C13_22  and  N4_24 
REMARK   10  A    between atoms: N4_24  and  C14_26 
ROOT
HETATM    1  C5  UNL     1      70.013  35.643   1.512  1.00  0.00     0.095 C 
ENDROOT
BRANCH   1   2
HETATM    2  N1  UNL     1      69.604  34.410   1.030  1.00  0.00    -0.367 N 
ATOM      3  H1  UNL     1      68.600  34.254   0.932  1.00  0.00     0.165 HD
BRANCH   2   4
HETATM    4  C4  UNL     1      70.446  33.375   0.670  1.00  0.00     0.065 C 
BRANCH   4   5
HETATM    5  C2  UNL     1      71.566  32.864   1.460  1.00  0.00     0.016 C 
HETATM    6  C1  UNL     1      71.781  31.387   1.516  1.00  0.00     0.015 C 
HETATM    7  C3  UNL     1      72.851  33.448   0.839  1.00  0.00     0.015 C 
ENDBRANCH   4   5
ENDBRANCH   2   4
ENDBRANCH   1   2
BRANCH   1   8
HETATM    8  C6  UNL     1      69.368  36.077   2.814  1.00  0.00     0.187 C 
BRANCH   8   9
HETATM    9  N2  UNL     1      67.926  36.236   2.585  1.00  0.00    -0.337 N 
HETATM   10  C7  UNL     1      67.006  35.219   2.933  1.00  0.00     0.317 C 
HETATM   11  O1  UNL     1      67.464  34.164   3.454  1.00  0.00    -0.247 OA
HETATM   12  N3  UNL     1      65.607  35.333   2.724  1.00  0.00    -0.328 N 
ATOM     13  H3  UNL     1      65.244  36.187   2.301  1.00  0.00     0.165 HD
ATOM     14  H2  UNL     1      67.580  37.100   2.165  1.00  0.00     0.164 HD
BRANCH  12  15
HETATM   15  C8  UNL     1      64.675  34.285   3.087  1.00  0.00     0.190 C 
BRANCH  15  16
HETATM   16  C9  UNL     1      63.794  33.920   1.946  1.00  0.00     0.197 C 
HETATM   17  O2  UNL     1      63.186  34.755   1.226  1.00  0.00    -0.646 OA
HETATM   18  O3  UNL     1      63.600  32.584   1.615  1.00  0.00    -0.646 OA
ENDBRANCH  15  16
BRANCH  15  19
HETATM   19  C10 UNL     1      63.921  34.738   4.300  1.00  0.00     0.011 C 
HETATM   20  C11 UNL     1      63.897  36.240   4.452  1.00  0.00     0.012 C 
HETATM   21  C12 UNL     1      64.544  34.114   5.516  1.00  0.00     0.012 C 
ENDBRANCH  15  19
ENDBRANCH  12  15
ENDBRANCH   8   9
ENDBRANCH   1   8
BRANCH   1  22
HETATM   22  C13 UNL     1      70.262  36.691   0.542  1.00  0.00     0.266 C 
HETATM   23  O4  UNL     1      69.904  37.872   0.778  1.00  0.00    -0.266 OA
HETATM   24  N4  UNL     1      70.912  36.467  -0.714  1.00  0.00    -0.351 N 
ATOM     25  H4  UNL     1      71.229  35.532  -0.973  1.00  0.00     0.163 HD
BRANCH  24  26
HETATM   26  C14 UNL     1      71.112  37.569  -1.601  1.00  0.00     0.084 C 
HETATM   27  C15 UNL     1      70.592  37.142  -2.976  1.00  0.00     0.025 C 
HETATM   28  C16 UNL     1      71.061  38.186  -3.959  1.00  0.00     0.002 C 
HETATM   29  C17 UNL     1      71.365  39.510  -3.284  1.00  0.00     0.000 C 
HETATM   30  C18 UNL     1      72.548  39.387  -2.359  1.00  0.00     0.002 C 
HETATM   31  C19 UNL     1      72.530  38.030  -1.690  1.00  0.00     0.025 C 
ENDBRANCH  24  26
ENDBRANCH   1  22
TORSDOF 10
ENDMDL
