MODEL 1
REMARK VINA RESULT: -8.521767208      0.000      0.000
REMARK  10 active torsions:
REMARK  status: ('A' for Active; 'I' for Inactive)
REMARK    1  A    between atoms: N1_2  and  C2_5 
REMARK    2  A    between atoms: C2_5  and  C4_7 
REMARK       I    between atoms: C4_7  and  N2_9 
REMARK    3  A    between atoms: N2_9  and  C5_11 
REMARK    4  A    between atoms: C5_11  and  C6_12 
REMARK    5  A    between atoms: C5_11  and  C13_19 
REMARK    6  A    between atoms: C6_12  and  C7_13 
REMARK       I    between atoms: C13_19  and  N3_21 
REMARK    7  A    between atoms: N3_21  and  C14_23 
REMARK    8  A    between atoms: C14_23  and  C15_24 
REMARK    9  A    between atoms: C14_23  and  C20_29 
REMARK   10  A    between atoms: C15_24  and  C16_25 
ROOT
HETATM    1  C5  UNL     1      71.442  33.646   1.311  1.00  0.00     0.177 C 
ENDROOT
BRANCH   1   2
HETATM    2  N2  UNL     1      71.545  32.267   0.890  1.00  0.00    -0.346 N 
HETATM    3  C4  UNL     1      71.750  31.188   1.773  1.00  0.00     0.248 C 
HETATM    4  O1  UNL     1      71.850  31.407   2.995  1.00  0.00    -0.271 OA
ATOM      5  H2  UNL     1      71.465  32.062  -0.106  1.00  0.00     0.163 HD
BRANCH   3   6
HETATM    6  C2  UNL     1      71.849  29.803   1.279  1.00  0.00     0.272 C 
HETATM    7  C3  UNL     1      73.291  29.409   1.123  1.00  0.00     0.050 C 
BRANCH   6   8
HETATM    8  N1  UNL     1      71.194  29.627  -0.003  1.00  0.00    -0.067 N 
HETATM    9  C1  UNL     1      70.396  28.419   0.016  1.00  0.00     0.267 C 
ATOM     10  H12 UNL     1      71.858  29.635  -0.777  1.00  0.00     0.277 HD
ATOM     11  H11 UNL     1      70.646  30.445  -0.269  1.00  0.00     0.277 HD
ENDBRANCH   6   8
ENDBRANCH   3   6
ENDBRANCH   1   2
BRANCH   1  12
HETATM   12  C6  UNL     1      72.206  34.597   0.444  1.00  0.00     0.039 C 
BRANCH  12  13
HETATM   13  C7  UNL     1      71.510  35.923   0.303  1.00  0.00    -0.012 C 
HETATM   14  C8  UNL     1      72.401  37.057   0.766  1.00  0.00     0.005 C 
HETATM   15  C9  UNL     1      71.512  38.292   0.856  1.00  0.00     0.000 C 
HETATM   16  C10 UNL     1      71.173  38.682  -0.563  1.00  0.00     0.000 C 
HETATM   17  C11 UNL     1      71.441  37.592  -1.546  1.00  0.00     0.000 C 
HETATM   18  C12 UNL     1      71.037  36.221  -1.082  1.00  0.00     0.005 C 
ENDBRANCH  12  13
ENDBRANCH   1  12
BRANCH   1  19
HETATM   19  C13 UNL     1      70.041  34.095   1.504  1.00  0.00     0.241 C 
HETATM   20  O2  UNL     1      69.098  33.634   0.825  1.00  0.00    -0.271 OA
HETATM   21  N3  UNL     1      69.764  35.069   2.481  1.00  0.00    -0.345 N 
ATOM     22  H3  UNL     1      70.514  35.463   3.050  1.00  0.00     0.163 HD
BRANCH  21  23
HETATM   23  C14 UNL     1      68.360  35.514   2.671  1.00  0.00     0.186 C 
BRANCH  23  24
HETATM   24  C15 UNL     1      68.213  35.654   4.155  1.00  0.00     0.041 C 
BRANCH  24  25
HETATM   25  C16 UNL     1      66.910  35.266   4.754  1.00  0.00    -0.012 C 
HETATM   26  C17 UNL     1      66.220  34.277   3.793  1.00  0.00     0.005 C 
HETATM   27  C18 UNL     1      66.036  33.262   4.885  1.00  0.00     0.001 C 
HETATM   28  C19 UNL     1      66.935  34.101   5.749  1.00  0.00     0.005 C 
ENDBRANCH  24  25
ENDBRANCH  23  24
BRANCH  23  29
HETATM   29  C20 UNL     1      68.174  36.752   1.899  1.00  0.00     0.196 C 
HETATM   30  O3  UNL     1      67.860  36.711   0.664  1.00  0.00    -0.646 OA
HETATM   31  O4  UNL     1      68.315  38.010   2.435  1.00  0.00    -0.646 OA
ENDBRANCH  23  29
ENDBRANCH  21  23
ENDBRANCH   1  19
TORSDOF 10
ENDMDL
MODEL 2
REMARK VINA RESULT: -8.290325427      1.298      1.506
REMARK  10 active torsions:
REMARK  status: ('A' for Active; 'I' for Inactive)
REMARK    1  A    between atoms: N1_2  and  C2_5 
REMARK    2  A    between atoms: C2_5  and  C4_7 
REMARK       I    between atoms: C4_7  and  N2_9 
REMARK    3  A    between atoms: N2_9  and  C5_11 
REMARK    4  A    between atoms: C5_11  and  C6_12 
REMARK    5  A    between atoms: C5_11  and  C13_19 
REMARK    6  A    between atoms: C6_12  and  C7_13 
REMARK       I    between atoms: C13_19  and  N3_21 
REMARK    7  A    between atoms: N3_21  and  C14_23 
REMARK    8  A    between atoms: C14_23  and  C15_24 
REMARK    9  A    between atoms: C14_23  and  C20_29 
REMARK   10  A    between atoms: C15_24  and  C16_25 
ROOT
HETATM    1  C5  UNL     1      70.710  34.368   1.606  1.00  0.00     0.177 C 
ENDROOT
BRANCH   1   2
HETATM    2  N2  UNL     1      71.392  33.163   2.022  1.00  0.00    -0.346 N 
HETATM    3  C4  UNL     1      71.429  31.978   1.261  1.00  0.00     0.248 C 
HETATM    4  O1  UNL     1      70.850  31.939   0.159  1.00  0.00    -0.271 OA
ATOM      5  H2  UNL     1      71.874  33.171   2.921  1.00  0.00     0.163 HD
BRANCH   3   6
HETATM    6  C2  UNL     1      72.141  30.781   1.744  1.00  0.00     0.272 C 
HETATM    7  C3  UNL     1      73.582  30.826   1.321  1.00  0.00     0.050 C 
BRANCH   6   8
HETATM    8  N1  UNL     1      71.562  29.552   1.235  1.00  0.00    -0.067 N 
HETATM    9  C1  UNL     1      72.580  28.525   1.164  1.00  0.00     0.267 C 
ATOM     10  H12 UNL     1      71.094  29.691   0.339  1.00  0.00     0.277 HD
ATOM     11  H11 UNL     1      70.753  29.254   1.780  1.00  0.00     0.277 HD
ENDBRANCH   6   8
ENDBRANCH   3   6
ENDBRANCH   1   2
BRANCH   1  12
HETATM   12  C6  UNL     1      70.906  34.700   0.160  1.00  0.00     0.039 C 
BRANCH  12  13
HETATM   13  C7  UNL     1      70.933  36.184  -0.084  1.00  0.00    -0.012 C 
HETATM   14  C8  UNL     1      72.263  36.780   0.329  1.00  0.00     0.005 C 
HETATM   15  C9  UNL     1      72.079  38.293   0.315  1.00  0.00     0.000 C 
HETATM   16  C10 UNL     1      71.958  38.699  -1.134  1.00  0.00     0.000 C 
HETATM   17  C11 UNL     1      71.661  37.549  -2.038  1.00  0.00     0.000 C 
HETATM   18  C12 UNL     1      70.652  36.576  -1.497  1.00  0.00     0.005 C 
ENDBRANCH  12  13
ENDBRANCH   1  12
BRANCH   1  19
HETATM   19  C13 UNL     1      69.273  34.383   1.975  1.00  0.00     0.241 C 
HETATM   20  O2  UNL     1      68.418  33.730   1.337  1.00  0.00    -0.271 OA
HETATM   21  N3  UNL     1      68.858  35.156   3.076  1.00  0.00    -0.345 N 
ATOM     22  H3  UNL     1      69.534  35.698   3.614  1.00  0.00     0.163 HD
BRANCH  21  23
HETATM   23  C14 UNL     1      67.418  35.167   3.440  1.00  0.00     0.186 C 
BRANCH  23  24
HETATM   24  C15 UNL     1      67.405  34.857   4.907  1.00  0.00     0.041 C 
BRANCH  24  25
HETATM   25  C16 UNL     1      66.204  34.176   5.452  1.00  0.00    -0.012 C 
HETATM   26  C17 UNL     1      65.729  33.143   4.411  1.00  0.00     0.005 C 
HETATM   27  C18 UNL     1      65.745  32.034   5.426  1.00  0.00     0.001 C 
HETATM   28  C19 UNL     1      66.455  32.971   6.363  1.00  0.00     0.005 C 
ENDBRANCH  24  25
ENDBRANCH  23  24
BRANCH  23  29
HETATM   29  C20 UNL     1      66.871  36.480   3.068  1.00  0.00     0.196 C 
HETATM   30  O3  UNL     1      67.639  37.422   2.684  1.00  0.00    -0.646 OA
HETATM   31  O4  UNL     1      65.530  36.781   3.099  1.00  0.00    -0.646 OA
ENDBRANCH  23  29
ENDBRANCH  21  23
ENDBRANCH   1  19
TORSDOF 10
ENDMDL
MODEL 3
REMARK VINA RESULT: -8.271865197      2.508      6.184
REMARK  10 active torsions:
REMARK  status: ('A' for Active; 'I' for Inactive)
REMARK    1  A    between atoms: N1_2  and  C2_5 
REMARK    2  A    between atoms: C2_5  and  C4_7 
REMARK       I    between atoms: C4_7  and  N2_9 
REMARK    3  A    between atoms: N2_9  and  C5_11 
REMARK    4  A    between atoms: C5_11  and  C6_12 
REMARK    5  A    between atoms: C5_11  and  C13_19 
REMARK    6  A    between atoms: C6_12  and  C7_13 
REMARK       I    between atoms: C13_19  and  N3_21 
REMARK    7  A    between atoms: N3_21  and  C14_23 
REMARK    8  A    between atoms: C14_23  and  C15_24 
REMARK    9  A    between atoms: C14_23  and  C20_29 
REMARK   10  A    between atoms: C15_24  and  C16_25 
ROOT
HETATM    1  C5  UNL     1      71.953  36.056   0.168  1.00  0.00     0.177 C 
ENDROOT
BRANCH   1   2
HETATM    2  N2  UNL     1      70.684  36.063   0.860  1.00  0.00    -0.346 N 
HETATM    3  C4  UNL     1      69.814  34.957   0.920  1.00  0.00     0.248 C 
HETATM    4  O1  UNL     1      70.133  33.896   0.352  1.00  0.00    -0.271 OA
ATOM      5  H2  UNL     1      70.402  36.922   1.334  1.00  0.00     0.163 HD
BRANCH   3   6
HETATM    6  C2  UNL     1      68.531  35.031   1.641  1.00  0.00     0.272 C 
HETATM    7  C3  UNL     1      67.897  36.379   1.438  1.00  0.00     0.050 C 
BRANCH   6   8
HETATM    8  N1  UNL     1      68.687  34.820   3.067  1.00  0.00    -0.067 N 
HETATM    9  C1  UNL     1      68.351  36.034   3.782  1.00  0.00     0.267 C 
ATOM     10  H12 UNL     1      69.619  34.480   3.305  1.00  0.00     0.277 HD
ATOM     11  H11 UNL     1      68.148  34.020   3.398  1.00  0.00     0.277 HD
ENDBRANCH   6   8
ENDBRANCH   3   6
ENDBRANCH   1   2
BRANCH   1  12
HETATM   12  C6  UNL     1      72.437  37.420  -0.213  1.00  0.00     0.039 C 
BRANCH  12  13
HETATM   13  C7  UNL     1      72.339  37.666  -1.694  1.00  0.00    -0.012 C 
HETATM   14  C8  UNL     1      70.937  37.399  -2.198  1.00  0.00     0.005 C 
HETATM   15  C9  UNL     1      71.021  37.393  -3.720  1.00  0.00     0.000 C 
HETATM   16  C10 UNL     1      71.270  38.821  -4.143  1.00  0.00     0.000 C 
HETATM   17  C11 UNL     1      71.737  39.688  -3.020  1.00  0.00     0.000 C 
HETATM   18  C12 UNL     1      72.745  39.041  -2.112  1.00  0.00     0.005 C 
ENDBRANCH  12  13
ENDBRANCH   1  12
BRANCH   1  19
HETATM   19  C13 UNL     1      73.003  35.287   0.880  1.00  0.00     0.241 C 
HETATM   20  O2  UNL     1      73.523  35.702   1.940  1.00  0.00    -0.271 OA
HETATM   21  N3  UNL     1      73.427  34.055   0.350  1.00  0.00    -0.345 N 
ATOM     22  H3  UNL     1      73.020  33.693  -0.513  1.00  0.00     0.163 HD
BRANCH  21  23
HETATM   23  C14 UNL     1      74.478  33.290   1.068  1.00  0.00     0.186 C 
BRANCH  23  24
HETATM   24  C15 UNL     1      74.302  31.880   0.591  1.00  0.00     0.041 C 
BRANCH  24  25
HETATM   25  C16 UNL     1      73.658  30.919   1.521  1.00  0.00    -0.012 C 
HETATM   26  C17 UNL     1      72.141  31.196   1.519  1.00  0.00     0.005 C 
HETATM   27  C18 UNL     1      71.826  29.761   1.202  1.00  0.00     0.001 C 
HETATM   28  C19 UNL     1      73.291  29.549   0.942  1.00  0.00     0.005 C 
ENDBRANCH  24  25
ENDBRANCH  23  24
BRANCH  23  29
HETATM   29  C20 UNL     1      75.776  33.905   0.751  1.00  0.00     0.196 C 
HETATM   30  O3  UNL     1      76.187  33.979  -0.453  1.00  0.00    -0.646 OA
HETATM   31  O4  UNL     1      76.617  34.437   1.701  1.00  0.00    -0.646 OA
ENDBRANCH  23  29
ENDBRANCH  21  23
ENDBRANCH   1  19
TORSDOF 10
ENDMDL
MODEL 4
REMARK VINA RESULT: -8.249865659      2.508      5.941
REMARK  10 active torsions:
REMARK  status: ('A' for Active; 'I' for Inactive)
REMARK    1  A    between atoms: N1_2  and  C2_5 
REMARK    2  A    between atoms: C2_5  and  C4_7 
REMARK       I    between atoms: C4_7  and  N2_9 
REMARK    3  A    between atoms: N2_9  and  C5_11 
REMARK    4  A    between atoms: C5_11  and  C6_12 
REMARK    5  A    between atoms: C5_11  and  C13_19 
REMARK    6  A    between atoms: C6_12  and  C7_13 
REMARK       I    between atoms: C13_19  and  N3_21 
REMARK    7  A    between atoms: N3_21  and  C14_23 
REMARK    8  A    between atoms: C14_23  and  C15_24 
REMARK    9  A    between atoms: C14_23  and  C20_29 
REMARK   10  A    between atoms: C15_24  and  C16_25 
ROOT
HETATM    1  C5  UNL     1      70.582  34.669   1.351  1.00  0.00     0.177 C 
ENDROOT
BRANCH   1   2
HETATM    2  N2  UNL     1      71.521  33.656   1.776  1.00  0.00    -0.346 N 
HETATM    3  C4  UNL     1      71.362  32.280   1.523  1.00  0.00     0.248 C 
HETATM    4  O1  UNL     1      70.361  31.884   0.896  1.00  0.00    -0.271 OA
ATOM      5  H2  UNL     1      72.349  33.957   2.291  1.00  0.00     0.163 HD
BRANCH   3   6
HETATM    6  C2  UNL     1      72.356  31.296   1.987  1.00  0.00     0.272 C 
HETATM    7  C3  UNL     1      73.603  31.384   1.152  1.00  0.00     0.050 C 
BRANCH   6   8
HETATM    8  N1  UNL     1      71.862  29.934   1.912  1.00  0.00    -0.067 N 
HETATM    9  C1  UNL     1      72.720  29.149   1.050  1.00  0.00     0.267 C 
ATOM     10  H12 UNL     1      70.885  29.896   1.621  1.00  0.00     0.277 HD
ATOM     11  H11 UNL     1      71.758  29.514   2.835  1.00  0.00     0.277 HD
ENDBRANCH   6   8
ENDBRANCH   3   6
ENDBRANCH   1   2
BRANCH   1  12
HETATM   12  C6  UNL     1      70.209  35.634   2.432  1.00  0.00     0.039 C 
BRANCH  12  13
HETATM   13  C7  UNL     1      68.720  35.735   2.617  1.00  0.00    -0.012 C 
HETATM   14  C8  UNL     1      68.022  34.495   2.098  1.00  0.00     0.005 C 
HETATM   15  C9  UNL     1      66.534  34.822   2.065  1.00  0.00     0.000 C 
HETATM   16  C10 UNL     1      66.076  34.895   3.503  1.00  0.00     0.000 C 
HETATM   17  C11 UNL     1      67.209  35.026   4.467  1.00  0.00     0.000 C 
HETATM   18  C12 UNL     1      68.294  35.968   4.029  1.00  0.00     0.005 C 
ENDBRANCH  12  13
ENDBRANCH   1  12
BRANCH   1  19
HETATM   19  C13 UNL     1      71.003  35.376   0.116  1.00  0.00     0.241 C 
HETATM   20  O2  UNL     1      70.378  35.257  -0.961  1.00  0.00    -0.271 OA
HETATM   21  N3  UNL     1      72.139  36.205   0.156  1.00  0.00    -0.345 N 
ATOM     22  H3  UNL     1      72.669  36.320   1.021  1.00  0.00     0.163 HD
BRANCH  21  23
HETATM   23  C14 UNL     1      72.555  36.910  -1.084  1.00  0.00     0.186 C 
BRANCH  23  24
HETATM   24  C15 UNL     1      72.070  38.315  -0.891  1.00  0.00     0.041 C 
BRANCH  24  25
HETATM   25  C16 UNL     1      71.063  38.829  -1.853  1.00  0.00    -0.012 C 
HETATM   26  C17 UNL     1      71.798  39.705  -2.887  1.00  0.00     0.005 C 
HETATM   27  C18 UNL     1      71.218  38.928  -4.036  1.00  0.00     0.001 C 
HETATM   28  C19 UNL     1      70.722  37.920  -3.037  1.00  0.00     0.005 C 
ENDBRANCH  24  25
ENDBRANCH  23  24
BRANCH  23  29
HETATM   29  C20 UNL     1      74.012  36.758  -1.218  1.00  0.00     0.196 C 
HETATM   30  O3  UNL     1      74.635  35.846  -0.583  1.00  0.00    -0.646 OA
HETATM   31  O4  UNL     1      74.789  37.562  -2.019  1.00  0.00    -0.646 OA
ENDBRANCH  23  29
ENDBRANCH  21  23
ENDBRANCH   1  19
TORSDOF 10
ENDMDL
MODEL 5
REMARK VINA RESULT: -8.242367196      2.120      6.398
REMARK  10 active torsions:
REMARK  status: ('A' for Active; 'I' for Inactive)
REMARK    1  A    between atoms: N1_2  and  C2_5 
REMARK    2  A    between atoms: C2_5  and  C4_7 
REMARK       I    between atoms: C4_7  and  N2_9 
REMARK    3  A    between atoms: N2_9  and  C5_11 
REMARK    4  A    between atoms: C5_11  and  C6_12 
REMARK    5  A    between atoms: C5_11  and  C13_19 
REMARK    6  A    between atoms: C6_12  and  C7_13 
REMARK       I    between atoms: C13_19  and  N3_21 
REMARK    7  A    between atoms: N3_21  and  C14_23 
REMARK    8  A    between atoms: C14_23  and  C15_24 
REMARK    9  A    between atoms: C14_23  and  C20_29 
REMARK   10  A    between atoms: C15_24  and  C16_25 
ROOT
HETATM    1  C5  UNL     1      70.628  36.282   1.205  1.00  0.00     0.177 C 
ENDROOT
BRANCH   1   2
HETATM    2  N2  UNL     1      69.667  36.250   2.284  1.00  0.00    -0.346 N 
HETATM    3  C4  UNL     1      68.295  36.527   2.124  1.00  0.00     0.248 C 
HETATM    4  O1  UNL     1      67.857  36.819   0.995  1.00  0.00    -0.271 OA
ATOM      5  H2  UNL     1      70.003  36.012   3.218  1.00  0.00     0.163 HD
BRANCH   3   6
HETATM    6  C2  UNL     1      67.367  36.480   3.267  1.00  0.00     0.272 C 
HETATM    7  C3  UNL     1      68.010  35.777   4.431  1.00  0.00     0.050 C 
BRANCH   6   8
HETATM    8  N1  UNL     1      66.135  35.783   2.949  1.00  0.00    -0.067 N 
HETATM    9  C1  UNL     1      65.058  36.290   3.774  1.00  0.00     0.267 C 
ATOM     10  H12 UNL     1      66.235  34.771   3.027  1.00  0.00     0.277 HD
ATOM     11  H11 UNL     1      65.912  35.833   1.955  1.00  0.00     0.277 HD
ENDBRANCH   6   8
ENDBRANCH   3   6
ENDBRANCH   1   2
BRANCH   1  12
HETATM   12  C6  UNL     1      71.841  37.106   1.506  1.00  0.00     0.039 C 
BRANCH  12  13
HETATM   13  C7  UNL     1      72.240  37.977   0.346  1.00  0.00    -0.012 C 
HETATM   14  C8  UNL     1      72.876  37.157  -0.757  1.00  0.00     0.005 C 
HETATM   15  C9  UNL     1      73.495  38.154  -1.730  1.00  0.00     0.000 C 
HETATM   16  C10 UNL     1      72.348  38.840  -2.433  1.00  0.00     0.000 C 
HETATM   17  C11 UNL     1      71.043  38.655  -1.731  1.00  0.00     0.000 C 
HETATM   18  C12 UNL     1      71.118  38.772  -0.235  1.00  0.00     0.005 C 
ENDBRANCH  12  13
ENDBRANCH   1  12
BRANCH   1  19
HETATM   19  C13 UNL     1      70.999  34.933   0.711  1.00  0.00     0.241 C 
HETATM   20  O2  UNL     1      70.415  34.399  -0.258  1.00  0.00    -0.271 OA
HETATM   21  N3  UNL     1      72.038  34.232   1.350  1.00  0.00    -0.345 N 
ATOM     22  H3  UNL     1      72.531  34.643   2.143  1.00  0.00     0.163 HD
BRANCH  21  23
HETATM   23  C14 UNL     1      72.405  32.882   0.850  1.00  0.00     0.186 C 
BRANCH  23  24
HETATM   24  C15 UNL     1      73.877  32.778   1.110  1.00  0.00     0.041 C 
BRANCH  24  25
HETATM   25  C16 UNL     1      74.668  34.035   1.077  1.00  0.00    -0.012 C 
HETATM   26  C17 UNL     1      75.445  34.144   2.404  1.00  0.00     0.005 C 
HETATM   27  C18 UNL     1      76.752  34.327   1.685  1.00  0.00     0.001 C 
HETATM   28  C19 UNL     1      76.045  33.958   0.411  1.00  0.00     0.005 C 
ENDBRANCH  24  25
ENDBRANCH  23  24
BRANCH  23  29
HETATM   29  C20 UNL     1      71.568  31.900   1.557  1.00  0.00     0.196 C 
HETATM   30  O3  UNL     1      71.827  31.567   2.760  1.00  0.00    -0.646 OA
HETATM   31  O4  UNL     1      70.474  31.288   0.993  1.00  0.00    -0.646 OA
ENDBRANCH  23  29
ENDBRANCH  21  23
ENDBRANCH   1  19
TORSDOF 10
ENDMDL
