MODEL 1
REMARK VINA RESULT: -9.063741713      0.000      0.000
REMARK  11 active torsions:
REMARK  status: ('A' for Active; 'I' for Inactive)
REMARK    1  A    between atoms: C2_2  and  C3_3 
REMARK    2  A    between atoms: C2_2  and  C9_9 
REMARK    3  A    between atoms: C3_3  and  C4_4 
REMARK       I    between atoms: C9_9  and  N1_11 
REMARK    4  A    between atoms: N1_11  and  C10_13 
REMARK    5  A    between atoms: C10_13  and  C11_14 
REMARK    6  A    between atoms: C10_13  and  C18_26 
REMARK       I    between atoms: C11_14  and  N2_16 
REMARK    7  A    between atoms: N2_16  and  C12_18 
REMARK    8  A    between atoms: C12_18  and  C13_19 
REMARK    9  A    between atoms: C12_18  and  C17_23 
REMARK   10  A    between atoms: C13_19  and  C14_20 
REMARK   11  A    between atoms: N4_28  and  O5_30 
ROOT
HETATM    1  C10 UNL     1      69.970  36.672   0.237  1.00  0.00     0.243 C 
ENDROOT
BRANCH   1   2
HETATM    2  N1  UNL     1      70.632  37.636  -0.580  1.00  0.00    -0.338 N 
HETATM    3  C9  UNL     1      70.632  37.661  -1.983  1.00  0.00     0.247 C 
HETATM    4  O1  UNL     1      70.008  36.778  -2.604  1.00  0.00    -0.268 OA
ATOM      5  H1  UNL     1      71.152  38.371  -0.102  1.00  0.00     0.164 HD
BRANCH   3   6
HETATM    6  C2  UNL     1      71.337  38.687  -2.762  1.00  0.00     0.001 C 
HETATM    7  C1  UNL     1      72.409  39.244  -2.249  1.00  0.00     0.024 C 
BRANCH   6   8
HETATM    8  C3  UNL     1      70.854  39.086  -4.097  1.00  0.00     0.048 C 
BRANCH   8   9
HETATM    9  C4  UNL     1      71.832  38.982  -5.213  1.00  0.00    -0.010 C 
HETATM   10  C5  UNL     1      71.635  40.237  -6.087  1.00  0.00     0.005 C 
HETATM   11  C6  UNL     1      72.037  39.721  -7.449  1.00  0.00     0.000 C 
HETATM   12  C7  UNL     1      71.186  38.445  -7.508  1.00  0.00     0.000 C 
HETATM   13  C8  UNL     1      71.466  37.844  -6.172  1.00  0.00     0.005 C 
ENDBRANCH   8   9
ENDBRANCH   6   8
ENDBRANCH   3   6
ENDBRANCH   1   2
BRANCH   1  14
HETATM   14  C11 UNL     1      70.863  35.796   0.991  1.00  0.00     0.248 C 
HETATM   15  O2  UNL     1      71.153  36.068   2.176  1.00  0.00    -0.271 OA
HETATM   16  N2  UNL     1      71.406  34.642   0.400  1.00  0.00    -0.344 N 
ATOM     17  H2  UNL     1      71.168  34.415  -0.566  1.00  0.00     0.163 HD
BRANCH  16  18
HETATM   18  C12 UNL     1      72.333  33.732   1.167  1.00  0.00     0.185 C 
BRANCH  18  19
HETATM   19  C13 UNL     1      73.541  33.698   0.330  1.00  0.00     0.040 C 
BRANCH  19  20
HETATM   20  C14 UNL     1      74.841  33.244   0.810  1.00  0.00    -0.020 C 
HETATM   21  C15 UNL     1      76.061  34.035   0.574  1.00  0.00     0.009 C 
HETATM   22  C16 UNL     1      75.159  31.801   0.406  1.00  0.00     0.009 C 
ENDBRANCH  19  20
ENDBRANCH  18  19
BRANCH  18  23
HETATM   23  C17 UNL     1      71.575  32.495   1.297  1.00  0.00     0.196 C 
HETATM   24  O3  UNL     1      70.666  32.195   0.455  1.00  0.00    -0.646 OA
HETATM   25  O4  UNL     1      71.783  31.600   2.317  1.00  0.00    -0.646 OA
ENDBRANCH  18  23
ENDBRANCH  16  18
ENDBRANCH   1  14
BRANCH   1  26
HETATM   26  C18 UNL     1      68.995  37.336   1.154  1.00  0.00     0.145 C 
HETATM   27  N3  UNL     1      67.643  36.920   1.237  1.00  0.00    -0.083 NA
HETATM   28  N4  UNL     1      69.375  38.337   1.915  1.00  0.00    -0.257 N 
ATOM     29  H4  UNL     1      68.708  38.789   2.541  1.00  0.00     0.195 HD
BRANCH  28  30
HETATM   30  O5  UNL     1      70.688  38.774   1.861  1.00  0.00    -0.289 OA
ATOM     31  H5  UNL     1      70.972  39.472   2.440  1.00  0.00     0.244 HD
ENDBRANCH  28  30
ENDBRANCH   1  26
TORSDOF 11
ENDMDL
MODEL 2
REMARK VINA RESULT: -8.558263020      3.451      5.650
REMARK  11 active torsions:
REMARK  status: ('A' for Active; 'I' for Inactive)
REMARK    1  A    between atoms: C2_2  and  C3_3 
REMARK    2  A    between atoms: C2_2  and  C9_9 
REMARK    3  A    between atoms: C3_3  and  C4_4 
REMARK       I    between atoms: C9_9  and  N1_11 
REMARK    4  A    between atoms: N1_11  and  C10_13 
REMARK    5  A    between atoms: C10_13  and  C11_14 
REMARK    6  A    between atoms: C10_13  and  C18_26 
REMARK       I    between atoms: C11_14  and  N2_16 
REMARK    7  A    between atoms: N2_16  and  C12_18 
REMARK    8  A    between atoms: C12_18  and  C13_19 
REMARK    9  A    between atoms: C12_18  and  C17_23 
REMARK   10  A    between atoms: C13_19  and  C14_20 
REMARK   11  A    between atoms: N4_28  and  O5_30 
ROOT
HETATM    1  C10 UNL     1      70.538  35.552   2.015  1.00  0.00     0.243 C 
ENDROOT
BRANCH   1   2
HETATM    2  N1  UNL     1      70.956  36.308   0.879  1.00  0.00    -0.338 N 
HETATM    3  C9  UNL     1      72.254  36.784   0.642  1.00  0.00     0.247 C 
HETATM    4  O1  UNL     1      73.148  36.546   1.479  1.00  0.00    -0.268 OA
ATOM      5  H1  UNL     1      70.248  36.520   0.176  1.00  0.00     0.164 HD
BRANCH   3   6
HETATM    6  C2  UNL     1      72.615  37.557  -0.554  1.00  0.00     0.001 C 
HETATM    7  C1  UNL     1      73.697  37.223  -1.218  1.00  0.00     0.024 C 
BRANCH   6   8
HETATM    8  C3  UNL     1      71.779  38.685  -1.004  1.00  0.00     0.048 C 
BRANCH   8   9
HETATM    9  C4  UNL     1      70.880  38.422  -2.160  1.00  0.00    -0.010 C 
HETATM   10  C5  UNL     1      71.636  37.451  -3.090  1.00  0.00     0.005 C 
HETATM   11  C6  UNL     1      71.074  37.830  -4.440  1.00  0.00     0.000 C 
HETATM   12  C7  UNL     1      71.266  39.350  -4.388  1.00  0.00     0.000 C 
HETATM   13  C8  UNL     1      70.719  39.668  -3.037  1.00  0.00     0.005 C 
ENDBRANCH   8   9
ENDBRANCH   6   8
ENDBRANCH   3   6
ENDBRANCH   1   2
BRANCH   1  14
HETATM   14  C11 UNL     1      69.367  36.088   2.705  1.00  0.00     0.248 C 
HETATM   15  O2  UNL     1      69.107  37.309   2.640  1.00  0.00    -0.271 OA
HETATM   16  N2  UNL     1      68.521  35.245   3.445  1.00  0.00    -0.344 N 
ATOM     17  H2  UNL     1      68.728  34.248   3.497  1.00  0.00     0.163 HD
BRANCH  16  18
HETATM   18  C12 UNL     1      67.311  35.788   4.165  1.00  0.00     0.185 C 
BRANCH  18  19
HETATM   19  C13 UNL     1      67.107  34.824   5.256  1.00  0.00     0.040 C 
BRANCH  19  20
HETATM   20  C14 UNL     1      65.999  33.877   5.298  1.00  0.00    -0.020 C 
HETATM   21  C15 UNL     1      64.637  34.314   5.652  1.00  0.00     0.009 C 
HETATM   22  C16 UNL     1      66.303  32.634   6.139  1.00  0.00     0.009 C 
ENDBRANCH  19  20
ENDBRANCH  18  19
BRANCH  18  23
HETATM   23  C17 UNL     1      66.290  35.850   3.128  1.00  0.00     0.196 C 
HETATM   24  O3  UNL     1      65.413  36.776   3.132  1.00  0.00    -0.646 OA
HETATM   25  O4  UNL     1      66.206  34.932   2.111  1.00  0.00    -0.646 OA
ENDBRANCH  18  23
ENDBRANCH  16  18
ENDBRANCH   1  14
BRANCH   1  26
HETATM   26  C18 UNL     1      70.317  34.121   1.648  1.00  0.00     0.145 C 
HETATM   27  N3  UNL     1      69.043  33.636   1.262  1.00  0.00    -0.083 NA
HETATM   28  N4  UNL     1      71.314  33.267   1.675  1.00  0.00    -0.257 N 
ATOM     29  H4  UNL     1      71.161  32.290   1.424  1.00  0.00     0.195 HD
BRANCH  28  30
HETATM   30  O5  UNL     1      72.575  33.702   2.048  1.00  0.00    -0.289 OA
ATOM     31  H5  UNL     1      73.342  33.242   1.728  1.00  0.00     0.244 HD
ENDBRANCH  28  30
ENDBRANCH   1  26
TORSDOF 11
ENDMDL
MODEL 3
REMARK VINA RESULT: -8.554292212      2.449      5.076
REMARK  11 active torsions:
REMARK  status: ('A' for Active; 'I' for Inactive)
REMARK    1  A    between atoms: C2_2  and  C3_3 
REMARK    2  A    between atoms: C2_2  and  C9_9 
REMARK    3  A    between atoms: C3_3  and  C4_4 
REMARK       I    between atoms: C9_9  and  N1_11 
REMARK    4  A    between atoms: N1_11  and  C10_13 
REMARK    5  A    between atoms: C10_13  and  C11_14 
REMARK    6  A    between atoms: C10_13  and  C18_26 
REMARK       I    between atoms: C11_14  and  N2_16 
REMARK    7  A    between atoms: N2_16  and  C12_18 
REMARK    8  A    between atoms: C12_18  and  C13_19 
REMARK    9  A    between atoms: C12_18  and  C17_23 
REMARK   10  A    between atoms: C13_19  and  C14_20 
REMARK   11  A    between atoms: N4_28  and  O5_30 
ROOT
HETATM    1  C10 UNL     1      71.803  35.307   0.608  1.00  0.00     0.243 C 
ENDROOT
BRANCH   1   2
HETATM    2  N1  UNL     1      71.294  35.662  -0.677  1.00  0.00    -0.338 N 
HETATM    3  C9  UNL     1      71.511  36.881  -1.337  1.00  0.00     0.247 C 
HETATM    4  O1  UNL     1      72.205  37.755  -0.781  1.00  0.00    -0.268 OA
ATOM      5  H1  UNL     1      70.721  34.968  -1.157  1.00  0.00     0.164 HD
BRANCH   3   6
HETATM    6  C2  UNL     1      70.955  37.179  -2.663  1.00  0.00     0.001 C 
HETATM    7  C1  UNL     1      69.730  36.794  -2.936  1.00  0.00     0.024 C 
BRANCH   6   8
HETATM    8  C3  UNL     1      71.754  37.898  -3.673  1.00  0.00     0.048 C 
BRANCH   8   9
HETATM    9  C4  UNL     1      71.032  38.340  -4.896  1.00  0.00    -0.010 C 
HETATM   10  C5  UNL     1      71.611  37.519  -6.066  1.00  0.00     0.005 C 
HETATM   11  C6  UNL     1      71.430  38.476  -7.222  1.00  0.00     0.000 C 
HETATM   12  C7  UNL     1      72.056  39.739  -6.618  1.00  0.00     0.000 C 
HETATM   13  C8  UNL     1      71.405  39.776  -5.277  1.00  0.00     0.005 C 
ENDBRANCH   8   9
ENDBRANCH   6   8
ENDBRANCH   3   6
ENDBRANCH   1   2
BRANCH   1  14
HETATM   14  C11 UNL     1      71.074  35.888   1.733  1.00  0.00     0.248 C 
HETATM   15  O2  UNL     1      71.696  36.470   2.648  1.00  0.00    -0.271 OA
HETATM   16  N2  UNL     1      69.673  35.802   1.803  1.00  0.00    -0.344 N 
ATOM     17  H2  UNL     1      69.162  35.330   1.056  1.00  0.00     0.163 HD
BRANCH  16  18
HETATM   18  C12 UNL     1      68.910  36.393   2.962  1.00  0.00     0.185 C 
BRANCH  18  19
HETATM   19  C13 UNL     1      68.116  35.259   3.458  1.00  0.00     0.040 C 
BRANCH  19  20
HETATM   20  C14 UNL     1      67.182  35.357   4.574  1.00  0.00    -0.020 C 
HETATM   21  C15 UNL     1      67.209  34.381   5.678  1.00  0.00     0.009 C 
HETATM   22  C16 UNL     1      65.724  35.486   4.126  1.00  0.00     0.009 C 
ENDBRANCH  19  20
ENDBRANCH  18  19
BRANCH  18  23
HETATM   23  C17 UNL     1      68.184  37.507   2.367  1.00  0.00     0.196 C 
HETATM   24  O3  UNL     1      67.250  37.301   1.523  1.00  0.00    -0.646 OA
HETATM   25  O4  UNL     1      68.461  38.818   2.664  1.00  0.00    -0.646 OA
ENDBRANCH  18  23
ENDBRANCH  16  18
ENDBRANCH   1  14
BRANCH   1  26
HETATM   26  C18 UNL     1      71.888  33.823   0.753  1.00  0.00     0.145 C 
HETATM   27  N3  UNL     1      70.964  33.094   1.542  1.00  0.00    -0.083 NA
HETATM   28  N4  UNL     1      72.837  33.149   0.143  1.00  0.00    -0.257 N 
ATOM     29  H4  UNL     1      72.893  32.136   0.243  1.00  0.00     0.195 HD
BRANCH  28  30
HETATM   30  O5  UNL     1      73.761  33.826  -0.636  1.00  0.00    -0.289 OA
ATOM     31  H5  UNL     1      74.479  34.285  -0.216  1.00  0.00     0.244 HD
ENDBRANCH  28  30
ENDBRANCH   1  26
TORSDOF 11
ENDMDL
MODEL 4
REMARK VINA RESULT: -8.536454806      3.940      8.544
REMARK  11 active torsions:
REMARK  status: ('A' for Active; 'I' for Inactive)
REMARK    1  A    between atoms: C2_2  and  C3_3 
REMARK    2  A    between atoms: C2_2  and  C9_9 
REMARK    3  A    between atoms: C3_3  and  C4_4 
REMARK       I    between atoms: C9_9  and  N1_11 
REMARK    4  A    between atoms: N1_11  and  C10_13 
REMARK    5  A    between atoms: C10_13  and  C11_14 
REMARK    6  A    between atoms: C10_13  and  C18_26 
REMARK       I    between atoms: C11_14  and  N2_16 
REMARK    7  A    between atoms: N2_16  and  C12_18 
REMARK    8  A    between atoms: C12_18  and  C13_19 
REMARK    9  A    between atoms: C12_18  and  C17_23 
REMARK   10  A    between atoms: C13_19  and  C14_20 
REMARK   11  A    between atoms: N4_28  and  O5_30 
ROOT
HETATM    1  C10 UNL     1      69.495  35.111   0.951  1.00  0.00     0.243 C 
ENDROOT
BRANCH   1   2
HETATM    2  N1  UNL     1      68.714  35.397   2.111  1.00  0.00    -0.338 N 
HETATM    3  C9  UNL     1      67.464  34.837   2.417  1.00  0.00     0.247 C 
HETATM    4  O1  UNL     1      66.960  34.015   1.626  1.00  0.00    -0.268 OA
ATOM      5  H1  UNL     1      69.099  36.067   2.776  1.00  0.00     0.164 HD
BRANCH   3   6
HETATM    6  C2  UNL     1      66.714  35.177   3.633  1.00  0.00     0.001 C 
HETATM    7  C1  UNL     1      65.844  36.159   3.585  1.00  0.00     0.024 C 
BRANCH   6   8
HETATM    8  C3  UNL     1      66.930  34.431   4.886  1.00  0.00     0.048 C 
BRANCH   8   9
HETATM    9  C4  UNL     1      65.757  33.693   5.426  1.00  0.00    -0.010 C 
HETATM   10  C5  UNL     1      66.300  32.743   6.514  1.00  0.00     0.005 C 
HETATM   11  C6  UNL     1      65.307  31.607   6.444  1.00  0.00     0.000 C 
HETATM   12  C7  UNL     1      65.319  31.339   4.933  1.00  0.00     0.000 C 
HETATM   13  C8  UNL     1      65.182  32.721   4.390  1.00  0.00     0.005 C 
ENDBRANCH   8   9
ENDBRANCH   6   8
ENDBRANCH   3   6
ENDBRANCH   1   2
BRANCH   1  14
HETATM   14  C11 UNL     1      70.179  36.268   0.379  1.00  0.00     0.248 C 
HETATM   15  O2  UNL     1      69.944  37.415   0.819  1.00  0.00    -0.271 OA
HETATM   16  N2  UNL     1      71.104  36.112  -0.667  1.00  0.00    -0.344 N 
ATOM     17  H2  UNL     1      71.301  35.177  -1.026  1.00  0.00     0.163 HD
BRANCH  16  18
HETATM   18  C12 UNL     1      71.813  37.299  -1.269  1.00  0.00     0.185 C 
BRANCH  18  19
HETATM   19  C13 UNL     1      71.325  37.317  -2.656  1.00  0.00     0.040 C 
BRANCH  19  20
HETATM   20  C14 UNL     1      71.421  38.482  -3.529  1.00  0.00    -0.020 C 
HETATM   21  C15 UNL     1      70.603  39.683  -3.288  1.00  0.00     0.009 C 
HETATM   22  C16 UNL     1      71.278  38.132  -5.013  1.00  0.00     0.009 C 
ENDBRANCH  19  20
ENDBRANCH  18  19
BRANCH  18  23
HETATM   23  C17 UNL     1      73.224  37.002  -1.061  1.00  0.00     0.196 C 
HETATM   24  O3  UNL     1      73.611  36.367  -0.025  1.00  0.00    -0.646 OA
HETATM   25  O4  UNL     1      74.203  37.386  -1.944  1.00  0.00    -0.646 OA
ENDBRANCH  18  23
ENDBRANCH  16  18
ENDBRANCH   1  14
BRANCH   1  26
HETATM   26  C18 UNL     1      70.470  34.013   1.226  1.00  0.00     0.145 C 
HETATM   27  N3  UNL     1      70.218  32.674   0.836  1.00  0.00    -0.083 NA
HETATM   28  N4  UNL     1      71.599  34.267   1.847  1.00  0.00    -0.257 N 
ATOM     29  H4  UNL     1      72.263  33.516   2.034  1.00  0.00     0.195 HD
BRANCH  28  30
HETATM   30  O5  UNL     1      71.881  35.563   2.246  1.00  0.00    -0.289 OA
ATOM     31  H5  UNL     1      72.429  35.709   3.008  1.00  0.00     0.244 HD
ENDBRANCH  28  30
ENDBRANCH   1  26
TORSDOF 11
ENDMDL
MODEL 5
REMARK VINA RESULT: -8.496637794      3.295      5.525
REMARK  11 active torsions:
REMARK  status: ('A' for Active; 'I' for Inactive)
REMARK    1  A    between atoms: C2_2  and  C3_3 
REMARK    2  A    between atoms: C2_2  and  C9_9 
REMARK    3  A    between atoms: C3_3  and  C4_4 
REMARK       I    between atoms: C9_9  and  N1_11 
REMARK    4  A    between atoms: N1_11  and  C10_13 
REMARK    5  A    between atoms: C10_13  and  C11_14 
REMARK    6  A    between atoms: C10_13  and  C18_26 
REMARK       I    between atoms: C11_14  and  N2_16 
REMARK    7  A    between atoms: N2_16  and  C12_18 
REMARK    8  A    between atoms: C12_18  and  C13_19 
REMARK    9  A    between atoms: C12_18  and  C17_23 
REMARK   10  A    between atoms: C13_19  and  C14_20 
REMARK   11  A    between atoms: N4_28  and  O5_30 
ROOT
HETATM    1  C10 UNL     1      70.667  35.255   1.545  1.00  0.00     0.243 C 
ENDROOT
BRANCH   1   2
HETATM    2  N1  UNL     1      71.170  35.992   0.431  1.00  0.00    -0.338 N 
HETATM    3  C9  UNL     1      72.285  36.844   0.446  1.00  0.00     0.247 C 
HETATM    4  O1  UNL     1      72.917  36.994   1.511  1.00  0.00    -0.268 OA
ATOM      5  H1  UNL     1      70.675  35.891  -0.455  1.00  0.00     0.164 HD
BRANCH   3   6
HETATM    6  C2  UNL     1      72.749  37.572  -0.741  1.00  0.00     0.001 C 
HETATM    7  C1  UNL     1      73.825  37.148  -1.362  1.00  0.00     0.024 C 
BRANCH   6   8
HETATM    8  C3  UNL     1      72.022  38.758  -1.232  1.00  0.00     0.048 C 
BRANCH   8   9
HETATM    9  C4  UNL     1      71.034  38.524  -2.318  1.00  0.00    -0.010 C 
HETATM   10  C5  UNL     1      71.674  37.503  -3.281  1.00  0.00     0.005 C 
HETATM   11  C6  UNL     1      71.039  37.891  -4.596  1.00  0.00     0.000 C 
HETATM   12  C7  UNL     1      71.309  39.401  -4.583  1.00  0.00     0.000 C 
HETATM   13  C8  UNL     1      70.873  39.764  -3.204  1.00  0.00     0.005 C 
ENDBRANCH   8   9
ENDBRANCH   6   8
ENDBRANCH   3   6
ENDBRANCH   1   2
BRANCH   1  14
HETATM   14  C11 UNL     1      69.259  35.496   1.847  1.00  0.00     0.248 C 
HETATM   15  O2  UNL     1      68.595  36.289   1.145  1.00  0.00    -0.271 OA
HETATM   16  N2  UNL     1      68.633  34.844   2.924  1.00  0.00    -0.344 N 
ATOM     17  H2  UNL     1      69.171  34.194   3.497  1.00  0.00     0.163 HD
BRANCH  16  18
HETATM   18  C12 UNL     1      67.180  35.088   3.249  1.00  0.00     0.185 C 
BRANCH  18  19
HETATM   19  C13 UNL     1      67.124  34.902   4.706  1.00  0.00     0.040 C 
BRANCH  19  20
HETATM   20  C14 UNL     1      65.879  34.739   5.449  1.00  0.00    -0.020 C 
HETATM   21  C15 UNL     1      65.283  33.408   5.655  1.00  0.00     0.009 C 
HETATM   22  C16 UNL     1      64.760  35.660   4.955  1.00  0.00     0.009 C 
ENDBRANCH  19  20
ENDBRANCH  18  19
BRANCH  18  23
HETATM   23  C17 UNL     1      66.473  34.120   2.422  1.00  0.00     0.196 C 
HETATM   24  O3  UNL     1      65.525  34.488   1.652  1.00  0.00    -0.646 OA
HETATM   25  O4  UNL     1      66.770  32.780   2.427  1.00  0.00    -0.646 OA
ENDBRANCH  18  23
ENDBRANCH  16  18
ENDBRANCH   1  14
BRANCH   1  26
HETATM   26  C18 UNL     1      70.920  33.793   1.370  1.00  0.00     0.145 C 
HETATM   27  N3  UNL     1      69.911  32.909   0.913  1.00  0.00    -0.083 NA
HETATM   28  N4  UNL     1      72.101  33.286   1.640  1.00  0.00    -0.257 N 
ATOM     29  H4  UNL     1      72.271  32.288   1.520  1.00  0.00     0.195 HD
BRANCH  28  30
HETATM   30  O5  UNL     1      73.113  34.118   2.091  1.00  0.00    -0.289 OA
ATOM     31  H5  UNL     1      74.012  33.814   2.069  1.00  0.00     0.244 HD
ENDBRANCH  28  30
ENDBRANCH   1  26
TORSDOF 11
ENDMDL
