MODEL 1
REMARK VINA RESULT: -8.414334036      0.000      0.000
REMARK  13 active torsions:
REMARK  status: ('A' for Active; 'I' for Inactive)
REMARK    1  A    between atoms: C2_2  and  C4_4 
REMARK    2  A    between atoms: C4_4  and  C5_5 
REMARK    3  A    between atoms: C5_5  and  C6_6 
REMARK    4  A    between atoms: C6_6  and  N1_7 
REMARK    5  A    between atoms: C6_6  and  C15_22 
REMARK       I    between atoms: N1_7  and  C7_9 
REMARK    6  A    between atoms: C7_9  and  C8_11 
REMARK    7  A    between atoms: C8_11  and  N2_12 
REMARK    8  A    between atoms: C8_11  and  C9_16 
REMARK       I    between atoms: C15_22  and  N3_24 
REMARK    9  A    between atoms: N3_24  and  C16_26 
REMARK   10  A    between atoms: C16_26  and  C17_27 
REMARK   11  A    between atoms: C16_26  and  C18_32 
REMARK   12  A    between atoms: C17_27  and  O3_28 
REMARK   13  A    between atoms: C17_27  and  O4_30 
ROOT
HETATM    1  C6  UNL     1      70.574  34.857   1.691  1.00  0.00     0.177 C 
ENDROOT
BRANCH   1   2
HETATM    2  C5  UNL     1      70.992  33.664   0.851  1.00  0.00     0.039 C 
BRANCH   2   3
HETATM    3  C4  UNL     1      72.245  33.028   1.338  1.00  0.00     0.035 C 
BRANCH   3   4
HETATM    4  C2  UNL     1      72.183  31.566   1.217  1.00  0.00    -0.093 C 
HETATM    5  C1  UNL     1      71.027  30.960   0.991  1.00  0.00     0.014 C 
HETATM    6  C3  UNL     1      73.446  30.750   1.349  1.00  0.00     0.042 C 
ENDBRANCH   3   4
ENDBRANCH   2   3
ENDBRANCH   1   2
BRANCH   1   7
HETATM    7  N1  UNL     1      70.652  36.091   0.972  1.00  0.00    -0.346 N 
HETATM    8  C7  UNL     1      71.813  36.927   0.966  1.00  0.00     0.249 C 
HETATM    9  O1  UNL     1      72.812  36.560   1.625  1.00  0.00    -0.271 OA
ATOM     10  H1  UNL     1      69.838  36.390   0.435  1.00  0.00     0.163 HD
BRANCH   8  11
HETATM   11  C8  UNL     1      71.878  38.195   0.221  1.00  0.00     0.278 C 
BRANCH  11  12
HETATM   12  N2  UNL     1      70.929  39.111   0.777  1.00  0.00    -0.066 N 
ATOM     13  H23 UNL     1      69.982  38.946   0.435  1.00  0.00     0.275 HD
ATOM     14  H22 UNL     1      70.755  38.937   1.768  1.00  0.00     0.275 HD
ATOM     15  H21 UNL     1      71.245  40.065   0.600  1.00  0.00     0.275 HD
ENDBRANCH  11  12
BRANCH  11  16
HETATM   16  C9  UNL     1      71.747  38.036  -1.262  1.00  0.00     0.025 C 
HETATM   17  C10 UNL     1      70.326  37.845  -1.690  1.00  0.00     0.007 C 
HETATM   18  C11 UNL     1      70.371  37.171  -3.063  1.00  0.00     0.000 C 
HETATM   19  C12 UNL     1      71.304  37.928  -3.961  1.00  0.00     0.000 C 
HETATM   20  C13 UNL     1      71.625  39.308  -3.411  1.00  0.00     0.000 C 
HETATM   21  C14 UNL     1      72.314  39.188  -2.048  1.00  0.00     0.007 C 
ENDBRANCH  11  16
ENDBRANCH   8  11
ENDBRANCH   1   7
BRANCH   1  22
HETATM   22  C15 UNL     1      69.218  34.561   2.194  1.00  0.00     0.240 C 
HETATM   23  O2  UNL     1      68.527  33.725   1.578  1.00  0.00    -0.271 OA
HETATM   24  N3  UNL     1      68.685  35.189   3.337  1.00  0.00    -0.350 N 
ATOM     25  H3  UNL     1      69.247  35.873   3.843  1.00  0.00     0.163 HD
BRANCH  24  26
HETATM   26  C16 UNL     1      67.329  34.870   3.812  1.00  0.00     0.143 C 
BRANCH  26  27
HETATM   27  C17 UNL     1      67.345  34.721   5.324  1.00  0.00     0.276 C 
BRANCH  27  28
HETATM   28  O3  UNL     1      67.501  33.419   5.748  1.00  0.00    -0.369 OA
ATOM     29  H3  UNL     1      68.029  33.336   6.533  1.00  0.00     0.212 HD
ENDBRANCH  27  28
BRANCH  27  30
HETATM   30  O4  UNL     1      68.221  35.608   5.936  1.00  0.00    -0.369 OA
ATOM     31  H4  UNL     1      68.996  35.177   6.276  1.00  0.00     0.212 HD
ENDBRANCH  27  30
ENDBRANCH  26  27
BRANCH  26  32
HETATM   32  C18 UNL     1      66.341  35.872   3.314  1.00  0.00     0.013 A 
HETATM   33  C19 UNL     1      65.087  36.192   4.063  1.00  0.00     0.007 A 
HETATM   34  C20 UNL     1      65.012  35.319   2.849  1.00  0.00     0.007 A 
ENDBRANCH  26  32
ENDBRANCH  24  26
ENDBRANCH   1  22
TORSDOF 13
ENDMDL
MODEL 2
REMARK VINA RESULT: -8.321707047      2.081      5.154
REMARK  13 active torsions:
REMARK  status: ('A' for Active; 'I' for Inactive)
REMARK    1  A    between atoms: C2_2  and  C4_4 
REMARK    2  A    between atoms: C4_4  and  C5_5 
REMARK    3  A    between atoms: C5_5  and  C6_6 
REMARK    4  A    between atoms: C6_6  and  N1_7 
REMARK    5  A    between atoms: C6_6  and  C15_22 
REMARK       I    between atoms: N1_7  and  C7_9 
REMARK    6  A    between atoms: C7_9  and  C8_11 
REMARK    7  A    between atoms: C8_11  and  N2_12 
REMARK    8  A    between atoms: C8_11  and  C9_16 
REMARK       I    between atoms: C15_22  and  N3_24 
REMARK    9  A    between atoms: N3_24  and  C16_26 
REMARK   10  A    between atoms: C16_26  and  C17_27 
REMARK   11  A    between atoms: C16_26  and  C18_32 
REMARK   12  A    between atoms: C17_27  and  O3_28 
REMARK   13  A    between atoms: C17_27  and  O4_30 
ROOT
HETATM    1  C6  UNL     1      69.175  35.419   1.237  1.00  0.00     0.177 C 
ENDROOT
BRANCH   1   2
HETATM    2  C5  UNL     1      69.226  35.297   2.749  1.00  0.00     0.039 C 
BRANCH   2   3
HETATM    3  C4  UNL     1      68.463  36.370   3.439  1.00  0.00     0.035 C 
BRANCH   3   4
HETATM    4  C2  UNL     1      67.250  35.839   4.075  1.00  0.00    -0.093 C 
HETATM    5  C1  UNL     1      67.340  35.054   5.139  1.00  0.00     0.014 C 
HETATM    6  C3  UNL     1      65.895  36.191   3.514  1.00  0.00     0.042 C 
ENDBRANCH   3   4
ENDBRANCH   2   3
ENDBRANCH   1   2
BRANCH   1   7
HETATM    7  N1  UNL     1      69.559  36.717   0.776  1.00  0.00    -0.346 N 
HETATM    8  C7  UNL     1      70.920  37.141   0.660  1.00  0.00     0.249 C 
HETATM    9  O1  UNL     1      71.822  36.334   0.979  1.00  0.00    -0.271 OA
ATOM     10  H1  UNL     1      68.824  37.375   0.515  1.00  0.00     0.163 HD
BRANCH   8  11
HETATM   11  C8  UNL     1      71.300  38.482   0.185  1.00  0.00     0.278 C 
BRANCH  11  12
HETATM   12  N2  UNL     1      70.600  39.465   0.955  1.00  0.00    -0.066 N 
ATOM     13  H23 UNL     1      69.623  39.212   1.111  1.00  0.00     0.275 HD
ATOM     14  H22 UNL     1      70.901  39.482   1.929  1.00  0.00     0.275 HD
ATOM     15  H21 UNL     1      70.698  40.373   0.501  1.00  0.00     0.275 HD
ENDBRANCH  11  12
BRANCH  11  16
HETATM   16  C9  UNL     1      71.146  38.668  -1.293  1.00  0.00     0.025 C 
HETATM   17  C10 UNL     1      72.425  39.083  -1.950  1.00  0.00     0.007 C 
HETATM   18  C11 UNL     1      72.039  39.749  -3.272  1.00  0.00     0.000 C 
HETATM   19  C12 UNL     1      71.092  38.860  -4.022  1.00  0.00     0.000 C 
HETATM   20  C13 UNL     1      71.089  37.443  -3.472  1.00  0.00     0.000 C 
HETATM   21  C14 UNL     1      70.636  37.445  -2.009  1.00  0.00     0.007 C 
ENDBRANCH  11  16
ENDBRANCH   8  11
ENDBRANCH   1   7
BRANCH   1  22
HETATM   22  C15 UNL     1      70.022  34.336   0.700  1.00  0.00     0.240 C 
HETATM   23  O2  UNL     1      69.842  33.970  -0.478  1.00  0.00    -0.271 OA
HETATM   24  N3  UNL     1      71.020  33.709   1.471  1.00  0.00    -0.350 N 
ATOM     25  H3  UNL     1      71.171  34.006   2.436  1.00  0.00     0.163 HD
BRANCH  24  26
HETATM   26  C16 UNL     1      71.850  32.633   0.905  1.00  0.00     0.143 C 
BRANCH  26  27
HETATM   27  C17 UNL     1      73.292  33.100   0.815  1.00  0.00     0.276 C 
BRANCH  27  28
HETATM   28  O3  UNL     1      73.669  33.481  -0.455  1.00  0.00    -0.369 OA
ATOM     29  H3  UNL     1      74.186  34.278  -0.474  1.00  0.00     0.212 HD
ENDBRANCH  27  28
BRANCH  27  30
HETATM   30  O4  UNL     1      73.609  34.038   1.788  1.00  0.00    -0.369 OA
ATOM     31  H4  UNL     1      73.783  34.897   1.422  1.00  0.00     0.212 HD
ENDBRANCH  27  30
ENDBRANCH  26  27
BRANCH  26  32
HETATM   32  C18 UNL     1      71.672  31.365   1.673  1.00  0.00     0.013 A 
HETATM   33  C19 UNL     1      72.502  30.150   1.404  1.00  0.00     0.007 A 
HETATM   34  C20 UNL     1      71.092  30.199   0.903  1.00  0.00     0.007 A 
ENDBRANCH  26  32
ENDBRANCH  24  26
ENDBRANCH   1  22
TORSDOF 13
ENDMDL
MODEL 3
REMARK VINA RESULT: -8.194689685      1.462      2.148
REMARK  13 active torsions:
REMARK  status: ('A' for Active; 'I' for Inactive)
REMARK    1  A    between atoms: C2_2  and  C4_4 
REMARK    2  A    between atoms: C4_4  and  C5_5 
REMARK    3  A    between atoms: C5_5  and  C6_6 
REMARK    4  A    between atoms: C6_6  and  N1_7 
REMARK    5  A    between atoms: C6_6  and  C15_22 
REMARK       I    between atoms: N1_7  and  C7_9 
REMARK    6  A    between atoms: C7_9  and  C8_11 
REMARK    7  A    between atoms: C8_11  and  N2_12 
REMARK    8  A    between atoms: C8_11  and  C9_16 
REMARK       I    between atoms: C15_22  and  N3_24 
REMARK    9  A    between atoms: N3_24  and  C16_26 
REMARK   10  A    between atoms: C16_26  and  C17_27 
REMARK   11  A    between atoms: C16_26  and  C18_32 
REMARK   12  A    between atoms: C17_27  and  O3_28 
REMARK   13  A    between atoms: C17_27  and  O4_30 
ROOT
HETATM    1  C6  UNL     1      69.934  35.324   2.155  1.00  0.00     0.177 C 
ENDROOT
BRANCH   1   2
HETATM    2  C5  UNL     1      69.583  34.097   1.334  1.00  0.00     0.039 C 
BRANCH   2   3
HETATM    3  C4  UNL     1      70.590  33.801   0.281  1.00  0.00     0.035 C 
BRANCH   3   4
HETATM    4  C2  UNL     1      71.648  32.917   0.788  1.00  0.00    -0.093 C 
HETATM    5  C1  UNL     1      71.360  31.687   1.188  1.00  0.00     0.014 C 
HETATM    6  C3  UNL     1      73.072  33.414   0.850  1.00  0.00     0.042 C 
ENDBRANCH   3   4
ENDBRANCH   2   3
ENDBRANCH   1   2
BRANCH   1   7
HETATM    7  N1  UNL     1      70.187  36.475   1.344  1.00  0.00    -0.346 N 
HETATM    8  C7  UNL     1      71.480  37.070   1.202  1.00  0.00     0.249 C 
HETATM    9  O1  UNL     1      72.440  36.557   1.819  1.00  0.00    -0.271 OA
ATOM     10  H1  UNL     1      69.404  36.893   0.841  1.00  0.00     0.163 HD
BRANCH   8  11
HETATM   11  C8  UNL     1      71.723  38.256   0.364  1.00  0.00     0.278 C 
BRANCH  11  12
HETATM   12  N2  UNL     1      70.869  39.318   0.801  1.00  0.00    -0.066 N 
ATOM     13  H23 UNL     1      69.884  39.124   0.621  1.00  0.00     0.275 HD
ATOM     14  H22 UNL     1      70.819  39.384   1.818  1.00  0.00     0.275 HD
ATOM     15  H21 UNL     1      71.178  40.190   0.371  1.00  0.00     0.275 HD
ENDBRANCH  11  12
BRANCH  11  16
HETATM   16  C9  UNL     1      71.631  37.989  -1.107  1.00  0.00     0.025 C 
HETATM   17  C10 UNL     1      70.218  37.811  -1.565  1.00  0.00     0.007 C 
HETATM   18  C11 UNL     1      70.282  37.035  -2.882  1.00  0.00     0.000 C 
HETATM   19  C12 UNL     1      71.266  37.692  -3.803  1.00  0.00     0.000 C 
HETATM   20  C13 UNL     1      71.615  39.100  -3.347  1.00  0.00     0.000 C 
HETATM   21  C14 UNL     1      72.259  39.061  -1.958  1.00  0.00     0.007 C 
ENDBRANCH  11  16
ENDBRANCH   8  11
ENDBRANCH   1   7
BRANCH   1  22
HETATM   22  C15 UNL     1      68.828  35.518   3.113  1.00  0.00     0.240 C 
HETATM   23  O2  UNL     1      68.887  36.485   3.899  1.00  0.00    -0.271 OA
HETATM   24  N3  UNL     1      67.718  34.653   3.167  1.00  0.00    -0.350 N 
ATOM     25  H3  UNL     1      67.666  33.861   2.526  1.00  0.00     0.163 HD
BRANCH  24  26
HETATM   26  C16 UNL     1      66.631  34.876   4.135  1.00  0.00     0.143 C 
BRANCH  26  27
HETATM   27  C17 UNL     1      65.511  35.653   3.466  1.00  0.00     0.276 C 
BRANCH  27  28
HETATM   28  O3  UNL     1      65.813  36.982   3.256  1.00  0.00    -0.369 OA
ATOM     29  H3  UNL     1      65.649  37.272   2.366  1.00  0.00     0.212 HD
ENDBRANCH  27  28
BRANCH  27  30
HETATM   30  O4  UNL     1      65.022  35.014   2.335  1.00  0.00    -0.369 OA
ATOM     31  H4  UNL     1      64.091  34.832   2.394  1.00  0.00     0.212 HD
ENDBRANCH  27  30
ENDBRANCH  26  27
BRANCH  26  32
HETATM   32  C18 UNL     1      66.191  33.586   4.746  1.00  0.00     0.013 A 
HETATM   33  C19 UNL     1      65.200  33.535   5.864  1.00  0.00     0.007 A 
HETATM   34  C20 UNL     1      66.653  33.333   6.164  1.00  0.00     0.007 A 
ENDBRANCH  26  32
ENDBRANCH  24  26
ENDBRANCH   1  22
TORSDOF 13
ENDMDL
MODEL 4
REMARK VINA RESULT: -8.121189861      2.129      7.591
REMARK  13 active torsions:
REMARK  status: ('A' for Active; 'I' for Inactive)
REMARK    1  A    between atoms: C2_2  and  C4_4 
REMARK    2  A    between atoms: C4_4  and  C5_5 
REMARK    3  A    between atoms: C5_5  and  C6_6 
REMARK    4  A    between atoms: C6_6  and  N1_7 
REMARK    5  A    between atoms: C6_6  and  C15_22 
REMARK       I    between atoms: N1_7  and  C7_9 
REMARK    6  A    between atoms: C7_9  and  C8_11 
REMARK    7  A    between atoms: C8_11  and  N2_12 
REMARK    8  A    between atoms: C8_11  and  C9_16 
REMARK       I    between atoms: C15_22  and  N3_24 
REMARK    9  A    between atoms: N3_24  and  C16_26 
REMARK   10  A    between atoms: C16_26  and  C17_27 
REMARK   11  A    between atoms: C16_26  and  C18_32 
REMARK   12  A    between atoms: C17_27  and  O3_28 
REMARK   13  A    between atoms: C17_27  and  O4_30 
ROOT
HETATM    1  C6  UNL     1      69.130  34.978   1.516  1.00  0.00     0.177 C 
ENDROOT
BRANCH   1   2
HETATM    2  C5  UNL     1      70.462  34.277   1.708  1.00  0.00     0.039 C 
BRANCH   2   3
HETATM    3  C4  UNL     1      70.554  33.000   0.953  1.00  0.00     0.035 C 
BRANCH   3   4
HETATM    4  C2  UNL     1      71.857  32.353   1.154  1.00  0.00    -0.093 C 
HETATM    5  C1  UNL     1      71.925  31.080   1.517  1.00  0.00     0.014 C 
HETATM    6  C3  UNL     1      73.125  33.143   0.946  1.00  0.00     0.042 C 
ENDBRANCH   3   4
ENDBRANCH   2   3
ENDBRANCH   1   2
BRANCH   1   7
HETATM    7  N1  UNL     1      68.429  35.174   2.748  1.00  0.00    -0.346 N 
HETATM    8  C7  UNL     1      67.334  34.356   3.170  1.00  0.00     0.249 C 
HETATM    9  O1  UNL     1      66.970  33.420   2.423  1.00  0.00    -0.271 OA
ATOM     10  H1  UNL     1      68.726  35.937   3.357  1.00  0.00     0.163 HD
BRANCH   8  11
HETATM   11  C8  UNL     1      66.622  34.572   4.440  1.00  0.00     0.278 C 
BRANCH  11  12
HETATM   12  N2  UNL     1      67.565  34.962   5.443  1.00  0.00    -0.066 N 
ATOM     13  H23 UNL     1      68.159  35.734   5.139  1.00  0.00     0.275 HD
ATOM     14  H22 UNL     1      67.121  35.426   6.235  1.00  0.00     0.275 HD
ATOM     15  H21 UNL     1      68.107  34.144   5.725  1.00  0.00     0.275 HD
ENDBRANCH  11  12
BRANCH  11  16
HETATM   16  C9  UNL     1      65.759  33.420   4.855  1.00  0.00     0.025 C 
HETATM   17  C10 UNL     1      66.092  32.926   6.228  1.00  0.00     0.007 C 
HETATM   18  C11 UNL     1      65.572  31.490   6.313  1.00  0.00     0.000 C 
HETATM   19  C12 UNL     1      64.145  31.447   5.852  1.00  0.00     0.000 C 
HETATM   20  C13 UNL     1      63.522  32.832   5.806  1.00  0.00     0.000 C 
HETATM   21  C14 UNL     1      64.284  33.723   4.820  1.00  0.00     0.007 C 
ENDBRANCH  11  16
ENDBRANCH   8  11
ENDBRANCH   1   7
BRANCH   1  22
HETATM   22  C15 UNL     1      69.418  36.238   0.803  1.00  0.00     0.240 C 
HETATM   23  O2  UNL     1      68.575  37.156   0.856  1.00  0.00    -0.271 OA
HETATM   24  N3  UNL     1      70.605  36.434   0.072  1.00  0.00    -0.350 N 
ATOM     25  H3  UNL     1      71.297  35.687   0.026  1.00  0.00     0.163 HD
BRANCH  24  26
HETATM   26  C16 UNL     1      70.862  37.705  -0.627  1.00  0.00     0.143 C 
BRANCH  26  27
HETATM   27  C17 UNL     1      71.506  38.689   0.334  1.00  0.00     0.276 C 
BRANCH  27  28
HETATM   28  O3  UNL     1      70.612  39.575   0.896  1.00  0.00    -0.369 OA
ATOM     29  H3  UNL     1      71.029  40.292   1.358  1.00  0.00     0.212 HD
ENDBRANCH  27  28
BRANCH  27  30
HETATM   30  O4  UNL     1      72.323  38.064   1.266  1.00  0.00    -0.369 OA
ATOM     31  H4  UNL     1      73.108  37.700   0.876  1.00  0.00     0.212 HD
ENDBRANCH  27  30
ENDBRANCH  26  27
BRANCH  26  32
HETATM   32  C18 UNL     1      71.650  37.475  -1.875  1.00  0.00     0.013 A 
HETATM   33  C19 UNL     1      71.973  38.583  -2.825  1.00  0.00     0.007 A 
HETATM   34  C20 UNL     1      70.887  37.612  -3.174  1.00  0.00     0.007 A 
ENDBRANCH  26  32
ENDBRANCH  24  26
ENDBRANCH   1  22
TORSDOF 13
ENDMDL
MODEL 5
REMARK VINA RESULT: -8.067491416      2.107      7.119
REMARK  13 active torsions:
REMARK  status: ('A' for Active; 'I' for Inactive)
REMARK    1  A    between atoms: C2_2  and  C4_4 
REMARK    2  A    between atoms: C4_4  and  C5_5 
REMARK    3  A    between atoms: C5_5  and  C6_6 
REMARK    4  A    between atoms: C6_6  and  N1_7 
REMARK    5  A    between atoms: C6_6  and  C15_22 
REMARK       I    between atoms: N1_7  and  C7_9 
REMARK    6  A    between atoms: C7_9  and  C8_11 
REMARK    7  A    between atoms: C8_11  and  N2_12 
REMARK    8  A    between atoms: C8_11  and  C9_16 
REMARK       I    between atoms: C15_22  and  N3_24 
REMARK    9  A    between atoms: N3_24  and  C16_26 
REMARK   10  A    between atoms: C16_26  and  C17_27 
REMARK   11  A    between atoms: C16_26  and  C18_32 
REMARK   12  A    between atoms: C17_27  and  O3_28 
REMARK   13  A    between atoms: C17_27  and  O4_30 
ROOT
HETATM    1  C6  UNL     1      71.460  37.296   0.008  1.00  0.00     0.177 C 
ENDROOT
BRANCH   1   2
HETATM    2  C5  UNL     1      71.317  36.896  -1.450  1.00  0.00     0.039 C 
BRANCH   2   3
HETATM    3  C4  UNL     1      72.145  37.730  -2.360  1.00  0.00     0.035 C 
BRANCH   3   4
HETATM    4  C2  UNL     1      71.318  38.398  -3.373  1.00  0.00    -0.093 C 
HETATM    5  C1  UNL     1      70.588  39.456  -3.052  1.00  0.00     0.014 C 
HETATM    6  C3  UNL     1      71.301  37.875  -4.788  1.00  0.00     0.042 C 
ENDBRANCH   3   4
ENDBRANCH   2   3
ENDBRANCH   1   2
BRANCH   1   7
HETATM    7  N1  UNL     1      70.198  37.533   0.639  1.00  0.00    -0.346 N 
HETATM    8  C7  UNL     1      69.286  36.489   0.993  1.00  0.00     0.249 C 
HETATM    9  O1  UNL     1      69.608  35.307   0.737  1.00  0.00    -0.271 OA
ATOM     10  H1  UNL     1      69.936  38.496   0.848  1.00  0.00     0.163 HD
BRANCH   8  11
HETATM   11  C8  UNL     1      67.991  36.750   1.642  1.00  0.00     0.278 C 
BRANCH  11  12
HETATM   12  N2  UNL     1      68.070  37.984   2.362  1.00  0.00    -0.066 N 
ATOM     13  H23 UNL     1      68.061  37.845   3.373  1.00  0.00     0.275 HD
ATOM     14  H22 UNL     1      68.989  38.420   2.286  1.00  0.00     0.275 HD
ATOM     15  H21 UNL     1      67.321  38.600   2.048  1.00  0.00     0.275 HD
ENDBRANCH  11  12
BRANCH  11  16
HETATM   16  C9  UNL     1      67.489  35.610   2.475  1.00  0.00     0.025 C 
HETATM   17  C10 UNL     1      66.769  36.076   3.701  1.00  0.00     0.007 C 
HETATM   18  C11 UNL     1      66.798  34.911   4.692  1.00  0.00     0.000 C 
HETATM   19  C12 UNL     1      66.332  33.660   4.008  1.00  0.00     0.000 C 
HETATM   20  C13 UNL     1      65.622  33.962   2.698  1.00  0.00     0.000 C 
HETATM   21  C14 UNL     1      66.574  34.673   1.732  1.00  0.00     0.007 C 
ENDBRANCH  11  16
ENDBRANCH   8  11
ENDBRANCH   1   7
BRANCH   1  22
HETATM   22  C15 UNL     1      72.246  36.230   0.659  1.00  0.00     0.240 C 
HETATM   23  O2  UNL     1      72.874  36.509   1.701  1.00  0.00    -0.271 OA
HETATM   24  N3  UNL     1      72.309  34.920   0.147  1.00  0.00    -0.350 N 
ATOM     25  H3  UNL     1      71.797  34.688  -0.705  1.00  0.00     0.163 HD
BRANCH  24  26
HETATM   26  C16 UNL     1      73.102  33.880   0.822  1.00  0.00     0.143 C 
BRANCH  26  27
HETATM   27  C17 UNL     1      72.234  32.656   1.059  1.00  0.00     0.276 C 
BRANCH  27  28
HETATM   28  O3  UNL     1      71.773  32.551   2.355  1.00  0.00    -0.369 OA
ATOM     29  H3  UNL     1      72.114  31.795   2.818  1.00  0.00     0.212 HD
ENDBRANCH  27  28
BRANCH  27  30
HETATM   30  O4  UNL     1      71.234  32.522   0.106  1.00  0.00    -0.369 OA
ATOM     31  H4  UNL     1      70.414  32.221   0.480  1.00  0.00     0.212 HD
ENDBRANCH  27  30
ENDBRANCH  26  27
BRANCH  26  32
HETATM   32  C18 UNL     1      74.357  33.593   0.066  1.00  0.00     0.013 A 
HETATM   33  C19 UNL     1      75.279  32.481   0.450  1.00  0.00     0.007 A 
HETATM   34  C20 UNL     1      75.651  33.891   0.792  1.00  0.00     0.007 A 
ENDBRANCH  26  32
ENDBRANCH  24  26
ENDBRANCH   1  22
TORSDOF 13
ENDMDL
