MODEL 1
REMARK VINA RESULT: -8.835210445      0.000      0.000
REMARK  9 active torsions:
REMARK  status: ('A' for Active; 'I' for Inactive)
REMARK    1  A    between atoms: N1_2  and  C2_5 
REMARK    2  A    between atoms: C7_10  and  C8_11 
REMARK    3  A    between atoms: C8_11  and  C9_13 
REMARK    4  A    between atoms: C9_13  and  N2_14 
REMARK    5  A    between atoms: C9_13  and  C15_28 
REMARK       I    between atoms: N2_14  and  C10_16 
REMARK    6  A    between atoms: C10_16  and  C11_18 
REMARK    7  A    between atoms: C11_18  and  C12_19 
REMARK    8  A    between atoms: C12_19  and  C13_20 
REMARK    9  A    between atoms: C13_20  and  N3_21 
REMARK       I    between atoms: N3_21  and  C14_23 
ROOT
HETATM    1  C9  UNL     1      71.526  35.166   0.241  1.00  0.00     0.067 C 
ENDROOT
BRANCH   1   2
HETATM    2  C8  UNL     1      70.377  34.690   0.982  1.00  0.00     0.199 C 
HETATM    3  O1  UNL     1      69.735  33.751   0.423  1.00  0.00    -0.286 OA
BRANCH   2   4
HETATM    4  C7  UNL     1      69.774  35.068   2.273  1.00  0.00     0.002 C 
HETATM    5  C2  UNL     1      68.372  35.036   2.590  1.00  0.00     0.218 C 
HETATM    6  C3  UNL     1      67.754  36.407   2.867  1.00  0.00     0.037 C 
HETATM    7  C4  UNL     1      68.337  37.520   2.071  1.00  0.00     0.003 C 
HETATM    8  C5  UNL     1      69.839  37.611   2.220  1.00  0.00     0.004 C 
HETATM    9  C6  UNL     1      70.442  36.372   2.776  1.00  0.00     0.040 C 
BRANCH   5  10
HETATM   10  N1  UNL     1      67.469  34.292   1.741  1.00  0.00    -0.071 N 
HETATM   11  C1  UNL     1      66.232  34.136   2.548  1.00  0.00     0.267 C 
ATOM     12  H12 UNL     1      67.853  33.412   1.398  1.00  0.00     0.277 HD
ATOM     13  H11 UNL     1      67.316  34.716   0.826  1.00  0.00     0.277 HD
ENDBRANCH   5  10
ENDBRANCH   2   4
ENDBRANCH   1   2
BRANCH   1  14
HETATM   14  N2  UNL     1      72.691  34.284   0.300  1.00  0.00    -0.327 N 
HETATM   15  C10 UNL     1      73.771  34.354   1.163  1.00  0.00     0.222 C 
HETATM   16  O2  UNL     1      73.795  35.203   2.098  1.00  0.00    -0.273 OA
ATOM     17  H2  UNL     1      72.711  33.524  -0.381  1.00  0.00     0.168 HD
BRANCH  15  18
HETATM   18  C11 UNL     1      74.930  33.453   1.061  1.00  0.00     0.105 C 
BRANCH  18  19
HETATM   19  C12 UNL     1      74.609  32.195   0.353  1.00  0.00     0.029 C 
BRANCH  19  20
HETATM   20  C13 UNL     1      74.520  30.991   1.313  1.00  0.00     0.122 C 
BRANCH  20  21
HETATM   21  N3  UNL     1      73.112  30.583   1.371  1.00  0.00    -0.365 N 
HETATM   22  C14 UNL     1      72.592  29.431   0.746  1.00  0.00     0.181 C 
HETATM   23  N4  UNL     1      73.047  28.262   0.846  1.00  0.00    -0.374 N 
HETATM   24  N5  UNL     1      71.431  29.609  -0.115  1.00  0.00    -0.064 NA
ATOM     25  H42 UNL     1      73.861  28.138   1.449  1.00  0.00     0.158 HD
ATOM     26  H41 UNL     1      72.671  27.428   0.394  1.00  0.00     0.158 HD
ATOM     27  H3  UNL     1      72.466  31.171   1.897  1.00  0.00     0.162 HD
ENDBRANCH  20  21
ENDBRANCH  19  20
ENDBRANCH  18  19
ENDBRANCH  15  18
ENDBRANCH   1  14
BRANCH   1  28
HETATM   28  C15 UNL     1      71.584  36.080  -0.900  1.00  0.00     0.040 C 
HETATM   29  C16 UNL     1      70.210  36.680  -1.204  1.00  0.00     0.011 C 
HETATM   30  C17 UNL     1      70.361  37.728  -2.257  1.00  0.00     0.001 C 
HETATM   31  C18 UNL     1      71.339  38.826  -1.936  1.00  0.00     0.000 C 
HETATM   32  C19 UNL     1      72.644  38.256  -1.417  1.00  0.00     0.001 C 
HETATM   33  C20 UNL     1      72.333  37.325  -0.307  1.00  0.00     0.011 C 
ENDBRANCH   1  28
TORSDOF 9
ENDMDL
MODEL 2
REMARK VINA RESULT: -8.834990265      2.530      3.686
REMARK  9 active torsions:
REMARK  status: ('A' for Active; 'I' for Inactive)
REMARK    1  A    between atoms: N1_2  and  C2_5 
REMARK    2  A    between atoms: C7_10  and  C8_11 
REMARK    3  A    between atoms: C8_11  and  C9_13 
REMARK    4  A    between atoms: C9_13  and  N2_14 
REMARK    5  A    between atoms: C9_13  and  C15_28 
REMARK       I    between atoms: N2_14  and  C10_16 
REMARK    6  A    between atoms: C10_16  and  C11_18 
REMARK    7  A    between atoms: C11_18  and  C12_19 
REMARK    8  A    between atoms: C12_19  and  C13_20 
REMARK    9  A    between atoms: C13_20  and  N3_21 
REMARK       I    between atoms: N3_21  and  C14_23 
ROOT
HETATM    1  C9  UNL     1      71.417  35.238   0.143  1.00  0.00     0.067 C 
ENDROOT
BRANCH   1   2
HETATM    2  C8  UNL     1      70.277  34.750   0.888  1.00  0.00     0.199 C 
HETATM    3  O1  UNL     1      69.629  33.821   0.320  1.00  0.00    -0.286 OA
BRANCH   2   4
HETATM    4  C7  UNL     1      69.688  35.105   2.192  1.00  0.00     0.002 C 
HETATM    5  C2  UNL     1      68.284  35.139   2.501  1.00  0.00     0.218 C 
HETATM    6  C3  UNL     1      67.743  36.530   2.835  1.00  0.00     0.037 C 
HETATM    7  C4  UNL     1      68.393  37.641   2.091  1.00  0.00     0.003 C 
HETATM    8  C5  UNL     1      69.897  37.640   2.249  1.00  0.00     0.004 C 
HETATM    9  C6  UNL     1      70.425  36.346   2.754  1.00  0.00     0.040 C 
BRANCH   5  10
HETATM   10  N1  UNL     1      67.346  34.485   1.617  1.00  0.00    -0.071 N 
HETATM   11  C1  UNL     1      66.393  33.791   2.521  1.00  0.00     0.267 C 
ATOM     12  H12 UNL     1      67.782  33.874   0.928  1.00  0.00     0.277 HD
ATOM     13  H11 UNL     1      66.899  35.113   0.948  1.00  0.00     0.277 HD
ENDBRANCH   5  10
ENDBRANCH   2   4
ENDBRANCH   1   2
BRANCH   1  14
HETATM   14  N2  UNL     1      72.590  34.365   0.189  1.00  0.00    -0.327 N 
HETATM   15  C10 UNL     1      73.682  34.448   1.037  1.00  0.00     0.222 C 
HETATM   16  O2  UNL     1      73.713  35.302   1.966  1.00  0.00    -0.273 OA
ATOM     17  H2  UNL     1      72.605  33.602  -0.486  1.00  0.00     0.168 HD
BRANCH  15  18
HETATM   18  C11 UNL     1      74.846  33.554   0.922  1.00  0.00     0.105 C 
BRANCH  18  19
HETATM   19  C12 UNL     1      76.126  34.261   1.143  1.00  0.00     0.029 C 
BRANCH  19  20
HETATM   20  C13 UNL     1      76.439  34.449   2.641  1.00  0.00     0.122 C 
BRANCH  20  21
HETATM   21  N3  UNL     1      77.899  34.476   2.781  1.00  0.00    -0.365 N 
HETATM   22  C14 UNL     1      78.643  35.626   3.117  1.00  0.00     0.181 C 
HETATM   23  N4  UNL     1      78.427  36.392   4.091  1.00  0.00    -0.374 N 
HETATM   24  N5  UNL     1      79.756  35.975   2.245  1.00  0.00    -0.064 NA
ATOM     25  H42 UNL     1      77.648  36.148   4.701  1.00  0.00     0.158 HD
ATOM     26  H41 UNL     1      78.966  37.224   4.334  1.00  0.00     0.158 HD
ATOM     27  H3  UNL     1      78.410  33.607   2.625  1.00  0.00     0.162 HD
ENDBRANCH  20  21
ENDBRANCH  19  20
ENDBRANCH  18  19
ENDBRANCH  15  18
ENDBRANCH   1  14
BRANCH   1  28
HETATM   28  C15 UNL     1      71.462  36.160  -0.993  1.00  0.00     0.040 C 
HETATM   29  C16 UNL     1      70.097  36.805  -1.241  1.00  0.00     0.011 C 
HETATM   30  C17 UNL     1      70.241  37.855  -2.292  1.00  0.00     0.001 C 
HETATM   31  C18 UNL     1      71.265  38.920  -2.000  1.00  0.00     0.000 C 
HETATM   32  C19 UNL     1      72.570  38.306  -1.534  1.00  0.00     0.001 C 
HETATM   33  C20 UNL     1      72.271  37.376  -0.420  1.00  0.00     0.011 C 
ENDBRANCH   1  28
TORSDOF 9
ENDMDL
MODEL 3
REMARK VINA RESULT: -8.494611954      2.356      3.573
REMARK  9 active torsions:
REMARK  status: ('A' for Active; 'I' for Inactive)
REMARK    1  A    between atoms: N1_2  and  C2_5 
REMARK    2  A    between atoms: C7_10  and  C8_11 
REMARK    3  A    between atoms: C8_11  and  C9_13 
REMARK    4  A    between atoms: C9_13  and  N2_14 
REMARK    5  A    between atoms: C9_13  and  C15_28 
REMARK       I    between atoms: N2_14  and  C10_16 
REMARK    6  A    between atoms: C10_16  and  C11_18 
REMARK    7  A    between atoms: C11_18  and  C12_19 
REMARK    8  A    between atoms: C12_19  and  C13_20 
REMARK    9  A    between atoms: C13_20  and  N3_21 
REMARK       I    between atoms: N3_21  and  C14_23 
ROOT
HETATM    1  C9  UNL     1      71.305  35.726   0.247  1.00  0.00     0.067 C 
ENDROOT
BRANCH   1   2
HETATM    2  C8  UNL     1      70.247  34.988   0.901  1.00  0.00     0.199 C 
HETATM    3  O1  UNL     1      69.789  34.011   0.237  1.00  0.00    -0.286 OA
BRANCH   2   4
HETATM    4  C7  UNL     1      69.565  35.128   2.202  1.00  0.00     0.002 C 
HETATM    5  C2  UNL     1      68.146  35.060   2.421  1.00  0.00     0.218 C 
HETATM    6  C3  UNL     1      67.518  36.364   2.913  1.00  0.00     0.037 C 
HETATM    7  C4  UNL     1      68.154  37.597   2.376  1.00  0.00     0.003 C 
HETATM    8  C5  UNL     1      69.644  37.635   2.630  1.00  0.00     0.004 C 
HETATM    9  C6  UNL     1      70.206  36.305   2.979  1.00  0.00     0.040 C 
BRANCH   5  10
HETATM   10  N1  UNL     1      67.294  34.501   1.396  1.00  0.00    -0.071 N 
HETATM   11  C1  UNL     1      66.026  34.170   2.094  1.00  0.00     0.267 C 
ATOM     12  H12 UNL     1      67.709  33.716   0.895  1.00  0.00     0.277 HD
ATOM     13  H11 UNL     1      67.174  35.106   0.582  1.00  0.00     0.277 HD
ENDBRANCH   5  10
ENDBRANCH   2   4
ENDBRANCH   1   2
BRANCH   1  14
HETATM   14  N2  UNL     1      72.441  34.907  -0.176  1.00  0.00    -0.327 N 
HETATM   15  C10 UNL     1      73.342  34.221   0.621  1.00  0.00     0.222 C 
HETATM   16  O2  UNL     1      73.190  34.177   1.874  1.00  0.00    -0.273 OA
ATOM     17  H2  UNL     1      72.588  34.833  -1.183  1.00  0.00     0.168 HD
BRANCH  15  18
HETATM   18  C11 UNL     1      74.501  33.501   0.071  1.00  0.00     0.105 C 
BRANCH  18  19
HETATM   19  C12 UNL     1      75.774  34.220   0.295  1.00  0.00     0.029 C 
BRANCH  19  20
HETATM   20  C13 UNL     1      76.384  33.911   1.678  1.00  0.00     0.122 C 
BRANCH  20  21
HETATM   21  N3  UNL     1      77.649  34.649   1.770  1.00  0.00    -0.365 N 
HETATM   22  C14 UNL     1      78.147  35.225   2.956  1.00  0.00     0.181 C 
HETATM   23  N4  UNL     1      78.278  34.647   4.065  1.00  0.00    -0.374 N 
HETATM   24  N5  UNL     1      78.528  36.630   2.902  1.00  0.00    -0.064 NA
ATOM     25  H42 UNL     1      78.011  33.663   4.103  1.00  0.00     0.158 HD
ATOM     26  H41 UNL     1      78.639  35.064   4.924  1.00  0.00     0.158 HD
ATOM     27  H3  UNL     1      78.204  34.752   0.920  1.00  0.00     0.162 HD
ENDBRANCH  20  21
ENDBRANCH  19  20
ENDBRANCH  18  19
ENDBRANCH  15  18
ENDBRANCH   1  14
BRANCH   1  28
HETATM   28  C15 UNL     1      71.246  36.998  -0.474  1.00  0.00     0.040 C 
HETATM   29  C16 UNL     1      72.631  37.428  -0.959  1.00  0.00     0.011 C 
HETATM   30  C17 UNL     1      72.487  38.633  -1.829  1.00  0.00     0.001 C 
HETATM   31  C18 UNL     1      71.560  38.471  -3.004  1.00  0.00     0.000 C 
HETATM   32  C19 UNL     1      70.251  37.835  -2.580  1.00  0.00     0.001 C 
HETATM   33  C20 UNL     1      70.561  36.596  -1.827  1.00  0.00     0.011 C 
ENDBRANCH   1  28
TORSDOF 9
ENDMDL
MODEL 4
REMARK VINA RESULT: -8.435838701      2.480      3.527
REMARK  9 active torsions:
REMARK  status: ('A' for Active; 'I' for Inactive)
REMARK    1  A    between atoms: N1_2  and  C2_5 
REMARK    2  A    between atoms: C7_10  and  C8_11 
REMARK    3  A    between atoms: C8_11  and  C9_13 
REMARK    4  A    between atoms: C9_13  and  N2_14 
REMARK    5  A    between atoms: C9_13  and  C15_28 
REMARK       I    between atoms: N2_14  and  C10_16 
REMARK    6  A    between atoms: C10_16  and  C11_18 
REMARK    7  A    between atoms: C11_18  and  C12_19 
REMARK    8  A    between atoms: C12_19  and  C13_20 
REMARK    9  A    between atoms: C13_20  and  N3_21 
REMARK       I    between atoms: N3_21  and  C14_23 
ROOT
HETATM    1  C9  UNL     1      71.294  36.202  -0.412  1.00  0.00     0.067 C 
ENDROOT
BRANCH   1   2
HETATM    2  C8  UNL     1      70.088  36.143   0.384  1.00  0.00     0.199 C 
HETATM    3  O1  UNL     1      69.067  36.663  -0.158  1.00  0.00    -0.286 OA
BRANCH   2   4
HETATM    4  C7  UNL     1      69.777  35.600   1.719  1.00  0.00     0.002 C 
HETATM    5  C2  UNL     1      68.514  35.053   2.133  1.00  0.00     0.218 C 
HETATM    6  C3  UNL     1      67.808  35.851   3.229  1.00  0.00     0.037 C 
HETATM    7  C4  UNL     1      68.023  37.321   3.159  1.00  0.00     0.003 C 
HETATM    8  C5  UNL     1      69.489  37.690   3.141  1.00  0.00     0.004 C 
HETATM    9  C6  UNL     1      70.370  36.545   2.794  1.00  0.00     0.040 C 
BRANCH   5  10
HETATM   10  N1  UNL     1      67.536  34.686   1.134  1.00  0.00    -0.071 N 
HETATM   11  C1  UNL     1      66.380  34.165   1.907  1.00  0.00     0.267 C 
ATOM     12  H12 UNL     1      67.888  34.040   0.428  1.00  0.00     0.277 HD
ATOM     13  H11 UNL     1      67.298  35.442   0.491  1.00  0.00     0.277 HD
ENDBRANCH   5  10
ENDBRANCH   2   4
ENDBRANCH   1   2
BRANCH   1  14
HETATM   14  N2  UNL     1      72.151  35.021  -0.302  1.00  0.00    -0.327 N 
HETATM   15  C10 UNL     1      73.258  34.843   0.509  1.00  0.00     0.222 C 
HETATM   16  O2  UNL     1      73.592  35.726   1.347  1.00  0.00    -0.273 OA
ATOM     17  H2  UNL     1      71.901  34.231  -0.898  1.00  0.00     0.168 HD
BRANCH  15  18
HETATM   18  C11 UNL     1      74.091  33.630   0.461  1.00  0.00     0.105 C 
BRANCH  18  19
HETATM   19  C12 UNL     1      75.537  33.935   0.501  1.00  0.00     0.029 C 
BRANCH  19  20
HETATM   20  C13 UNL     1      76.082  34.001   1.943  1.00  0.00     0.122 C 
BRANCH  20  21
HETATM   21  N3  UNL     1      77.469  34.472   1.863  1.00  0.00    -0.365 N 
HETATM   22  C14 UNL     1      78.167  35.069   2.933  1.00  0.00     0.181 C 
HETATM   23  N4  UNL     1      78.276  34.608   4.098  1.00  0.00    -0.374 N 
HETATM   24  N5  UNL     1      78.807  36.352   2.675  1.00  0.00    -0.064 NA
ATOM     25  H42 UNL     1      77.828  33.710   4.279  1.00  0.00     0.158 HD
ATOM     26  H41 UNL     1      78.782  35.040   4.872  1.00  0.00     0.158 HD
ATOM     27  H3  UNL     1      77.960  34.361   0.977  1.00  0.00     0.162 HD
ENDBRANCH  20  21
ENDBRANCH  19  20
ENDBRANCH  18  19
ENDBRANCH  15  18
ENDBRANCH   1  14
BRANCH   1  28
HETATM   28  C15 UNL     1      71.574  36.973  -1.625  1.00  0.00     0.040 C 
HETATM   29  C16 UNL     1      70.288  37.290  -2.391  1.00  0.00     0.011 C 
HETATM   30  C17 UNL     1      70.611  38.217  -3.516  1.00  0.00     0.001 C 
HETATM   31  C18 UNL     1      71.297  39.496  -3.117  1.00  0.00     0.000 C 
HETATM   32  C19 UNL     1      72.449  39.222  -2.171  1.00  0.00     0.001 C 
HETATM   33  C20 UNL     1      71.943  38.388  -1.056  1.00  0.00     0.011 C 
ENDBRANCH   1  28
TORSDOF 9
ENDMDL
MODEL 5
REMARK VINA RESULT: -8.403928567      1.901      4.856
REMARK  9 active torsions:
REMARK  status: ('A' for Active; 'I' for Inactive)
REMARK    1  A    between atoms: N1_2  and  C2_5 
REMARK    2  A    between atoms: C7_10  and  C8_11 
REMARK    3  A    between atoms: C8_11  and  C9_13 
REMARK    4  A    between atoms: C9_13  and  N2_14 
REMARK    5  A    between atoms: C9_13  and  C15_28 
REMARK       I    between atoms: N2_14  and  C10_16 
REMARK    6  A    between atoms: C10_16  and  C11_18 
REMARK    7  A    between atoms: C11_18  and  C12_19 
REMARK    8  A    between atoms: C12_19  and  C13_20 
REMARK    9  A    between atoms: C13_20  and  N3_21 
REMARK       I    between atoms: N3_21  and  C14_23 
ROOT
HETATM    1  C9  UNL     1      70.732  34.437   1.640  1.00  0.00     0.067 C 
ENDROOT
BRANCH   1   2
HETATM    2  C8  UNL     1      71.514  35.454   0.971  1.00  0.00     0.199 C 
HETATM    3  O1  UNL     1      72.629  35.711   1.514  1.00  0.00    -0.286 OA
BRANCH   2   4
HETATM    4  C7  UNL     1      71.291  36.278  -0.231  1.00  0.00     0.002 C 
HETATM    5  C2  UNL     1      72.315  36.834  -1.073  1.00  0.00     0.218 C 
HETATM    6  C3  UNL     1      72.372  38.362  -1.075  1.00  0.00     0.037 C 
HETATM    7  C4  UNL     1      72.016  38.996   0.223  1.00  0.00     0.003 C 
HETATM    8  C5  UNL     1      70.664  38.548   0.732  1.00  0.00     0.004 C 
HETATM    9  C6  UNL     1      70.176  37.311   0.069  1.00  0.00     0.040 C 
BRANCH   5  10
HETATM   10  N1  UNL     1      73.666  36.328  -0.979  1.00  0.00    -0.071 N 
HETATM   11  C1  UNL     1      74.490  37.299  -1.742  1.00  0.00     0.267 C 
ATOM     12  H12 UNL     1      73.769  35.362  -1.290  1.00  0.00     0.277 HD
ATOM     13  H11 UNL     1      73.985  36.176  -0.022  1.00  0.00     0.277 HD
ENDBRANCH   5  10
ENDBRANCH   2   4
ENDBRANCH   1   2
BRANCH   1  14
HETATM   14  N2  UNL     1      71.486  33.237   2.005  1.00  0.00    -0.327 N 
HETATM   15  C10 UNL     1      71.372  31.964   1.474  1.00  0.00     0.222 C 
HETATM   16  O2  UNL     1      70.605  31.740   0.495  1.00  0.00    -0.273 OA
ATOM     17  H2  UNL     1      72.180  33.353   2.743  1.00  0.00     0.168 HD
BRANCH  15  18
HETATM   18  C11 UNL     1      72.132  30.815   1.993  1.00  0.00     0.105 C 
BRANCH  18  19
HETATM   19  C12 UNL     1      73.035  30.229   0.980  1.00  0.00     0.029 C 
BRANCH  19  20
HETATM   20  C13 UNL     1      74.522  30.399   1.355  1.00  0.00     0.122 C 
BRANCH  20  21
HETATM   21  N3  UNL     1      75.088  31.403   0.447  1.00  0.00    -0.365 N 
HETATM   22  C14 UNL     1      75.037  32.795   0.670  1.00  0.00     0.181 C 
HETATM   23  N4  UNL     1      75.384  33.392   1.721  1.00  0.00    -0.374 N 
HETATM   24  N5  UNL     1      74.512  33.621  -0.408  1.00  0.00    -0.064 NA
ATOM     25  H42 UNL     1      75.750  32.812   2.477  1.00  0.00     0.158 HD
ATOM     26  H41 UNL     1      75.347  34.398   1.883  1.00  0.00     0.158 HD
ATOM     27  H3  UNL     1      75.548  31.074  -0.402  1.00  0.00     0.162 HD
ENDBRANCH  20  21
ENDBRANCH  19  20
ENDBRANCH  18  19
ENDBRANCH  15  18
ENDBRANCH   1  14
BRANCH   1  28
HETATM   28  C15 UNL     1      69.500  34.571   2.419  1.00  0.00     0.040 C 
HETATM   29  C16 UNL     1      69.393  35.958   3.056  1.00  0.00     0.011 C 
HETATM   30  C17 UNL     1      68.048  36.097   3.689  1.00  0.00     0.001 C 
HETATM   31  C18 UNL     1      66.878  35.864   2.771  1.00  0.00     0.000 C 
HETATM   32  C19 UNL     1      67.069  34.598   1.960  1.00  0.00     0.001 C 
HETATM   33  C20 UNL     1      68.398  34.663   1.307  1.00  0.00     0.011 C 
ENDBRANCH   1  28
TORSDOF 9
ENDMDL
