MODEL 1
REMARK VINA RESULT: -8.650957844      0.000      0.000
REMARK  12 active torsions:
REMARK  status: ('A' for Active; 'I' for Inactive)
REMARK    1  A    between atoms: C1_4  and  O1_5 
REMARK    2  A    between atoms: C1_4  and  C2_7 
REMARK    3  A    between atoms: C2_7  and  C3_8 
REMARK    4  A    between atoms: C3_8  and  N2_9 
REMARK    5  A    between atoms: C3_8  and  C14_26 
REMARK    6  A    between atoms: N2_9  and  C4_11 
REMARK    7  A    between atoms: C4_11  and  C5_12 
REMARK    8  A    between atoms: C4_11  and  C6_14 
REMARK    9  A    between atoms: C6_14  and  N3_15 
REMARK   10  A    between atoms: C6_14  and  C7_19 
REMARK   11  A    between atoms: C7_19  and  C8_20 
REMARK       I    between atoms: C14_26  and  N4_28 
REMARK   12  A    between atoms: N4_28  and  C15_30 
ROOT
HETATM    1  C3  UNL     1      69.056  35.067   1.114  1.00  0.00     0.177 C 
ENDROOT
BRANCH   1   2
HETATM    2  C2  UNL     1      70.288  34.523   1.727  1.00  0.00     0.117 C 
BRANCH   2   3
HETATM    3  C1  UNL     1      70.865  33.384   0.940  1.00  0.00     0.111 C 
HETATM    4  N1  UNL     1      71.905  33.580   0.235  1.00  0.00    -0.384 N 
ATOM      5  H12 UNL     1      72.298  32.806  -0.300  1.00  0.00     0.157 HD
ATOM      6  H11 UNL     1      72.355  34.495   0.196  1.00  0.00     0.157 HD
BRANCH   3   7
HETATM    7  O1  UNL     1      70.261  32.156   0.992  1.00  0.00    -0.350 OA
ATOM      8  H1  UNL     1      69.353  32.041   0.738  1.00  0.00     0.219 HD
ENDBRANCH   3   7
ENDBRANCH   2   3
ENDBRANCH   1   2
BRANCH   1   9
HETATM    9  N2  UNL     1      68.973  36.445   0.804  1.00  0.00    -0.397 N 
ATOM     10  H2  UNL     1      68.258  36.783   0.160  1.00  0.00     0.154 HD
BRANCH   9  11
HETATM   11  C4  UNL     1      69.869  37.332   1.378  1.00  0.00     0.169 C 
BRANCH  11  12
HETATM   12  C5  UNL     1      69.444  38.153   2.497  1.00  0.00     0.258 C 
HETATM   13  O2  UNL     1      68.379  38.738   2.629  1.00  0.00    -0.305 OA
ENDBRANCH  11  12
BRANCH  11  14
HETATM   14  C6  UNL     1      70.633  38.160   0.316  1.00  0.00     0.212 C 
BRANCH  14  15
HETATM   15  N3  UNL     1      70.926  39.468   0.829  1.00  0.00    -0.073 N 
ATOM     16  H33 UNL     1      70.079  39.978   1.080  1.00  0.00     0.274 HD
ATOM     17  H32 UNL     1      71.356  39.427   1.754  1.00  0.00     0.274 HD
ATOM     18  H31 UNL     1      71.501  39.984   0.163  1.00  0.00     0.274 HD
ENDBRANCH  14  15
BRANCH  14  19
HETATM   19  C7  UNL     1      71.810  37.352  -0.102  1.00  0.00     0.040 C 
BRANCH  19  20
HETATM   20  C8  UNL     1      72.022  37.239  -1.587  1.00  0.00    -0.013 C 
HETATM   21  C9  UNL     1      70.771  37.073  -2.382  1.00  0.00     0.005 C 
HETATM   22  C10 UNL     1      70.918  37.469  -3.839  1.00  0.00     0.000 C 
HETATM   23  C11 UNL     1      71.378  38.869  -4.047  1.00  0.00     0.000 C 
HETATM   24  C12 UNL     1      71.936  39.459  -2.758  1.00  0.00     0.000 C 
HETATM   25  C13 UNL     1      72.801  38.429  -2.051  1.00  0.00     0.005 C 
ENDBRANCH  19  20
ENDBRANCH  14  19
ENDBRANCH  11  14
ENDBRANCH   9  11
ENDBRANCH   1   9
BRANCH   1  26
HETATM   26  C14 UNL     1      67.842  34.699   1.974  1.00  0.00     0.240 C 
HETATM   27  O3  UNL     1      67.556  33.478   1.975  1.00  0.00    -0.271 OA
HETATM   28  N4  UNL     1      67.133  35.657   2.692  1.00  0.00    -0.355 N 
ATOM     29  H4  UNL     1      67.425  36.634   2.651  1.00  0.00     0.162 HD
BRANCH  28  30
HETATM   30  C15 UNL     1      65.985  35.289   3.497  1.00  0.00     0.084 C 
HETATM   31  C16 UNL     1      66.399  34.765   4.855  1.00  0.00     0.025 C 
HETATM   32  C17 UNL     1      65.206  34.163   5.523  1.00  0.00     0.002 C 
HETATM   33  C18 UNL     1      63.998  35.025   5.548  1.00  0.00     0.000 C 
HETATM   34  C19 UNL     1      63.815  35.919   4.382  1.00  0.00     0.002 C 
HETATM   35  C20 UNL     1      65.049  36.447   3.740  1.00  0.00     0.025 C 
ENDBRANCH  28  30
ENDBRANCH   1  26
TORSDOF 12
ENDMDL
MODEL 2
REMARK VINA RESULT: -8.526207864      1.229      3.026
REMARK  12 active torsions:
REMARK  status: ('A' for Active; 'I' for Inactive)
REMARK    1  A    between atoms: C1_4  and  O1_5 
REMARK    2  A    between atoms: C1_4  and  C2_7 
REMARK    3  A    between atoms: C2_7  and  C3_8 
REMARK    4  A    between atoms: C3_8  and  N2_9 
REMARK    5  A    between atoms: C3_8  and  C14_26 
REMARK    6  A    between atoms: N2_9  and  C4_11 
REMARK    7  A    between atoms: C4_11  and  C5_12 
REMARK    8  A    between atoms: C4_11  and  C6_14 
REMARK    9  A    between atoms: C6_14  and  N3_15 
REMARK   10  A    between atoms: C6_14  and  C7_19 
REMARK   11  A    between atoms: C7_19  and  C8_20 
REMARK       I    between atoms: C14_26  and  N4_28 
REMARK   12  A    between atoms: N4_28  and  C15_30 
ROOT
HETATM    1  C3  UNL     1      69.501  35.395   2.320  1.00  0.00     0.177 C 
ENDROOT
BRANCH   1   2
HETATM    2  C2  UNL     1      69.707  36.635   3.101  1.00  0.00     0.117 C 
BRANCH   2   3
HETATM    3  C1  UNL     1      69.276  37.861   2.351  1.00  0.00     0.111 C 
HETATM    4  N1  UNL     1      70.147  38.730   2.029  1.00  0.00    -0.384 N 
ATOM      5  H12 UNL     1      69.855  39.563   1.519  1.00  0.00     0.157 HD
ATOM      6  H11 UNL     1      71.132  38.609   2.268  1.00  0.00     0.157 HD
BRANCH   3   7
HETATM    7  O1  UNL     1      67.955  38.024   2.030  1.00  0.00    -0.350 OA
ATOM      8  H1  UNL     1      67.361  37.283   1.996  1.00  0.00     0.219 HD
ENDBRANCH   3   7
ENDBRANCH   2   3
ENDBRANCH   1   2
BRANCH   1   9
HETATM    9  N2  UNL     1      69.399  35.458   0.911  1.00  0.00    -0.397 N 
ATOM     10  H2  UNL     1      68.570  35.861   0.475  1.00  0.00     0.154 HD
BRANCH   9  11
HETATM   11  C4  UNL     1      70.432  34.971   0.126  1.00  0.00     0.169 C 
BRANCH  11  12
HETATM   12  C5  UNL     1      71.038  33.694   0.454  1.00  0.00     0.258 C 
HETATM   13  O2  UNL     1      70.502  32.596   0.460  1.00  0.00    -0.305 OA
ENDBRANCH  11  12
BRANCH  11  14
HETATM   14  C6  UNL     1      71.498  36.053  -0.173  1.00  0.00     0.212 C 
BRANCH  14  15
HETATM   15  N3  UNL     1      72.675  35.445  -0.725  1.00  0.00    -0.073 N 
ATOM     16  H33 UNL     1      73.121  34.809  -0.064  1.00  0.00     0.274 HD
ATOM     17  H32 UNL     1      72.448  34.769  -1.454  1.00  0.00     0.274 HD
ATOM     18  H31 UNL     1      73.317  36.165  -1.058  1.00  0.00     0.274 HD
ENDBRANCH  14  15
BRANCH  14  19
HETATM   19  C7  UNL     1      70.845  37.086  -1.022  1.00  0.00     0.040 C 
BRANCH  19  20
HETATM   20  C8  UNL     1      71.565  37.423  -2.299  1.00  0.00    -0.013 C 
HETATM   21  C9  UNL     1      70.761  37.219  -3.538  1.00  0.00     0.005 C 
HETATM   22  C10 UNL     1      71.262  38.013  -4.728  1.00  0.00     0.000 C 
HETATM   23  C11 UNL     1      71.329  39.483  -4.496  1.00  0.00     0.000 C 
HETATM   24  C12 UNL     1      71.223  39.808  -3.011  1.00  0.00     0.000 C 
HETATM   25  C13 UNL     1      72.065  38.831  -2.208  1.00  0.00     0.005 C 
ENDBRANCH  19  20
ENDBRANCH  14  19
ENDBRANCH  11  14
ENDBRANCH   9  11
ENDBRANCH   1   9
BRANCH   1  26
HETATM   26  C14 UNL     1      68.274  34.646   2.853  1.00  0.00     0.240 C 
HETATM   27  O3  UNL     1      67.783  33.814   2.053  1.00  0.00    -0.271 OA
HETATM   28  N4  UNL     1      67.765  34.883   4.127  1.00  0.00    -0.355 N 
ATOM     29  H4  UNL     1      68.219  35.570   4.729  1.00  0.00     0.162 HD
BRANCH  28  30
HETATM   30  C15 UNL     1      66.601  34.167   4.611  1.00  0.00     0.084 C 
HETATM   31  C16 UNL     1      66.871  33.492   5.938  1.00  0.00     0.025 C 
HETATM   32  C17 UNL     1      65.739  32.567   6.246  1.00  0.00     0.002 C 
HETATM   33  C18 UNL     1      64.387  33.169   6.136  1.00  0.00     0.000 C 
HETATM   34  C19 UNL     1      64.224  34.211   5.095  1.00  0.00     0.002 C 
HETATM   35  C20 UNL     1      65.406  35.066   4.810  1.00  0.00     0.025 C 
ENDBRANCH  28  30
ENDBRANCH   1  26
TORSDOF 12
ENDMDL
MODEL 3
REMARK VINA RESULT: -8.471972244      2.815      5.095
REMARK  12 active torsions:
REMARK  status: ('A' for Active; 'I' for Inactive)
REMARK    1  A    between atoms: C1_4  and  O1_5 
REMARK    2  A    between atoms: C1_4  and  C2_7 
REMARK    3  A    between atoms: C2_7  and  C3_8 
REMARK    4  A    between atoms: C3_8  and  N2_9 
REMARK    5  A    between atoms: C3_8  and  C14_26 
REMARK    6  A    between atoms: N2_9  and  C4_11 
REMARK    7  A    between atoms: C4_11  and  C5_12 
REMARK    8  A    between atoms: C4_11  and  C6_14 
REMARK    9  A    between atoms: C6_14  and  N3_15 
REMARK   10  A    between atoms: C6_14  and  C7_19 
REMARK   11  A    between atoms: C7_19  and  C8_20 
REMARK       I    between atoms: C14_26  and  N4_28 
REMARK   12  A    between atoms: N4_28  and  C15_30 
ROOT
HETATM    1  C3  UNL     1      71.494  34.612   1.224  1.00  0.00     0.177 C 
ENDROOT
BRANCH   1   2
HETATM    2  C2  UNL     1      72.970  34.679   1.298  1.00  0.00     0.117 C 
BRANCH   2   3
HETATM    3  C1  UNL     1      73.611  34.721  -0.057  1.00  0.00     0.111 C 
HETATM    4  N1  UNL     1      73.835  35.847  -0.604  1.00  0.00    -0.384 N 
ATOM      5  H12 UNL     1      74.270  35.876  -1.525  1.00  0.00     0.157 HD
ATOM      6  H11 UNL     1      73.589  36.721  -0.139  1.00  0.00     0.157 HD
BRANCH   3   7
HETATM    7  O1  UNL     1      73.941  33.548  -0.682  1.00  0.00    -0.350 OA
ATOM      8  H1  UNL     1      74.837  33.230  -0.693  1.00  0.00     0.219 HD
ENDBRANCH   3   7
ENDBRANCH   2   3
ENDBRANCH   1   2
BRANCH   1   9
HETATM    9  N2  UNL     1      70.709  35.344   2.145  1.00  0.00    -0.397 N 
ATOM     10  H2  UNL     1      70.510  34.959   3.068  1.00  0.00     0.154 HD
BRANCH   9  11
HETATM   11  C4  UNL     1      70.211  36.587   1.787  1.00  0.00     0.169 C 
BRANCH  11  12
HETATM   12  C5  UNL     1      69.161  37.193   2.584  1.00  0.00     0.258 C 
HETATM   13  O2  UNL     1      68.638  38.285   2.419  1.00  0.00    -0.305 OA
ENDBRANCH  11  12
BRANCH  11  14
HETATM   14  C6  UNL     1      69.909  36.680   0.271  1.00  0.00     0.212 C 
BRANCH  14  15
HETATM   15  N3  UNL     1      68.492  36.750   0.056  1.00  0.00    -0.073 N 
ATOM     16  H33 UNL     1      68.007  37.181   0.843  1.00  0.00     0.274 HD
ATOM     17  H32 UNL     1      68.249  37.433  -0.662  1.00  0.00     0.274 HD
ATOM     18  H31 UNL     1      68.124  35.823  -0.159  1.00  0.00     0.274 HD
ENDBRANCH  14  15
BRANCH  14  19
HETATM   19  C7  UNL     1      70.701  37.821  -0.262  1.00  0.00     0.040 C 
BRANCH  19  20
HETATM   20  C8  UNL     1      71.357  37.587  -1.595  1.00  0.00    -0.013 C 
HETATM   21  C9  UNL     1      70.420  37.196  -2.687  1.00  0.00     0.005 C 
HETATM   22  C10 UNL     1      70.963  37.460  -4.079  1.00  0.00     0.000 C 
HETATM   23  C11 UNL     1      71.343  38.878  -4.326  1.00  0.00     0.000 C 
HETATM   24  C12 UNL     1      71.438  39.655  -3.019  1.00  0.00     0.000 C 
HETATM   25  C13 UNL     1      72.135  38.811  -1.966  1.00  0.00     0.005 C 
ENDBRANCH  19  20
ENDBRANCH  14  19
ENDBRANCH  11  14
ENDBRANCH   9  11
ENDBRANCH   1   9
BRANCH   1  26
HETATM   26  C14 UNL     1      71.038  33.149   1.267  1.00  0.00     0.240 C 
HETATM   27  O3  UNL     1      69.796  32.992   1.344  1.00  0.00    -0.271 OA
HETATM   28  N4  UNL     1      71.947  32.096   1.219  1.00  0.00    -0.355 N 
ATOM     29  H4  UNL     1      72.945  32.296   1.150  1.00  0.00     0.162 HD
BRANCH  28  30
HETATM   30  C15 UNL     1      71.496  30.718   1.266  1.00  0.00     0.084 C 
HETATM   31  C16 UNL     1      71.229  30.170  -0.120  1.00  0.00     0.025 C 
HETATM   32  C17 UNL     1      70.524  28.860   0.010  1.00  0.00     0.002 C 
HETATM   33  C18 UNL     1      71.165  27.890   0.933  1.00  0.00     0.000 C 
HETATM   34  C19 UNL     1      71.859  28.471   2.105  1.00  0.00     0.002 C 
HETATM   35  C20 UNL     1      72.501  29.799   1.915  1.00  0.00     0.025 C 
ENDBRANCH  28  30
ENDBRANCH   1  26
TORSDOF 12
ENDMDL
MODEL 4
REMARK VINA RESULT: -8.465272402      1.463      3.466
REMARK  12 active torsions:
REMARK  status: ('A' for Active; 'I' for Inactive)
REMARK    1  A    between atoms: C1_4  and  O1_5 
REMARK    2  A    between atoms: C1_4  and  C2_7 
REMARK    3  A    between atoms: C2_7  and  C3_8 
REMARK    4  A    between atoms: C3_8  and  N2_9 
REMARK    5  A    between atoms: C3_8  and  C14_26 
REMARK    6  A    between atoms: N2_9  and  C4_11 
REMARK    7  A    between atoms: C4_11  and  C5_12 
REMARK    8  A    between atoms: C4_11  and  C6_14 
REMARK    9  A    between atoms: C6_14  and  N3_15 
REMARK   10  A    between atoms: C6_14  and  C7_19 
REMARK   11  A    between atoms: C7_19  and  C8_20 
REMARK       I    between atoms: C14_26  and  N4_28 
REMARK   12  A    between atoms: N4_28  and  C15_30 
ROOT
HETATM    1  C3  UNL     1      68.988  35.892   2.980  1.00  0.00     0.177 C 
ENDROOT
BRANCH   1   2
HETATM    2  C2  UNL     1      68.553  36.918   2.006  1.00  0.00     0.117 C 
BRANCH   2   3
HETATM    3  C1  UNL     1      69.135  38.269   2.298  1.00  0.00     0.111 C 
HETATM    4  N1  UNL     1      70.399  38.406   2.337  1.00  0.00    -0.384 N 
ATOM      5  H12 UNL     1      70.795  39.324   2.536  1.00  0.00     0.157 HD
ATOM      6  H11 UNL     1      71.024  37.616   2.171  1.00  0.00     0.157 HD
BRANCH   3   7
HETATM    7  O1  UNL     1      68.298  39.329   2.520  1.00  0.00    -0.350 OA
ATOM      8  H1  UNL     1      67.367  39.269   2.339  1.00  0.00     0.219 HD
ENDBRANCH   3   7
ENDBRANCH   2   3
ENDBRANCH   1   2
BRANCH   1   9
HETATM    9  N2  UNL     1      70.107  35.077   2.691  1.00  0.00    -0.397 N 
ATOM     10  H2  UNL     1      70.616  34.621   3.447  1.00  0.00     0.154 HD
BRANCH   9  11
HETATM   11  C4  UNL     1      70.507  34.902   1.377  1.00  0.00     0.169 C 
BRANCH  11  12
HETATM   12  C5  UNL     1      70.255  33.635   0.715  1.00  0.00     0.258 C 
HETATM   13  O2  UNL     1      70.299  32.517   1.206  1.00  0.00    -0.305 OA
ENDBRANCH  11  12
BRANCH  11  14
HETATM   14  C6  UNL     1      71.954  35.398   1.136  1.00  0.00     0.212 C 
BRANCH  14  15
HETATM   15  N3  UNL     1      72.894  34.444   1.654  1.00  0.00    -0.073 N 
ATOM     16  H33 UNL     1      72.913  34.443   2.674  1.00  0.00     0.274 HD
ATOM     17  H32 UNL     1      72.581  33.484   1.510  1.00  0.00     0.274 HD
ATOM     18  H31 UNL     1      73.817  34.610   1.253  1.00  0.00     0.274 HD
ENDBRANCH  14  15
BRANCH  14  19
HETATM   19  C7  UNL     1      72.076  35.701  -0.315  1.00  0.00     0.040 C 
BRANCH  19  20
HETATM   20  C8  UNL     1      71.778  37.122  -0.706  1.00  0.00    -0.013 C 
HETATM   21  C9  UNL     1      72.866  37.797  -1.470  1.00  0.00     0.005 C 
HETATM   22  C10 UNL     1      72.393  38.986  -2.285  1.00  0.00     0.000 C 
HETATM   23  C11 UNL     1      71.317  38.665  -3.263  1.00  0.00     0.000 C 
HETATM   24  C12 UNL     1      70.695  37.306  -2.966  1.00  0.00     0.000 C 
HETATM   25  C13 UNL     1      70.490  37.149  -1.469  1.00  0.00     0.005 C 
ENDBRANCH  19  20
ENDBRANCH  14  19
ENDBRANCH  11  14
ENDBRANCH   9  11
ENDBRANCH   1   9
BRANCH   1  26
HETATM   26  C14 UNL     1      67.808  34.977   3.329  1.00  0.00     0.240 C 
HETATM   27  O3  UNL     1      67.173  34.545   2.337  1.00  0.00    -0.271 OA
HETATM   28  N4  UNL     1      67.489  34.660   4.646  1.00  0.00    -0.355 N 
ATOM     29  H4  UNL     1      68.054  35.043   5.405  1.00  0.00     0.162 HD
BRANCH  28  30
HETATM   30  C15 UNL     1      66.367  33.796   4.955  1.00  0.00     0.084 C 
HETATM   31  C16 UNL     1      66.639  32.939   6.172  1.00  0.00     0.025 C 
HETATM   32  C17 UNL     1      65.573  31.899   6.277  1.00  0.00     0.002 C 
HETATM   33  C18 UNL     1      64.183  32.414   6.196  1.00  0.00     0.000 C 
HETATM   34  C19 UNL     1      63.977  33.594   5.324  1.00  0.00     0.002 C 
HETATM   35  C20 UNL     1      65.100  34.565   5.234  1.00  0.00     0.025 C 
ENDBRANCH  28  30
ENDBRANCH   1  26
TORSDOF 12
ENDMDL
MODEL 5
REMARK VINA RESULT: -8.375388108      2.166      3.220
REMARK  12 active torsions:
REMARK  status: ('A' for Active; 'I' for Inactive)
REMARK    1  A    between atoms: C1_4  and  O1_5 
REMARK    2  A    between atoms: C1_4  and  C2_7 
REMARK    3  A    between atoms: C2_7  and  C3_8 
REMARK    4  A    between atoms: C3_8  and  N2_9 
REMARK    5  A    between atoms: C3_8  and  C14_26 
REMARK    6  A    between atoms: N2_9  and  C4_11 
REMARK    7  A    between atoms: C4_11  and  C5_12 
REMARK    8  A    between atoms: C4_11  and  C6_14 
REMARK    9  A    between atoms: C6_14  and  N3_15 
REMARK   10  A    between atoms: C6_14  and  C7_19 
REMARK   11  A    between atoms: C7_19  and  C8_20 
REMARK       I    between atoms: C14_26  and  N4_28 
REMARK   12  A    between atoms: N4_28  and  C15_30 
ROOT
HETATM    1  C3  UNL     1      71.704  34.438   0.539  1.00  0.00     0.177 C 
ENDROOT
BRANCH   1   2
HETATM    2  C2  UNL     1      72.749  33.472   0.944  1.00  0.00     0.117 C 
BRANCH   2   3
HETATM    3  C1  UNL     1      74.036  34.145   1.320  1.00  0.00     0.111 C 
HETATM    4  N1  UNL     1      75.054  34.003   0.571  1.00  0.00    -0.384 N 
ATOM      5  H12 UNL     1      75.928  34.460   0.827  1.00  0.00     0.157 HD
ATOM      6  H11 UNL     1      75.012  33.441  -0.280  1.00  0.00     0.157 HD
BRANCH   3   7
HETATM    7  O1  UNL     1      74.092  34.899   2.462  1.00  0.00    -0.350 OA
ATOM      8  H1  UNL     1      73.402  34.859   3.114  1.00  0.00     0.219 HD
ENDBRANCH   3   7
ENDBRANCH   2   3
ENDBRANCH   1   2
BRANCH   1   9
HETATM    9  N2  UNL     1      71.961  35.827   0.616  1.00  0.00    -0.397 N 
ATOM     10  H2  UNL     1      72.075  36.276   1.524  1.00  0.00     0.154 HD
BRANCH   9  11
HETATM   11  C4  UNL     1      72.057  36.572  -0.547  1.00  0.00     0.169 C 
BRANCH  11  12
HETATM   12  C5  UNL     1      73.350  37.081  -0.966  1.00  0.00     0.258 C 
HETATM   13  O2  UNL     1      74.399  36.462  -1.058  1.00  0.00    -0.305 OA
ENDBRANCH  11  12
BRANCH  11  14
HETATM   14  C6  UNL     1      70.956  37.658  -0.637  1.00  0.00     0.212 C 
BRANCH  14  15
HETATM   15  N3  UNL     1      70.427  37.931   0.668  1.00  0.00    -0.073 N 
ATOM     16  H33 UNL     1      70.157  37.078   1.157  1.00  0.00     0.274 HD
ATOM     17  H32 UNL     1      71.149  38.252   1.313  1.00  0.00     0.274 HD
ATOM     18  H31 UNL     1      69.654  38.594   0.601  1.00  0.00     0.274 HD
ENDBRANCH  14  15
BRANCH  14  19
HETATM   19  C7  UNL     1      71.548  38.821  -1.351  1.00  0.00     0.040 C 
BRANCH  19  20
HETATM   20  C8  UNL     1      70.913  39.162  -2.672  1.00  0.00    -0.013 C 
HETATM   21  C9  UNL     1      71.785  39.942  -3.596  1.00  0.00     0.005 C 
HETATM   22  C10 UNL     1      71.374  39.840  -5.053  1.00  0.00     0.000 C 
HETATM   23  C11 UNL     1      71.328  38.447  -5.578  1.00  0.00     0.000 C 
HETATM   24  C12 UNL     1      71.352  37.433  -4.440  1.00  0.00     0.000 C 
HETATM   25  C13 UNL     1      70.442  37.896  -3.316  1.00  0.00     0.005 C 
ENDBRANCH  19  20
ENDBRANCH  14  19
ENDBRANCH  11  14
ENDBRANCH   9  11
ENDBRANCH   1   9
BRANCH   1  26
HETATM   26  C14 UNL     1      70.408  34.150   1.305  1.00  0.00     0.240 C 
HETATM   27  O3  UNL     1      70.029  32.955   1.257  1.00  0.00    -0.271 OA
HETATM   28  N4  UNL     1      69.725  35.147   1.994  1.00  0.00    -0.355 N 
ATOM     29  H4  UNL     1      70.094  36.099   1.996  1.00  0.00     0.162 HD
BRANCH  28  30
HETATM   30  C15 UNL     1      68.498  34.855   2.710  1.00  0.00     0.084 C 
HETATM   31  C16 UNL     1      68.270  35.824   3.849  1.00  0.00     0.025 C 
HETATM   32  C17 UNL     1      67.150  35.316   4.696  1.00  0.00     0.002 C 
HETATM   33  C18 UNL     1      65.917  34.949   3.955  1.00  0.00     0.000 C 
HETATM   34  C19 UNL     1      66.117  34.401   2.594  1.00  0.00     0.002 C 
HETATM   35  C20 UNL     1      67.279  34.922   1.824  1.00  0.00     0.025 C 
ENDBRANCH  28  30
ENDBRANCH   1  26
TORSDOF 12
ENDMDL
