MODEL 1
REMARK VINA RESULT: -8.361747572      0.000      0.000
REMARK  10 active torsions:
REMARK  status: ('A' for Active; 'I' for Inactive)
REMARK    1  A    between atoms: C2_2  and  N1_3 
REMARK    2  A    between atoms: C2_2  and  C5_10 
REMARK    3  A    between atoms: N1_3  and  C3_6 
REMARK    4  A    between atoms: C3_6  and  C4_7 
REMARK       I    between atoms: C5_10  and  N2_12 
REMARK    5  A    between atoms: N2_12  and  C6_14 
REMARK    6  A    between atoms: C6_14  and  C7_15 
REMARK    7  A    between atoms: C10_18  and  C11_19 
REMARK    8  A    between atoms: C11_19  and  C13_21 
REMARK       I    between atoms: C13_21  and  N3_23 
REMARK    9  A    between atoms: N3_23  and  C14_25 
REMARK   10  A    between atoms: C14_25  and  C16_27 
ROOT
HETATM    1  C7  UNL     1      68.462  35.727   1.990  1.00  0.00     0.003 C 
HETATM    2  C8  UNL     1      68.799  34.451   1.291  1.00  0.00     0.006 C 
HETATM    3  C9  UNL     1      70.251  34.196   1.077  1.00  0.00     0.006 C 
HETATM    4  C10 UNL     1      71.012  35.414   0.593  1.00  0.00    -0.002 C 
HETATM    5  C19 UNL     1      70.857  36.437   1.713  1.00  0.00     0.006 C 
HETATM    6  C20 UNL     1      69.425  36.849   1.739  1.00  0.00     0.006 C 
ENDROOT
BRANCH   1   7
HETATM    7  C6  UNL     1      68.367  35.508   3.484  1.00  0.00     0.127 C 
BRANCH   7   8
HETATM    8  N2  UNL     1      67.195  34.772   3.896  1.00  0.00    -0.359 N 
HETATM    9  C5  UNL     1      66.876  34.565   5.254  1.00  0.00     0.248 C 
HETATM   10  O3  UNL     1      67.586  34.996   6.182  1.00  0.00    -0.271 OA
ATOM     11  H2  UNL     1      66.577  34.387   3.180  1.00  0.00     0.162 HD
BRANCH   9  12
HETATM   12  C2  UNL     1      65.639  33.802   5.572  1.00  0.00     0.273 C 
HETATM   13  C1  UNL     1      66.079  32.409   5.945  1.00  0.00     0.050 C 
BRANCH  12  14
HETATM   14  N1  UNL     1      64.736  33.847   4.443  1.00  0.00    -0.053 N 
ATOM     15  H12 UNL     1      65.254  33.892   3.566  1.00  0.00     0.278 HD
ATOM     16  H11 UNL     1      64.268  32.950   4.316  1.00  0.00     0.278 HD
BRANCH  14  17
HETATM   17  C3  UNL     1      63.775  34.923   4.531  1.00  0.00     0.345 C 
BRANCH  17  18
HETATM   18  C4  UNL     1      63.896  35.789   3.345  1.00  0.00     0.199 C 
HETATM   19  O1  UNL     1      63.147  35.620   2.363  1.00  0.00    -0.647 OA
HETATM   20  O2  UNL     1      64.843  36.790   3.318  1.00  0.00    -0.647 OA
ENDBRANCH  17  18
ENDBRANCH  14  17
ENDBRANCH  12  14
ENDBRANCH   9  12
ENDBRANCH   7   8
ENDBRANCH   1   7
BRANCH   4  21
HETATM   21  C11 UNL     1      72.453  35.100   0.448  1.00  0.00     0.078 C 
HETATM   22  C12 UNL     1      73.275  35.119   1.686  1.00  0.00     0.020 C 
BRANCH  21  23
HETATM   23  C13 UNL     1      73.044  36.038  -0.606  1.00  0.00     0.222 C 
HETATM   24  O4  UNL     1      74.294  36.088  -0.686  1.00  0.00    -0.273 OA
HETATM   25  N3  UNL     1      72.200  36.774  -1.402  1.00  0.00    -0.356 N 
ATOM     26  H3  UNL     1      71.212  36.601  -1.219  1.00  0.00     0.162 HD
BRANCH  25  27
HETATM   27  C14 UNL     1      72.426  37.722  -2.421  1.00  0.00     0.083 C 
HETATM   28  C15 UNL     1      72.903  39.011  -1.836  1.00  0.00     0.032 C 
BRANCH  27  29
HETATM   29  C16 UNL     1      71.416  37.870  -3.518  1.00  0.00    -0.000 C 
HETATM   30  C17 UNL     1      70.093  37.209  -3.005  1.00  0.00     0.011 C 
HETATM   31  C18 UNL     1      70.973  39.345  -3.683  1.00  0.00     0.011 C 
ENDBRANCH  27  29
ENDBRANCH  25  27
ENDBRANCH  21  23
ENDBRANCH   4  21
TORSDOF 10
ENDMDL
MODEL 2
REMARK VINA RESULT: -8.336449005      1.610      1.903
REMARK  10 active torsions:
REMARK  status: ('A' for Active; 'I' for Inactive)
REMARK    1  A    between atoms: C2_2  and  N1_3 
REMARK    2  A    between atoms: C2_2  and  C5_10 
REMARK    3  A    between atoms: N1_3  and  C3_6 
REMARK    4  A    between atoms: C3_6  and  C4_7 
REMARK       I    between atoms: C5_10  and  N2_12 
REMARK    5  A    between atoms: N2_12  and  C6_14 
REMARK    6  A    between atoms: C6_14  and  C7_15 
REMARK    7  A    between atoms: C10_18  and  C11_19 
REMARK    8  A    between atoms: C11_19  and  C13_21 
REMARK       I    between atoms: C13_21  and  N3_23 
REMARK    9  A    between atoms: N3_23  and  C14_25 
REMARK   10  A    between atoms: C14_25  and  C16_27 
ROOT
HETATM    1  C7  UNL     1      68.513  35.586   1.942  1.00  0.00     0.003 C 
HETATM    2  C8  UNL     1      68.905  34.307   1.275  1.00  0.00     0.006 C 
HETATM    3  C9  UNL     1      70.367  34.111   1.066  1.00  0.00     0.006 C 
HETATM    4  C10 UNL     1      71.073  35.348   0.549  1.00  0.00    -0.002 C 
HETATM    5  C19 UNL     1      70.875  36.392   1.644  1.00  0.00     0.006 C 
HETATM    6  C20 UNL     1      69.427  36.741   1.662  1.00  0.00     0.006 C 
ENDROOT
BRANCH   1   7
HETATM    7  C6  UNL     1      68.429  35.401   3.442  1.00  0.00     0.127 C 
BRANCH   7   8
HETATM    8  N2  UNL     1      67.269  34.657   3.876  1.00  0.00    -0.359 N 
HETATM    9  C5  UNL     1      66.928  34.527   5.238  1.00  0.00     0.248 C 
HETATM   10  O3  UNL     1      67.606  35.036   6.151  1.00  0.00    -0.271 OA
ATOM     11  H2  UNL     1      66.678  34.211   3.174  1.00  0.00     0.162 HD
BRANCH   9  12
HETATM   12  C2  UNL     1      65.707  33.748   5.581  1.00  0.00     0.273 C 
HETATM   13  C1  UNL     1      66.163  32.585   6.424  1.00  0.00     0.050 C 
BRANCH  12  14
HETATM   14  N1  UNL     1      65.024  33.358   4.367  1.00  0.00    -0.053 N 
ATOM     15  H12 UNL     1      64.124  33.831   4.289  1.00  0.00     0.278 HD
ATOM     16  H11 UNL     1      65.489  33.748   3.547  1.00  0.00     0.278 HD
BRANCH  14  17
HETATM   17  C3  UNL     1      64.868  31.927   4.241  1.00  0.00     0.345 C 
BRANCH  17  18
HETATM   18  C4  UNL     1      65.484  31.474   2.980  1.00  0.00     0.199 C 
HETATM   19  O1  UNL     1      66.334  32.182   2.405  1.00  0.00    -0.647 OA
HETATM   20  O2  UNL     1      65.117  30.265   2.431  1.00  0.00    -0.647 OA
ENDBRANCH  17  18
ENDBRANCH  14  17
ENDBRANCH  12  14
ENDBRANCH   9  12
ENDBRANCH   7   8
ENDBRANCH   1   7
BRANCH   4  21
HETATM   21  C11 UNL     1      72.527  35.093   0.410  1.00  0.00     0.078 C 
HETATM   22  C12 UNL     1      73.340  35.130   1.654  1.00  0.00     0.020 C 
BRANCH  21  23
HETATM   23  C13 UNL     1      73.087  36.066  -0.629  1.00  0.00     0.222 C 
HETATM   24  O4  UNL     1      74.333  36.184  -0.684  1.00  0.00    -0.273 OA
HETATM   25  N3  UNL     1      72.220  36.760  -1.438  1.00  0.00    -0.356 N 
ATOM     26  H3  UNL     1      71.239  36.532  -1.275  1.00  0.00     0.162 HD
BRANCH  25  27
HETATM   27  C14 UNL     1      72.414  37.723  -2.449  1.00  0.00     0.083 C 
HETATM   28  C15 UNL     1      72.875  39.014  -1.856  1.00  0.00     0.032 C 
BRANCH  27  29
HETATM   29  C16 UNL     1      71.386  37.864  -3.530  1.00  0.00    -0.000 C 
HETATM   30  C17 UNL     1      70.056  37.258  -2.970  1.00  0.00     0.011 C 
HETATM   31  C18 UNL     1      70.981  39.345  -3.736  1.00  0.00     0.011 C 
ENDBRANCH  27  29
ENDBRANCH  25  27
ENDBRANCH  21  23
ENDBRANCH   4  21
TORSDOF 10
ENDMDL
MODEL 3
REMARK VINA RESULT: -8.314495881      2.362      2.806
REMARK  10 active torsions:
REMARK  status: ('A' for Active; 'I' for Inactive)
REMARK    1  A    between atoms: C2_2  and  N1_3 
REMARK    2  A    between atoms: C2_2  and  C5_10 
REMARK    3  A    between atoms: N1_3  and  C3_6 
REMARK    4  A    between atoms: C3_6  and  C4_7 
REMARK       I    between atoms: C5_10  and  N2_12 
REMARK    5  A    between atoms: N2_12  and  C6_14 
REMARK    6  A    between atoms: C6_14  and  C7_15 
REMARK    7  A    between atoms: C10_18  and  C11_19 
REMARK    8  A    between atoms: C11_19  and  C13_21 
REMARK       I    between atoms: C13_21  and  N3_23 
REMARK    9  A    between atoms: N3_23  and  C14_25 
REMARK   10  A    between atoms: C14_25  and  C16_27 
ROOT
HETATM    1  C7  UNL     1      66.984  35.525   3.058  1.00  0.00     0.003 C 
HETATM    2  C8  UNL     1      67.264  34.655   1.876  1.00  0.00     0.006 C 
HETATM    3  C9  UNL     1      68.669  34.671   1.382  1.00  0.00     0.006 C 
HETATM    4  C10 UNL     1      69.268  36.061   1.313  1.00  0.00    -0.002 C 
HETATM    5  C19 UNL     1      69.255  36.559   2.755  1.00  0.00     0.006 C 
HETATM    6  C20 UNL     1      67.829  36.761   3.137  1.00  0.00     0.006 C 
ENDROOT
BRANCH   1   7
HETATM    7  C6  UNL     1      67.160  34.748   4.345  1.00  0.00     0.127 C 
BRANCH   7   8
HETATM    8  N2  UNL     1      66.212  33.671   4.514  1.00  0.00    -0.359 N 
HETATM    9  C5  UNL     1      65.061  33.802   5.317  1.00  0.00     0.248 C 
HETATM   10  O3  UNL     1      64.793  34.849   5.938  1.00  0.00    -0.271 OA
ATOM     11  H2  UNL     1      66.381  32.785   4.036  1.00  0.00     0.162 HD
BRANCH   9  12
HETATM   12  C2  UNL     1      64.142  32.637   5.417  1.00  0.00     0.273 C 
HETATM   13  C1  UNL     1      64.825  31.626   6.301  1.00  0.00     0.050 C 
BRANCH  12  14
HETATM   14  N1  UNL     1      63.838  32.144   4.091  1.00  0.00    -0.053 N 
ATOM     15  H12 UNL     1      62.884  32.385   3.824  1.00  0.00     0.278 HD
ATOM     16  H11 UNL     1      64.349  32.669   3.382  1.00  0.00     0.278 HD
BRANCH  14  17
HETATM   17  C3  UNL     1      64.071  30.725   3.949  1.00  0.00     0.345 C 
BRANCH  17  18
HETATM   18  C4  UNL     1      65.025  30.490   2.849  1.00  0.00     0.199 C 
HETATM   19  O1  UNL     1      65.137  29.356   2.346  1.00  0.00    -0.647 OA
HETATM   20  O2  UNL     1      65.798  31.528   2.377  1.00  0.00    -0.647 OA
ENDBRANCH  17  18
ENDBRANCH  14  17
ENDBRANCH  12  14
ENDBRANCH   9  12
ENDBRANCH   7   8
ENDBRANCH   1   7
BRANCH   4  21
HETATM   21  C11 UNL     1      70.678  35.994   0.860  1.00  0.00     0.078 C 
HETATM   22  C12 UNL     1      71.728  36.066   1.910  1.00  0.00     0.020 C 
BRANCH  21  23
HETATM   23  C13 UNL     1      70.894  37.082  -0.194  1.00  0.00     0.222 C 
HETATM   24  O4  UNL     1      70.391  38.206   0.038  1.00  0.00    -0.273 OA
HETATM   25  N3  UNL     1      71.612  36.788  -1.328  1.00  0.00    -0.356 N 
ATOM     26  H3  UNL     1      71.967  35.832  -1.349  1.00  0.00     0.162 HD
BRANCH  25  27
HETATM   27  C14 UNL     1      71.957  37.542  -2.468  1.00  0.00     0.083 C 
HETATM   28  C15 UNL     1      72.949  38.601  -2.110  1.00  0.00     0.032 C 
BRANCH  27  29
HETATM   29  C16 UNL     1      70.875  37.989  -3.403  1.00  0.00    -0.000 C 
HETATM   30  C17 UNL     1      70.738  39.538  -3.225  1.00  0.00     0.011 C 
HETATM   31  C18 UNL     1      71.328  37.893  -4.880  1.00  0.00     0.011 C 
ENDBRANCH  27  29
ENDBRANCH  25  27
ENDBRANCH  21  23
ENDBRANCH   4  21
TORSDOF 10
ENDMDL
MODEL 4
REMARK VINA RESULT: -8.281107777      4.567      6.066
REMARK  10 active torsions:
REMARK  status: ('A' for Active; 'I' for Inactive)
REMARK    1  A    between atoms: C2_2  and  N1_3 
REMARK    2  A    between atoms: C2_2  and  C5_10 
REMARK    3  A    between atoms: N1_3  and  C3_6 
REMARK    4  A    between atoms: C3_6  and  C4_7 
REMARK       I    between atoms: C5_10  and  N2_12 
REMARK    5  A    between atoms: N2_12  and  C6_14 
REMARK    6  A    between atoms: C6_14  and  C7_15 
REMARK    7  A    between atoms: C10_18  and  C11_19 
REMARK    8  A    between atoms: C11_19  and  C13_21 
REMARK       I    between atoms: C13_21  and  N3_23 
REMARK    9  A    between atoms: N3_23  and  C14_25 
REMARK   10  A    between atoms: C14_25  and  C16_27 
ROOT
HETATM    1  C7  UNL     1      69.846  37.426   1.302  1.00  0.00     0.003 C 
HETATM    2  C8  UNL     1      69.504  36.558   0.135  1.00  0.00     0.006 C 
HETATM    3  C9  UNL     1      70.484  36.570  -0.987  1.00  0.00     0.006 C 
HETATM    4  C10 UNL     1      70.977  37.958  -1.342  1.00  0.00    -0.002 C 
HETATM    5  C19 UNL     1      71.677  38.454  -0.081  1.00  0.00     0.006 C 
HETATM    6  C20 UNL     1      70.625  38.660   0.954  1.00  0.00     0.006 C 
ENDROOT
BRANCH   1   7
HETATM    7  C6  UNL     1      70.630  36.647   2.335  1.00  0.00     0.127 C 
BRANCH   7   8
HETATM    8  N2  UNL     1      71.123  35.375   1.860  1.00  0.00    -0.359 N 
HETATM    9  C5  UNL     1      72.492  35.146   1.610  1.00  0.00     0.248 C 
HETATM   10  O3  UNL     1      73.359  36.026   1.774  1.00  0.00    -0.271 OA
ATOM     11  H2  UNL     1      70.459  34.617   1.701  1.00  0.00     0.162 HD
BRANCH   9  12
HETATM   12  C2  UNL     1      72.899  33.797   1.133  1.00  0.00     0.273 C 
HETATM   13  C1  UNL     1      74.256  33.958   0.496  1.00  0.00     0.050 C 
BRANCH  12  14
HETATM   14  N1  UNL     1      71.891  33.275   0.236  1.00  0.00    -0.053 N 
ATOM     15  H12 UNL     1      71.354  34.032  -0.187  1.00  0.00     0.278 HD
ATOM     16  H11 UNL     1      72.318  32.884  -0.603  1.00  0.00     0.278 HD
BRANCH  14  17
HETATM   17  C3  UNL     1      71.017  32.313   0.867  1.00  0.00     0.345 C 
BRANCH  17  18
HETATM   18  C4  UNL     1      71.826  31.288   1.551  1.00  0.00     0.199 C 
HETATM   19  O1  UNL     1      71.827  31.215   2.796  1.00  0.00    -0.647 OA
HETATM   20  O2  UNL     1      72.588  30.407   0.815  1.00  0.00    -0.647 OA
ENDBRANCH  17  18
ENDBRANCH  14  17
ENDBRANCH  12  14
ENDBRANCH   9  12
ENDBRANCH   7   8
ENDBRANCH   1   7
BRANCH   4  21
HETATM   21  C11 UNL     1      71.980  37.887  -2.431  1.00  0.00     0.078 C 
HETATM   22  C12 UNL     1      73.340  38.407  -2.129  1.00  0.00     0.020 C 
BRANCH  21  23
HETATM   23  C13 UNL     1      71.399  38.582  -3.664  1.00  0.00     0.222 C 
HETATM   24  O4  UNL     1      70.580  39.508  -3.461  1.00  0.00    -0.273 OA
HETATM   25  N3  UNL     1      71.788  38.168  -4.915  1.00  0.00    -0.356 N 
ATOM     26  H3  UNL     1      72.475  37.415  -4.901  1.00  0.00     0.162 HD
BRANCH  25  27
HETATM   27  C14 UNL     1      71.426  38.576  -6.216  1.00  0.00     0.083 C 
HETATM   28  C15 UNL     1      71.215  37.386  -7.094  1.00  0.00     0.032 C 
BRANCH  27  29
HETATM   29  C16 UNL     1      72.171  39.704  -6.862  1.00  0.00    -0.000 C 
HETATM   30  C17 UNL     1      71.671  39.786  -8.342  1.00  0.00     0.011 C 
HETATM   31  C18 UNL     1      71.712  41.076  -6.309  1.00  0.00     0.011 C 
ENDBRANCH  27  29
ENDBRANCH  25  27
ENDBRANCH  21  23
ENDBRANCH   4  21
TORSDOF 10
ENDMDL
MODEL 5
REMARK VINA RESULT: -8.223737763      4.656     10.183
REMARK  10 active torsions:
REMARK  status: ('A' for Active; 'I' for Inactive)
REMARK    1  A    between atoms: C2_2  and  N1_3 
REMARK    2  A    between atoms: C2_2  and  C5_10 
REMARK    3  A    between atoms: N1_3  and  C3_6 
REMARK    4  A    between atoms: C3_6  and  C4_7 
REMARK       I    between atoms: C5_10  and  N2_12 
REMARK    5  A    between atoms: N2_12  and  C6_14 
REMARK    6  A    between atoms: C6_14  and  C7_15 
REMARK    7  A    between atoms: C10_18  and  C11_19 
REMARK    8  A    between atoms: C11_19  and  C13_21 
REMARK       I    between atoms: C13_21  and  N3_23 
REMARK    9  A    between atoms: N3_23  and  C14_25 
REMARK   10  A    between atoms: C14_25  and  C16_27 
ROOT
HETATM    1  C7  UNL     1      70.324  38.328  -3.031  1.00  0.00     0.003 C 
HETATM    2  C8  UNL     1      71.304  39.299  -2.457  1.00  0.00     0.006 C 
HETATM    3  C9  UNL     1      72.363  38.710  -1.591  1.00  0.00     0.006 C 
HETATM    4  C10 UNL     1      71.837  37.676  -0.615  1.00  0.00    -0.002 C 
HETATM    5  C19 UNL     1      71.261  36.572  -1.496  1.00  0.00     0.006 C 
HETATM    6  C20 UNL     1      70.055  37.131  -2.169  1.00  0.00     0.006 C 
ENDROOT
BRANCH   1   7
HETATM    7  C6  UNL     1      70.786  37.841  -4.388  1.00  0.00     0.127 C 
BRANCH   7   8
HETATM    8  N2  UNL     1      71.372  38.873  -5.212  1.00  0.00    -0.359 N 
HETATM    9  C5  UNL     1      71.599  38.693  -6.592  1.00  0.00     0.248 C 
HETATM   10  O3  UNL     1      71.318  37.634  -7.185  1.00  0.00    -0.271 OA
ATOM     11  H2  UNL     1      71.631  39.761  -4.781  1.00  0.00     0.162 HD
BRANCH   9  12
HETATM   12  C2  UNL     1      72.199  39.821  -7.354  1.00  0.00     0.273 C 
HETATM   13  C1  UNL     1      72.040  41.051  -6.497  1.00  0.00     0.050 C 
BRANCH  12  14
HETATM   14  N1  UNL     1      71.562  39.925  -8.649  1.00  0.00    -0.053 N 
ATOM     15  H12 UNL     1      71.679  39.063  -9.181  1.00  0.00     0.278 HD
ATOM     16  H11 UNL     1      70.547  39.927  -8.555  1.00  0.00     0.278 HD
BRANCH  14  17
HETATM   17  C3  UNL     1      72.012  41.067  -9.410  1.00  0.00     0.345 C 
BRANCH  17  18
HETATM   18  C4  UNL     1      70.846  41.829  -9.891  1.00  0.00     0.199 C 
HETATM   19  O1  UNL     1      70.095  41.347 -10.762  1.00  0.00    -0.647 OA
HETATM   20  O2  UNL     1      70.583  43.081  -9.380  1.00  0.00    -0.647 OA
ENDBRANCH  17  18
ENDBRANCH  14  17
ENDBRANCH  12  14
ENDBRANCH   9  12
ENDBRANCH   7   8
ENDBRANCH   1   7
BRANCH   4  21
HETATM   21  C11 UNL     1      72.950  37.102   0.179  1.00  0.00     0.078 C 
HETATM   22  C12 UNL     1      73.879  36.183  -0.530  1.00  0.00     0.020 C 
BRANCH  21  23
HETATM   23  C13 UNL     1      72.356  36.422   1.414  1.00  0.00     0.222 C 
HETATM   24  O4  UNL     1      73.157  35.847   2.187  1.00  0.00    -0.273 OA
HETATM   25  N3  UNL     1      70.998  36.464   1.618  1.00  0.00    -0.356 N 
ATOM     26  H3  UNL     1      70.494  36.988   0.903  1.00  0.00     0.162 HD
BRANCH  25  27
HETATM   27  C14 UNL     1      70.161  35.928   2.618  1.00  0.00     0.083 C 
HETATM   28  C15 UNL     1      69.460  34.709   2.111  1.00  0.00     0.032 C 
BRANCH  27  29
HETATM   29  C16 UNL     1      69.300  36.853   3.423  1.00  0.00    -0.000 C 
HETATM   30  C17 UNL     1      69.144  38.167   2.587  1.00  0.00     0.011 C 
HETATM   31  C18 UNL     1      67.835  36.355   3.482  1.00  0.00     0.011 C 
ENDBRANCH  27  29
ENDBRANCH  25  27
ENDBRANCH  21  23
ENDBRANCH   4  21
TORSDOF 10
ENDMDL
