MODEL 1
REMARK VINA RESULT: -2.736081812      0.000      0.000
REMARK  9 active torsions:
REMARK  status: ('A' for Active; 'I' for Inactive)
REMARK    1  A    between atoms: C3_4  and  N2_5 
REMARK    2  A    between atoms: N2_5  and  N3_7 
REMARK    3  A    between atoms: C4_12  and  O1_13 
REMARK    4  A    between atoms: C5_15  and  O2_16 
REMARK    5  A    between atoms: C6_18  and  O3_19 
REMARK    6  A    between atoms: O3_19  and  C7_20 
REMARK    7  A    between atoms: C10_23  and  O4_24 
REMARK    8  A    between atoms: C10_23  and  C11_26 
REMARK    9  A    between atoms: C11_26  and  N5_27 
ROOT
HETATM    1  C1  UNL     1      10.070  29.781  23.332  1.00  0.00     0.221 C 
HETATM    2  N1  UNL     1       9.392  28.835  23.345  1.00  0.00    -0.461 NA
HETATM    3  C2  UNL     1       8.561  27.703  23.372  1.00  0.00     0.219 C 
HETATM    4  C3  UNL     1       9.105  26.607  24.258  1.00  0.00     0.170 C 
HETATM    5  C4  UNL     1      10.211  26.040  23.407  1.00  0.00     0.176 C 
HETATM    6  C5  UNL     1       9.616  26.022  22.018  1.00  0.00     0.181 C 
HETATM    7  C6  UNL     1       8.517  27.055  22.008  1.00  0.00     0.191 C 
ENDROOT
BRANCH   4   8
HETATM    8  N2  UNL     1       8.054  25.674  24.516  1.00  0.00    -0.312 N 
ATOM      9  H2  UNL     1       8.292  24.685  24.598  1.00  0.00     0.182 HD
BRANCH   8  10
HETATM   10  N3  UNL     1       6.862  26.010  24.646  1.00  0.00    -0.253 N 
HETATM   11  N4  UNL     1       5.650  26.015  24.453  1.00  0.00    -0.331 N 
ATOM     12  H42 UNL     1       5.620  25.283  23.742  1.00  0.00     0.178 HD
ATOM     13  H41 UNL     1       4.674  26.290  24.558  1.00  0.00     0.178 HD
ATOM     14  H3  UNL     1       6.944  26.736  25.359  1.00  0.00     0.207 HD
ENDBRANCH   8  10
ENDBRANCH   4   8
BRANCH   7  15
HETATM   15  O3  UNL     1       7.319  26.403  21.767  1.00  0.00    -0.375 OA
BRANCH  15  16
HETATM   16  C7  UNL     1       7.451  25.265  20.996  1.00  0.00     0.125 C 
HETATM   17  C8  UNL     1       6.910  25.387  19.617  1.00  0.00     0.035 C 
HETATM   18  C9  UNL     1       6.022  24.175  19.373  1.00  0.00     0.042 C 
HETATM   19  C10 UNL     1       5.721  23.609  20.741  1.00  0.00     0.086 C 
HETATM   20  C14 UNL     1       6.871  24.039  21.627  1.00  0.00     0.071 C 
BRANCH  19  21
HETATM   21  O4  UNL     1       5.595  22.226  20.720  1.00  0.00    -0.388 OA
ATOM     22  H4  UNL     1       4.864  21.925  21.247  1.00  0.00     0.210 HD
ENDBRANCH  19  21
BRANCH  19  23
HETATM   23  C11 UNL     1       4.457  24.212  21.306  1.00  0.00     0.308 C 
BRANCH  23  24
HETATM   24  N5  UNL     1       3.661  23.278  22.071  1.00  0.00     0.082 N 
HETATM   25  C12 UNL     1       2.409  23.093  21.325  1.00  0.00     0.309 C 
HETATM   26  C13 UNL     1       3.283  23.825  23.367  1.00  0.00     0.309 C 
ENDBRANCH  23  24
ENDBRANCH  19  23
ENDBRANCH  15  16
ENDBRANCH   7  15
BRANCH   5  27
HETATM   27  O1  UNL     1      11.337  26.833  23.470  1.00  0.00    -0.391 OA
ATOM     28  H1  UNL     1      12.107  26.352  23.190  1.00  0.00     0.210 HD
ENDBRANCH   5  27
BRANCH   6  29
HETATM   29  O2  UNL     1      10.602  26.249  21.075  1.00  0.00    -0.390 OA
ATOM     30  H2  UNL     1      10.212  26.377  20.219  1.00  0.00     0.210 HD
ENDBRANCH   6  29
TORSDOF 9
ENDMDL
MODEL 2
REMARK VINA RESULT: -2.329389366      2.646      3.840
REMARK  9 active torsions:
REMARK  status: ('A' for Active; 'I' for Inactive)
REMARK    1  A    between atoms: C3_4  and  N2_5 
REMARK    2  A    between atoms: N2_5  and  N3_7 
REMARK    3  A    between atoms: C4_12  and  O1_13 
REMARK    4  A    between atoms: C5_15  and  O2_16 
REMARK    5  A    between atoms: C6_18  and  O3_19 
REMARK    6  A    between atoms: O3_19  and  C7_20 
REMARK    7  A    between atoms: C10_23  and  O4_24 
REMARK    8  A    between atoms: C10_23  and  C11_26 
REMARK    9  A    between atoms: C11_26  and  N5_27 
ROOT
HETATM    1  C1  UNL     1      12.530  29.408  25.516  1.00  0.00     0.221 C 
HETATM    2  N1  UNL     1      12.038  28.612  24.823  1.00  0.00    -0.461 NA
HETATM    3  C2  UNL     1      11.458  27.640  23.992  1.00  0.00     0.219 C 
HETATM    4  C3  UNL     1      11.753  27.877  22.530  1.00  0.00     0.170 C 
HETATM    5  C4  UNL     1      10.823  29.017  22.207  1.00  0.00     0.176 C 
HETATM    6  C5  UNL     1       9.552  28.657  22.940  1.00  0.00     0.181 C 
HETATM    7  C6  UNL     1       9.951  27.727  24.060  1.00  0.00     0.191 C 
ENDROOT
BRANCH   4   8
HETATM    8  N2  UNL     1      11.453  26.680  21.810  1.00  0.00    -0.312 N 
ATOM      9  H2  UNL     1      12.096  25.892  21.889  1.00  0.00     0.182 HD
BRANCH   8  10
HETATM   10  N3  UNL     1      10.444  26.552  21.090  1.00  0.00    -0.253 N 
HETATM   11  N4  UNL     1       9.649  26.016  20.325  1.00  0.00    -0.331 N 
ATOM     12  H42 UNL     1      10.129  25.121  20.231  1.00  0.00     0.178 HD
ATOM     13  H41 UNL     1       8.823  25.912  19.735  1.00  0.00     0.178 HD
ATOM     14  H3  UNL     1      10.003  27.464  21.216  1.00  0.00     0.207 HD
ENDBRANCH   8  10
ENDBRANCH   4   8
BRANCH   7  15
HETATM   15  O3  UNL     1       9.337  26.505  23.840  1.00  0.00    -0.375 OA
BRANCH  15  16
HETATM   16  C7  UNL     1       7.979  26.513  24.092  1.00  0.00     0.125 C 
HETATM   17  C8  UNL     1       7.457  25.260  24.699  1.00  0.00     0.035 C 
HETATM   18  C9  UNL     1       6.237  24.842  23.890  1.00  0.00     0.042 C 
HETATM   19  C10 UNL     1       6.331  25.604  22.588  1.00  0.00     0.086 C 
HETATM   20  C14 UNL     1       7.146  26.843  22.894  1.00  0.00     0.071 C 
BRANCH  19  21
HETATM   21  O4  UNL     1       5.081  25.939  22.086  1.00  0.00    -0.388 OA
ATOM     22  H4  UNL     1       4.941  25.592  21.212  1.00  0.00     0.210 HD
ENDBRANCH  19  21
BRANCH  19  23
HETATM   23  C11 UNL     1       7.083  24.806  21.552  1.00  0.00     0.308 C 
BRANCH  23  24
HETATM   24  N5  UNL     1       6.265  24.390  20.434  1.00  0.00     0.082 N 
HETATM   25  C12 UNL     1       5.834  23.015  20.727  1.00  0.00     0.309 C 
HETATM   26  C13 UNL     1       7.032  24.318  19.199  1.00  0.00     0.309 C 
ENDBRANCH  23  24
ENDBRANCH  19  23
ENDBRANCH  15  16
ENDBRANCH   7  15
BRANCH   5  27
HETATM   27  O1  UNL     1      11.343  30.216  22.643  1.00  0.00    -0.391 OA
ATOM     28  H1  UNL     1      12.175  30.084  23.083  1.00  0.00     0.210 HD
ENDBRANCH   5  27
BRANCH   6  29
HETATM   29  O2  UNL     1       8.911  29.804  23.372  1.00  0.00    -0.390 OA
ATOM     30  H2  UNL     1       7.986  29.631  23.503  1.00  0.00     0.210 HD
ENDBRANCH   6  29
TORSDOF 9
ENDMDL
MODEL 3
REMARK VINA RESULT: -2.192327893      2.655      6.620
REMARK  9 active torsions:
REMARK  status: ('A' for Active; 'I' for Inactive)
REMARK    1  A    between atoms: C3_4  and  N2_5 
REMARK    2  A    between atoms: N2_5  and  N3_7 
REMARK    3  A    between atoms: C4_12  and  O1_13 
REMARK    4  A    between atoms: C5_15  and  O2_16 
REMARK    5  A    between atoms: C6_18  and  O3_19 
REMARK    6  A    between atoms: O3_19  and  C7_20 
REMARK    7  A    between atoms: C10_23  and  O4_24 
REMARK    8  A    between atoms: C10_23  and  C11_26 
REMARK    9  A    between atoms: C11_26  and  N5_27 
ROOT
HETATM    1  C1  UNL     1       3.620  25.195  19.013  1.00  0.00     0.221 C 
HETATM    2  N1  UNL     1       4.718  25.217  19.400  1.00  0.00    -0.461 NA
HETATM    3  C2  UNL     1       6.048  25.251  19.851  1.00  0.00     0.219 C 
HETATM    4  C3  UNL     1       6.746  23.922  19.696  1.00  0.00     0.170 C 
HETATM    5  C4  UNL     1       6.157  23.127  20.832  1.00  0.00     0.176 C 
HETATM    6  C5  UNL     1       6.104  24.120  21.969  1.00  0.00     0.181 C 
HETATM    7  C6  UNL     1       6.087  25.492  21.342  1.00  0.00     0.191 C 
ENDROOT
BRANCH   4   8
HETATM    8  N2  UNL     1       8.154  24.135  19.825  1.00  0.00    -0.312 N 
ATOM      9  H2  UNL     1       8.549  24.210  20.762  1.00  0.00     0.182 HD
BRANCH   8  10
HETATM   10  N3  UNL     1       8.920  24.234  18.848  1.00  0.00    -0.253 N 
HETATM   11  N4  UNL     1       9.266  24.356  17.677  1.00  0.00    -0.331 N 
ATOM     12  H42 UNL     1       8.335  24.404  17.261  1.00  0.00     0.178 HD
ATOM     13  H41 UNL     1       9.893  24.437  16.876  1.00  0.00     0.178 HD
ATOM     14  H3  UNL     1       9.828  24.182  19.310  1.00  0.00     0.207 HD
ENDBRANCH   8  10
ENDBRANCH   4   8
BRANCH   7  15
HETATM   15  O3  UNL     1       7.231  26.160  21.744  1.00  0.00    -0.375 OA
BRANCH  15  16
HETATM   16  C7  UNL     1       7.909  25.533  22.771  1.00  0.00     0.125 C 
HETATM   17  C8  UNL     1       7.425  25.882  24.133  1.00  0.00     0.035 C 
HETATM   18  C9  UNL     1       8.647  26.249  24.964  1.00  0.00     0.042 C 
HETATM   19  C10 UNL     1       9.749  26.526  23.967  1.00  0.00     0.086 C 
HETATM   20  C14 UNL     1       9.390  25.735  22.727  1.00  0.00     0.071 C 
BRANCH  19  21
HETATM   21  O4  UNL     1      10.997  26.158  24.452  1.00  0.00    -0.388 OA
ATOM     22  H4  UNL     1      11.217  25.261  24.230  1.00  0.00     0.210 HD
ENDBRANCH  19  21
BRANCH  19  23
HETATM   23  C11 UNL     1       9.776  27.986  23.587  1.00  0.00     0.308 C 
BRANCH  23  24
HETATM   24  N5  UNL     1      11.092  28.470  23.237  1.00  0.00     0.082 N 
HETATM   25  C12 UNL     1      11.624  29.129  24.438  1.00  0.00     0.309 C 
HETATM   26  C13 UNL     1      11.035  29.495  22.205  1.00  0.00     0.309 C 
ENDBRANCH  23  24
ENDBRANCH  19  23
ENDBRANCH  15  16
ENDBRANCH   7  15
BRANCH   5  27
HETATM   27  O1  UNL     1       4.903  22.657  20.504  1.00  0.00    -0.391 OA
ATOM     28  H1  UNL     1       4.574  22.073  21.177  1.00  0.00     0.210 HD
ENDBRANCH   5  27
BRANCH   6  29
HETATM   29  O2  UNL     1       5.008  23.862  22.774  1.00  0.00    -0.390 OA
ATOM     30  H2  UNL     1       4.433  24.618  22.794  1.00  0.00     0.210 HD
ENDBRANCH   6  29
TORSDOF 9
ENDMDL
MODEL 4
REMARK VINA RESULT: -1.933610506      0.787      1.056
REMARK  9 active torsions:
REMARK  status: ('A' for Active; 'I' for Inactive)
REMARK    1  A    between atoms: C3_4  and  N2_5 
REMARK    2  A    between atoms: N2_5  and  N3_7 
REMARK    3  A    between atoms: C4_12  and  O1_13 
REMARK    4  A    between atoms: C5_15  and  O2_16 
REMARK    5  A    between atoms: C6_18  and  O3_19 
REMARK    6  A    between atoms: O3_19  and  C7_20 
REMARK    7  A    between atoms: C10_23  and  O4_24 
REMARK    8  A    between atoms: C10_23  and  C11_26 
REMARK    9  A    between atoms: C11_26  and  N5_27 
ROOT
HETATM    1  C1  UNL     1      10.518  29.862  22.953  1.00  0.00     0.221 C 
HETATM    2  N1  UNL     1       9.802  28.963  23.133  1.00  0.00    -0.461 NA
HETATM    3  C2  UNL     1       8.928  27.887  23.364  1.00  0.00     0.219 C 
HETATM    4  C3  UNL     1       9.568  26.785  24.174  1.00  0.00     0.170 C 
HETATM    5  C4  UNL     1      10.455  26.123  23.151  1.00  0.00     0.176 C 
HETATM    6  C5  UNL     1       9.603  26.104  21.903  1.00  0.00     0.181 C 
HETATM    7  C6  UNL     1       8.584  27.205  22.060  1.00  0.00     0.191 C 
ENDROOT
BRANCH   4   8
HETATM    8  N2  UNL     1       8.535  25.929  24.665  1.00  0.00    -0.312 N 
ATOM      9  H2  UNL     1       8.745  24.940  24.798  1.00  0.00     0.182 HD
BRANCH   8  10
HETATM   10  N3  UNL     1       7.388  26.333  24.938  1.00  0.00    -0.253 N 
HETATM   11  N4  UNL     1       6.162  26.369  24.942  1.00  0.00    -0.331 N 
ATOM     12  H42 UNL     1       5.997  25.556  24.348  1.00  0.00     0.178 HD
ATOM     13  H41 UNL     1       5.223  26.700  25.166  1.00  0.00     0.178 HD
ATOM     14  H3  UNL     1       7.605  27.138  25.527  1.00  0.00     0.207 HD
ENDBRANCH   8  10
ENDBRANCH   4   8
BRANCH   7  15
HETATM   15  O3  UNL     1       7.326  26.625  22.079  1.00  0.00    -0.375 OA
BRANCH  15  16
HETATM   16  C7  UNL     1       7.116  25.722  21.056  1.00  0.00     0.125 C 
HETATM   17  C8  UNL     1       5.778  25.817  20.414  1.00  0.00     0.035 C 
HETATM   18  C9  UNL     1       5.204  24.408  20.358  1.00  0.00     0.042 C 
HETATM   19  C10 UNL     1       6.014  23.600  21.346  1.00  0.00     0.086 C 
HETATM   20  C14 UNL     1       7.353  24.299  21.451  1.00  0.00     0.071 C 
BRANCH  19  21
HETATM   21  O4  UNL     1       6.169  22.280  20.940  1.00  0.00    -0.388 OA
ATOM     22  H4  UNL     1       6.254  21.687  21.678  1.00  0.00     0.210 HD
ENDBRANCH  19  21
BRANCH  19  23
HETATM   23  C11 UNL     1       5.376  23.625  22.713  1.00  0.00     0.308 C 
BRANCH  23  24
HETATM   24  N5  UNL     1       4.040  24.179  22.719  1.00  0.00     0.082 N 
HETATM   25  C12 UNL     1       3.617  24.223  24.127  1.00  0.00     0.309 C 
HETATM   26  C13 UNL     1       3.090  23.309  22.039  1.00  0.00     0.309 C 
ENDBRANCH  23  24
ENDBRANCH  19  23
ENDBRANCH  15  16
ENDBRANCH   7  15
BRANCH   5  27
HETATM   27  O1  UNL     1      11.615  26.844  22.966  1.00  0.00    -0.391 OA
ATOM     28  H1  UNL     1      12.184  26.415  22.337  1.00  0.00     0.210 HD
ENDBRANCH   5  27
BRANCH   6  29
HETATM   29  O2  UNL     1      10.400  26.240  20.781  1.00  0.00    -0.390 OA
ATOM     30  H2  UNL     1      10.238  25.525  20.177  1.00  0.00     0.210 HD
ENDBRANCH   6  29
TORSDOF 9
ENDMDL
MODEL 5
REMARK VINA RESULT: -1.834315451      2.220      3.826
REMARK  9 active torsions:
REMARK  status: ('A' for Active; 'I' for Inactive)
REMARK    1  A    between atoms: C3_4  and  N2_5 
REMARK    2  A    between atoms: N2_5  and  N3_7 
REMARK    3  A    between atoms: C4_12  and  O1_13 
REMARK    4  A    between atoms: C5_15  and  O2_16 
REMARK    5  A    between atoms: C6_18  and  O3_19 
REMARK    6  A    between atoms: O3_19  and  C7_20 
REMARK    7  A    between atoms: C10_23  and  O4_24 
REMARK    8  A    between atoms: C10_23  and  C11_26 
REMARK    9  A    between atoms: C11_26  and  N5_27 
ROOT
HETATM    1  C1  UNL     1      10.326  25.759  20.363  1.00  0.00     0.221 C 
HETATM    2  N1  UNL     1       9.904  26.492  21.162  1.00  0.00    -0.461 NA
HETATM    3  C2  UNL     1       9.384  27.386  22.113  1.00  0.00     0.219 C 
HETATM    4  C3  UNL     1      10.399  28.412  22.558  1.00  0.00     0.170 C 
HETATM    5  C4  UNL     1      11.273  27.603  23.480  1.00  0.00     0.176 C 
HETATM    6  C5  UNL     1      10.288  26.751  24.246  1.00  0.00     0.181 C 
HETATM    7  C6  UNL     1       9.049  26.653  23.391  1.00  0.00     0.191 C 
ENDROOT
BRANCH   4   8
HETATM    8  N2  UNL     1       9.707  29.473  23.219  1.00  0.00    -0.312 N 
ATOM      9  H2  UNL     1       8.692  29.414  23.300  1.00  0.00     0.182 HD
BRANCH   8  10
HETATM   10  N3  UNL     1      10.284  30.466  23.701  1.00  0.00    -0.253 N 
HETATM   11  N4  UNL     1      11.212  31.177  24.074  1.00  0.00    -0.331 N 
ATOM     12  H42 UNL     1      11.976  30.547  23.830  1.00  0.00     0.178 HD
ATOM     13  H41 UNL     1      11.684  31.990  24.469  1.00  0.00     0.178 HD
ATOM     14  H3  UNL     1       9.485  31.060  23.927  1.00  0.00     0.207 HD
ENDBRANCH   8  10
ENDBRANCH   4   8
BRANCH   7  15
HETATM   15  O3  UNL     1       8.004  27.240  24.083  1.00  0.00    -0.375 OA
BRANCH  15  16
HETATM   16  C7  UNL     1       7.146  26.331  24.671  1.00  0.00     0.125 C 
HETATM   17  C8  UNL     1       7.495  24.906  24.424  1.00  0.00     0.035 C 
HETATM   18  C9  UNL     1       6.225  24.207  23.959  1.00  0.00     0.042 C 
HETATM   19  C10 UNL     1       5.286  25.311  23.531  1.00  0.00     0.086 C 
HETATM   20  C14 UNL     1       5.710  26.538  24.311  1.00  0.00     0.071 C 
BRANCH  19  21
HETATM   21  O4  UNL     1       3.957  24.994  23.781  1.00  0.00    -0.388 OA
ATOM     22  H4  UNL     1       3.547  25.611  24.376  1.00  0.00     0.210 HD
ENDBRANCH  19  21
BRANCH  19  23
HETATM   23  C11 UNL     1       5.453  25.621  22.064  1.00  0.00     0.308 C 
BRANCH  23  24
HETATM   24  N5  UNL     1       5.962  24.510  21.291  1.00  0.00     0.082 N 
HETATM   25  C12 UNL     1       6.734  25.096  20.185  1.00  0.00     0.309 C 
HETATM   26  C13 UNL     1       4.890  23.743  20.673  1.00  0.00     0.309 C 
ENDBRANCH  23  24
ENDBRANCH  19  23
ENDBRANCH  15  16
ENDBRANCH   7  15
BRANCH   5  27
HETATM   27  O1  UNL     1      12.166  26.835  22.765  1.00  0.00    -0.391 OA
ATOM     28  H1  UNL     1      11.939  25.914  22.817  1.00  0.00     0.210 HD
ENDBRANCH   5  27
BRANCH   6  29
HETATM   29  O2  UNL     1      10.854  25.525  24.548  1.00  0.00    -0.390 OA
ATOM     30  H2  UNL     1      10.212  24.963  24.965  1.00  0.00     0.210 HD
ENDBRANCH   6  29
TORSDOF 9
ENDMDL
