MODEL 1
REMARK VINA RESULT: -5.090948401      0.000      0.000
REMARK  7 active torsions:
REMARK  status: ('A' for Active; 'I' for Inactive)
REMARK    1  A    between atoms: C4_4  and  O1_5 
REMARK    2  A    between atoms: C5_7  and  O2_8 
REMARK    3  A    between atoms: C6_10  and  O3_11 
REMARK    4  A    between atoms: O3_11  and  S1_12 
REMARK    5  A    between atoms: S1_12  and  N1_15 
REMARK    6  A    between atoms: N1_15  and  C8_17 
REMARK    7  A    between atoms: C9_19  and  S2_20 
ROOT
HETATM    1  C1  UNL     1       4.938  24.520  20.661  1.00  0.00     0.011 C 
HETATM    2  C2  UNL     1       5.840  24.238  21.873  1.00  0.00     0.001 C 
HETATM    3  C3  UNL     1       5.081  24.246  23.134  1.00  0.00     0.039 C 
HETATM    4  C4  UNL     1       5.348  25.365  24.081  1.00  0.00     0.149 C 
HETATM    5  C5  UNL     1       6.817  25.822  24.031  1.00  0.00     0.178 C 
HETATM    6  C6  UNL     1       7.028  26.322  22.623  1.00  0.00     0.190 C 
HETATM    7  C9  UNL     1       7.070  25.068  21.783  1.00  0.00     0.096 C 
ENDROOT
BRANCH   6   8
HETATM    8  O3  UNL     1       8.043  27.171  22.428  1.00  0.00    -0.250 OA
BRANCH   8   9
HETATM    9  S1  UNL     1       9.581  26.802  22.601  1.00  0.00     0.366 S 
HETATM   10  O4  UNL     1      10.245  26.485  21.258  1.00  0.00    -0.175 OA
HETATM   11  O5  UNL     1       9.924  25.670  23.520  1.00  0.00    -0.175 OA
BRANCH   9  12
HETATM   12  N1  UNL     1      10.436  28.167  23.214  1.00  0.00    -0.234 N 
HETATM   13  C7  UNL     1      10.389  29.459  22.563  1.00  0.00     0.174 C 
BRANCH  12  14
HETATM   14  C8  UNL     1      11.204  27.999  24.393  1.00  0.00     0.366 C 
HETATM   15  O6  UNL     1      12.353  27.510  24.433  1.00  0.00    -0.283 OA
ENDBRANCH  12  14
ENDBRANCH   9  12
ENDBRANCH   8   9
ENDBRANCH   6   8
BRANCH   5  16
HETATM   16  O2  UNL     1       7.549  24.654  24.233  1.00  0.00    -0.390 OA
ATOM     17  H2  UNL     1       8.295  24.930  24.752  1.00  0.00     0.210 HD
ENDBRANCH   5  16
BRANCH   7  18
HETATM   18  S2  UNL     1       7.505  25.369  20.056  1.00  0.00    -0.077 SA
HETATM   19  S3  UNL     1       7.401  23.509  19.028  1.00  0.00    -0.013 SA
ENDBRANCH   7  18
BRANCH   4  20
HETATM   20  O1  UNL     1       4.561  26.474  23.749  1.00  0.00    -0.393 OA
ATOM     21  H1  UNL     1       5.114  27.194  23.470  1.00  0.00     0.210 HD
ENDBRANCH   4  20
TORSDOF 7
ENDMDL
MODEL 2
REMARK VINA RESULT: -4.807641737      1.369      1.723
REMARK  7 active torsions:
REMARK  status: ('A' for Active; 'I' for Inactive)
REMARK    1  A    between atoms: C4_4  and  O1_5 
REMARK    2  A    between atoms: C5_7  and  O2_8 
REMARK    3  A    between atoms: C6_10  and  O3_11 
REMARK    4  A    between atoms: O3_11  and  S1_12 
REMARK    5  A    between atoms: S1_12  and  N1_15 
REMARK    6  A    between atoms: N1_15  and  C8_17 
REMARK    7  A    between atoms: C9_19  and  S2_20 
ROOT
HETATM    1  C1  UNL     1       4.695  24.962  19.855  1.00  0.00     0.011 C 
HETATM    2  C2  UNL     1       5.194  23.995  20.940  1.00  0.00     0.001 C 
HETATM    3  C3  UNL     1       4.229  23.867  22.044  1.00  0.00     0.039 C 
HETATM    4  C4  UNL     1       4.623  24.440  23.362  1.00  0.00     0.149 C 
HETATM    5  C5  UNL     1       6.139  24.325  23.608  1.00  0.00     0.178 C 
HETATM    6  C6  UNL     1       6.781  25.144  22.515  1.00  0.00     0.190 C 
HETATM    7  C9  UNL     1       6.610  24.306  21.271  1.00  0.00     0.096 C 
ENDROOT
BRANCH   6   8
HETATM    8  O3  UNL     1       8.024  25.582  22.738  1.00  0.00    -0.250 OA
BRANCH   8   9
HETATM    9  S1  UNL     1       8.500  26.329  24.062  1.00  0.00     0.366 S 
HETATM   10  O4  UNL     1       9.116  25.358  25.072  1.00  0.00    -0.175 OA
HETATM   11  O5  UNL     1       7.479  27.130  24.811  1.00  0.00    -0.175 OA
BRANCH   9  12
HETATM   12  N1  UNL     1       9.761  27.437  23.676  1.00  0.00    -0.234 N 
HETATM   13  C7  UNL     1       9.501  28.698  23.013  1.00  0.00     0.174 C 
BRANCH  12  14
HETATM   14  C8  UNL     1      11.089  27.086  24.024  1.00  0.00     0.366 C 
HETATM   15  O6  UNL     1      12.056  27.076  23.233  1.00  0.00    -0.283 OA
ENDBRANCH  12  14
ENDBRANCH   9  12
ENDBRANCH   8   9
ENDBRANCH   6   8
BRANCH   5  16
HETATM   16  O2  UNL     1       6.418  22.974  23.414  1.00  0.00    -0.390 OA
ATOM     17  H2  UNL     1       6.078  22.549  24.193  1.00  0.00     0.210 HD
ENDBRANCH   5  16
BRANCH   7  18
HETATM   18  S2  UNL     1       7.465  24.973  19.827  1.00  0.00    -0.077 SA
HETATM   19  S3  UNL     1       7.186  23.606  18.220  1.00  0.00    -0.013 SA
ENDBRANCH   7  18
BRANCH   4  20
HETATM   20  O1  UNL     1       4.302  25.801  23.410  1.00  0.00    -0.393 OA
ATOM     21  H1  UNL     1       3.537  25.937  23.955  1.00  0.00     0.210 HD
ENDBRANCH   4  20
TORSDOF 7
ENDMDL
MODEL 3
REMARK VINA RESULT: -4.765748185      1.474      1.775
REMARK  7 active torsions:
REMARK  status: ('A' for Active; 'I' for Inactive)
REMARK    1  A    between atoms: C4_4  and  O1_5 
REMARK    2  A    between atoms: C5_7  and  O2_8 
REMARK    3  A    between atoms: C6_10  and  O3_11 
REMARK    4  A    between atoms: O3_11  and  S1_12 
REMARK    5  A    between atoms: S1_12  and  N1_15 
REMARK    6  A    between atoms: N1_15  and  C8_17 
REMARK    7  A    between atoms: C9_19  and  S2_20 
ROOT
HETATM    1  C1  UNL     1       3.575  24.158  20.646  1.00  0.00     0.011 C 
HETATM    2  C2  UNL     1       4.606  23.645  21.663  1.00  0.00     0.001 C 
HETATM    3  C3  UNL     1       4.097  23.717  23.041  1.00  0.00     0.039 C 
HETATM    4  C4  UNL     1       4.734  24.712  23.951  1.00  0.00     0.149 C 
HETATM    5  C5  UNL     1       6.231  24.896  23.642  1.00  0.00     0.178 C 
HETATM    6  C6  UNL     1       6.281  25.432  22.231  1.00  0.00     0.190 C 
HETATM    7  C9  UNL     1       5.935  24.243  21.367  1.00  0.00     0.096 C 
ENDROOT
BRANCH   6   8
HETATM    8  O3  UNL     1       7.387  26.092  21.874  1.00  0.00    -0.250 OA
BRANCH   8   9
HETATM    9  S1  UNL     1       8.471  26.665  22.889  1.00  0.00     0.366 S 
HETATM   10  O4  UNL     1       8.760  25.683  24.027  1.00  0.00    -0.175 OA
HETATM   11  O5  UNL     1       8.188  27.988  23.533  1.00  0.00    -0.175 OA
BRANCH   9  12
HETATM   12  N1  UNL     1       9.976  26.864  22.074  1.00  0.00    -0.234 N 
HETATM   13  C7  UNL     1      10.208  26.332  20.748  1.00  0.00     0.174 C 
BRANCH  12  14
HETATM   14  C8  UNL     1      11.008  27.572  22.739  1.00  0.00     0.366 C 
HETATM   15  O6  UNL     1      11.818  27.065  23.543  1.00  0.00    -0.283 OA
ENDBRANCH  12  14
ENDBRANCH   9  12
ENDBRANCH   8   9
ENDBRANCH   6   8
BRANCH   5  16
HETATM   16  O2  UNL     1       6.752  23.604  23.676  1.00  0.00    -0.390 OA
ATOM     17  H2  UNL     1       7.658  23.709  23.409  1.00  0.00     0.210 HD
ENDBRANCH   5  16
BRANCH   7  18
HETATM   18  S2  UNL     1       6.108  24.561  19.598  1.00  0.00    -0.077 SA
HETATM   19  S3  UNL     1       8.116  24.118  19.053  1.00  0.00    -0.013 SA
ENDBRANCH   7  18
BRANCH   4  20
HETATM   20  O1  UNL     1       4.126  25.962  23.797  1.00  0.00    -0.393 OA
ATOM     21  H1  UNL     1       4.621  26.492  23.184  1.00  0.00     0.210 HD
ENDBRANCH   4  20
TORSDOF 7
ENDMDL
MODEL 4
REMARK VINA RESULT: -4.747677983      1.564      2.017
REMARK  7 active torsions:
REMARK  status: ('A' for Active; 'I' for Inactive)
REMARK    1  A    between atoms: C4_4  and  O1_5 
REMARK    2  A    between atoms: C5_7  and  O2_8 
REMARK    3  A    between atoms: C6_10  and  O3_11 
REMARK    4  A    between atoms: O3_11  and  S1_12 
REMARK    5  A    between atoms: S1_12  and  N1_15 
REMARK    6  A    between atoms: N1_15  and  C8_17 
REMARK    7  A    between atoms: C9_19  and  S2_20 
ROOT
HETATM    1  C1  UNL     1       4.687  24.937  19.850  1.00  0.00     0.011 C 
HETATM    2  C2  UNL     1       5.197  23.975  20.935  1.00  0.00     0.001 C 
HETATM    3  C3  UNL     1       4.238  23.844  22.043  1.00  0.00     0.039 C 
HETATM    4  C4  UNL     1       4.635  24.423  23.359  1.00  0.00     0.149 C 
HETATM    5  C5  UNL     1       6.152  24.317  23.598  1.00  0.00     0.178 C 
HETATM    6  C6  UNL     1       6.784  25.137  22.500  1.00  0.00     0.190 C 
HETATM    7  C9  UNL     1       6.612  24.295  21.258  1.00  0.00     0.096 C 
ENDROOT
BRANCH   6   8
HETATM    8  O3  UNL     1       8.026  25.583  22.717  1.00  0.00    -0.250 OA
BRANCH   8   9
HETATM    9  S1  UNL     1       8.507  26.322  24.043  1.00  0.00     0.366 S 
HETATM   10  O4  UNL     1       9.134  25.346  25.042  1.00  0.00    -0.175 OA
HETATM   11  O5  UNL     1       7.488  27.113  24.804  1.00  0.00    -0.175 OA
BRANCH   9  12
HETATM   12  N1  UNL     1       9.761  27.438  23.657  1.00  0.00    -0.234 N 
HETATM   13  C7  UNL     1      11.150  27.174  23.970  1.00  0.00     0.174 C 
BRANCH  12  14
HETATM   14  C8  UNL     1       9.403  28.649  23.014  1.00  0.00     0.366 C 
HETATM   15  O6  UNL     1      10.214  29.476  22.545  1.00  0.00    -0.283 OA
ENDBRANCH  12  14
ENDBRANCH   9  12
ENDBRANCH   8   9
ENDBRANCH   6   8
BRANCH   5  16
HETATM   16  O2  UNL     1       6.438  22.967  23.405  1.00  0.00    -0.390 OA
ATOM     17  H2  UNL     1       7.176  22.798  23.980  1.00  0.00     0.210 HD
ENDBRANCH   5  16
BRANCH   7  18
HETATM   18  S2  UNL     1       7.457  24.964  19.809  1.00  0.00    -0.077 SA
HETATM   19  S3  UNL     1       7.116  23.630  18.187  1.00  0.00    -0.013 SA
ENDBRANCH   7  18
BRANCH   4  20
HETATM   20  O1  UNL     1       4.306  25.782  23.404  1.00  0.00    -0.393 OA
ATOM     21  H1  UNL     1       4.375  26.164  22.537  1.00  0.00     0.210 HD
ENDBRANCH   4  20
TORSDOF 7
ENDMDL
MODEL 5
REMARK VINA RESULT: -4.558961875      0.815      1.215
REMARK  7 active torsions:
REMARK  status: ('A' for Active; 'I' for Inactive)
REMARK    1  A    between atoms: C4_4  and  O1_5 
REMARK    2  A    between atoms: C5_7  and  O2_8 
REMARK    3  A    between atoms: C6_10  and  O3_11 
REMARK    4  A    between atoms: O3_11  and  S1_12 
REMARK    5  A    between atoms: S1_12  and  N1_15 
REMARK    6  A    between atoms: N1_15  and  C8_17 
REMARK    7  A    between atoms: C9_19  and  S2_20 
ROOT
HETATM    1  C1  UNL     1       5.154  24.684  20.574  1.00  0.00     0.011 C 
HETATM    2  C2  UNL     1       5.994  24.334  21.813  1.00  0.00     0.001 C 
HETATM    3  C3  UNL     1       5.178  24.305  23.037  1.00  0.00     0.039 C 
HETATM    4  C4  UNL     1       5.420  25.379  24.042  1.00  0.00     0.149 C 
HETATM    5  C5  UNL     1       6.897  25.809  24.077  1.00  0.00     0.178 C 
HETATM    6  C6  UNL     1       7.182  26.362  22.702  1.00  0.00     0.190 C 
HETATM    7  C9  UNL     1       7.241  25.144  21.813  1.00  0.00     0.096 C 
ENDROOT
BRANCH   6   8
HETATM    8  O3  UNL     1       8.219  27.199  22.590  1.00  0.00    -0.250 OA
BRANCH   8   9
HETATM    9  S1  UNL     1       9.744  26.784  22.778  1.00  0.00     0.366 S 
HETATM   10  O4  UNL     1      10.404  26.421  21.446  1.00  0.00    -0.175 OA
HETATM   11  O5  UNL     1      10.046  25.660  23.721  1.00  0.00    -0.175 OA
BRANCH   9  12
HETATM   12  N1  UNL     1      10.639  28.133  23.370  1.00  0.00    -0.234 N 
HETATM   13  C7  UNL     1      11.641  27.997  24.406  1.00  0.00     0.174 C 
BRANCH  12  14
HETATM   14  C8  UNL     1      10.370  29.409  22.814  1.00  0.00     0.366 C 
HETATM   15  O6  UNL     1      10.815  29.819  21.720  1.00  0.00    -0.283 OA
ENDBRANCH  12  14
ENDBRANCH   9  12
ENDBRANCH   8   9
ENDBRANCH   6   8
BRANCH   5  16
HETATM   16  O2  UNL     1       7.599  24.619  24.263  1.00  0.00    -0.390 OA
ATOM     17  H2  UNL     1       7.493  24.153  23.441  1.00  0.00     0.210 HD
ENDBRANCH   5  16
BRANCH   7  18
HETATM   18  S2  UNL     1       7.760  25.508  20.122  1.00  0.00    -0.077 SA
HETATM   19  S3  UNL     1       7.603  23.709  18.995  1.00  0.00    -0.013 SA
ENDBRANCH   7  18
BRANCH   4  20
HETATM   20  O1  UNL     1       4.669  26.515  23.722  1.00  0.00    -0.393 OA
ATOM     21  H1  UNL     1       4.719  27.148  24.428  1.00  0.00     0.210 HD
ENDBRANCH   4  20
TORSDOF 7
ENDMDL
