MODEL 1
REMARK VINA RESULT: -6.716594982      0.000      0.000
REMARK  8 active torsions:
REMARK  status: ('A' for Active; 'I' for Inactive)
REMARK    1  A    between atoms: N1_2  and  S1_4 
REMARK    2  A    between atoms: S1_4  and  O3_7 
REMARK    3  A    between atoms: O3_7  and  C2_8 
REMARK    4  A    between atoms: C2_8  and  C3_9 
REMARK    5  A    between atoms: C4_11  and  O5_12 
REMARK    6  A    between atoms: O5_12  and  C5_13 
REMARK    7  A    between atoms: C12_20  and  O6_21 
REMARK    8  A    between atoms: C13_23  and  O7_24 
ROOT
HETATM    1  C3  UNL     1       6.742  25.515  23.341  1.00  0.00     0.181 C 
HETATM    2  O4  UNL     1       6.917  24.268  22.886  1.00  0.00    -0.348 OA
HETATM    3  C4  UNL     1       5.619  23.704  22.734  1.00  0.00     0.292 C 
HETATM    4  C12 UNL     1       4.983  24.201  24.023  1.00  0.00     0.204 C 
HETATM    5  C13 UNL     1       5.306  25.696  23.806  1.00  0.00     0.182 C 
ENDROOT
BRANCH   1   6
HETATM    6  C2  UNL     1       7.608  25.953  24.500  1.00  0.00     0.226 C 
BRANCH   6   7
HETATM    7  O3  UNL     1       8.242  27.154  24.184  1.00  0.00    -0.257 OA
BRANCH   7   8
HETATM    8  S1  UNL     1       9.795  26.884  23.622  1.00  0.00     0.357 S 
HETATM    9  O1  UNL     1       9.593  26.884  22.082  1.00  0.00    -0.176 OA
HETATM   10  O2  UNL     1      10.432  25.636  23.986  1.00  0.00    -0.176 OA
BRANCH   8  11
HETATM   11  N1  UNL     1      10.818  28.255  23.915  1.00  0.00    -0.301 N 
HETATM   12  C1  UNL     1      10.848  29.132  22.766  1.00  0.00     0.161 C 
ATOM     13  H1  UNL     1      11.331  28.420  24.782  1.00  0.00     0.173 HD
ENDBRANCH   8  11
ENDBRANCH   7   8
ENDBRANCH   6   7
ENDBRANCH   1   6
BRANCH   5  14
HETATM   14  O7  UNL     1       5.183  26.448  24.939  1.00  0.00    -0.390 OA
ATOM     15  H7  UNL     1       4.306  26.783  25.085  1.00  0.00     0.210 HD
ENDBRANCH   5  14
BRANCH   3  16
HETATM   16  O5  UNL     1       4.986  24.371  21.718  1.00  0.00    -0.353 OA
BRANCH  16  17
HETATM   17  C5  UNL     1       5.162  23.846  20.464  1.00  0.00     0.129 C 
HETATM   18  C6  UNL     1       6.440  23.045  20.427  1.00  0.00     0.037 C 
HETATM   19  C7  UNL     1       7.457  23.836  19.638  1.00  0.00    -0.012 C 
HETATM   20  C8  UNL     1       7.117  23.712  18.177  1.00  0.00     0.005 C 
HETATM   21  C11 UNL     1       6.944  25.258  19.905  1.00  0.00     0.012 C 
HETATM   22  C9  UNL     1       5.724  24.342  18.143  1.00  0.00     0.007 C 
HETATM   23  C10 UNL     1       5.525  24.983  19.476  1.00  0.00     0.015 C 
ENDBRANCH  16  17
ENDBRANCH   3  16
BRANCH   4  24
HETATM   24  O6  UNL     1       3.633  23.968  24.066  1.00  0.00    -0.388 OA
ATOM     25  H6  UNL     1       3.148  24.536  23.478  1.00  0.00     0.210 HD
ENDBRANCH   4  24
TORSDOF 8
ENDMDL
MODEL 2
REMARK VINA RESULT: -6.696296348      2.733      5.387
REMARK  8 active torsions:
REMARK  status: ('A' for Active; 'I' for Inactive)
REMARK    1  A    between atoms: N1_2  and  S1_4 
REMARK    2  A    between atoms: S1_4  and  O3_7 
REMARK    3  A    between atoms: O3_7  and  C2_8 
REMARK    4  A    between atoms: C2_8  and  C3_9 
REMARK    5  A    between atoms: C4_11  and  O5_12 
REMARK    6  A    between atoms: O5_12  and  C5_13 
REMARK    7  A    between atoms: C12_20  and  O6_21 
REMARK    8  A    between atoms: C13_23  and  O7_24 
ROOT
HETATM    1  C3  UNL     1       6.375  24.361  22.039  1.00  0.00     0.181 C 
HETATM    2  O4  UNL     1       6.711  25.628  21.768  1.00  0.00    -0.348 OA
HETATM    3  C4  UNL     1       6.811  26.301  23.018  1.00  0.00     0.292 C 
HETATM    4  C12 UNL     1       5.575  25.736  23.700  1.00  0.00     0.204 C 
HETATM    5  C13 UNL     1       5.931  24.247  23.490  1.00  0.00     0.182 C 
ENDROOT
BRANCH   1   6
HETATM    6  C2  UNL     1       5.261  23.752  21.219  1.00  0.00     0.226 C 
BRANCH   6   7
HETATM    7  O3  UNL     1       5.803  22.966  20.203  1.00  0.00    -0.257 OA
BRANCH   7   8
HETATM    8  S1  UNL     1       6.367  23.915  18.945  1.00  0.00     0.357 S 
HETATM    9  O1  UNL     1       5.316  25.058  18.899  1.00  0.00    -0.176 OA
HETATM   10  O2  UNL     1       6.430  23.316  17.629  1.00  0.00    -0.176 OA
BRANCH   8  11
HETATM   11  N1  UNL     1       7.845  24.717  19.374  1.00  0.00    -0.301 N 
HETATM   12  C1  UNL     1       8.928  24.300  18.512  1.00  0.00     0.161 C 
ATOM     13  H1  UNL     1       7.938  25.392  20.134  1.00  0.00     0.173 HD
ENDBRANCH   8  11
ENDBRANCH   7   8
ENDBRANCH   6   7
ENDBRANCH   1   6
BRANCH   5  14
HETATM   14  O7  UNL     1       4.873  23.404  23.678  1.00  0.00    -0.390 OA
ATOM     15  H7  UNL     1       4.649  23.268  24.591  1.00  0.00     0.210 HD
ENDBRANCH   5  14
BRANCH   3  16
HETATM   16  O5  UNL     1       7.886  25.782  23.691  1.00  0.00    -0.353 OA
BRANCH  16  17
HETATM   17  C5  UNL     1       8.804  26.696  24.137  1.00  0.00     0.129 C 
HETATM   18  C6  UNL     1       8.626  27.996  23.392  1.00  0.00     0.037 C 
HETATM   19  C7  UNL     1       9.778  28.134  22.425  1.00  0.00    -0.012 C 
HETATM   20  C8  UNL     1      11.002  28.534  23.207  1.00  0.00     0.005 C 
HETATM   21  C11 UNL     1      10.096  26.651  22.186  1.00  0.00     0.012 C 
HETATM   22  C9  UNL     1      11.158  27.336  24.144  1.00  0.00     0.007 C 
HETATM   23  C10 UNL     1      10.216  26.292  23.645  1.00  0.00     0.015 C 
ENDBRANCH  16  17
ENDBRANCH   3  16
BRANCH   4  24
HETATM   24  O6  UNL     1       5.512  26.065  25.029  1.00  0.00    -0.388 OA
ATOM     25  H6  UNL     1       5.746  26.972  25.190  1.00  0.00     0.210 HD
ENDBRANCH   4  24
TORSDOF 8
ENDMDL
MODEL 3
REMARK VINA RESULT: -5.356654590      2.736      6.105
REMARK  8 active torsions:
REMARK  status: ('A' for Active; 'I' for Inactive)
REMARK    1  A    between atoms: N1_2  and  S1_4 
REMARK    2  A    between atoms: S1_4  and  O3_7 
REMARK    3  A    between atoms: O3_7  and  C2_8 
REMARK    4  A    between atoms: C2_8  and  C3_9 
REMARK    5  A    between atoms: C4_11  and  O5_12 
REMARK    6  A    between atoms: O5_12  and  C5_13 
REMARK    7  A    between atoms: C12_20  and  O6_21 
REMARK    8  A    between atoms: C13_23  and  O7_24 
ROOT
HETATM    1  C3  UNL     1       7.226  25.721  21.972  1.00  0.00     0.181 C 
HETATM    2  O4  UNL     1       7.456  27.029  22.135  1.00  0.00    -0.348 OA
HETATM    3  C4  UNL     1       8.014  27.187  23.435  1.00  0.00     0.292 C 
HETATM    4  C12 UNL     1       7.104  26.244  24.207  1.00  0.00     0.204 C 
HETATM    5  C13 UNL     1       7.340  25.009  23.310  1.00  0.00     0.182 C 
ENDROOT
BRANCH   1   6
HETATM    6  C2  UNL     1       5.882  25.322  21.407  1.00  0.00     0.226 C 
BRANCH   6   7
HETATM    7  O3  UNL     1       5.930  25.355  20.014  1.00  0.00    -0.257 OA
BRANCH   7   8
HETATM    8  S1  UNL     1       6.296  23.845  19.390  1.00  0.00     0.357 S 
HETATM    9  O1  UNL     1       5.745  23.945  17.941  1.00  0.00    -0.176 OA
HETATM   10  O2  UNL     1       5.684  22.694  20.019  1.00  0.00    -0.176 OA
BRANCH   8  11
HETATM   11  N1  UNL     1       8.007  23.648  19.180  1.00  0.00    -0.301 N 
HETATM   12  C1  UNL     1       8.428  24.135  17.886  1.00  0.00     0.161 C 
ATOM     13  H1  UNL     1       8.632  23.242  19.877  1.00  0.00     0.173 HD
ENDBRANCH   8  11
ENDBRANCH   7   8
ENDBRANCH   6   7
ENDBRANCH   1   6
BRANCH   5  14
HETATM   14  O7  UNL     1       6.414  24.022  23.491  1.00  0.00    -0.390 OA
ATOM     15  H7  UNL     1       5.544  24.252  23.188  1.00  0.00     0.210 HD
ENDBRANCH   5  14
BRANCH   3  16
HETATM   16  O5  UNL     1       9.253  26.603  23.435  1.00  0.00    -0.353 OA
BRANCH  16  17
HETATM   17  C5  UNL     1      10.208  27.237  24.187  1.00  0.00     0.129 C 
HETATM   18  C6  UNL     1       9.944  28.722  24.188  1.00  0.00     0.037 C 
HETATM   19  C7  UNL     1      10.988  29.377  23.314  1.00  0.00    -0.012 C 
HETATM   20  C8  UNL     1      12.284  29.417  24.079  1.00  0.00     0.005 C 
HETATM   21  C11 UNL     1      11.287  28.216  22.355  1.00  0.00     0.012 C 
HETATM   22  C9  UNL     1      12.546  27.925  24.295  1.00  0.00     0.007 C 
HETATM   23  C10 UNL     1      11.562  27.203  23.436  1.00  0.00     0.015 C 
ENDBRANCH  16  17
ENDBRANCH   3  16
BRANCH   4  24
HETATM   24  O6  UNL     1       7.535  26.035  25.492  1.00  0.00    -0.388 OA
ATOM     25  H6  UNL     1       6.913  26.346  26.139  1.00  0.00     0.210 HD
ENDBRANCH   4  24
TORSDOF 8
ENDMDL
MODEL 4
REMARK VINA RESULT: -5.118163395      2.941      5.498
REMARK  8 active torsions:
REMARK  status: ('A' for Active; 'I' for Inactive)
REMARK    1  A    between atoms: N1_2  and  S1_4 
REMARK    2  A    between atoms: S1_4  and  O3_7 
REMARK    3  A    between atoms: O3_7  and  C2_8 
REMARK    4  A    between atoms: C2_8  and  C3_9 
REMARK    5  A    between atoms: C4_11  and  O5_12 
REMARK    6  A    between atoms: O5_12  and  C5_13 
REMARK    7  A    between atoms: C12_20  and  O6_21 
REMARK    8  A    between atoms: C13_23  and  O7_24 
ROOT
HETATM    1  C3  UNL     1       6.636  25.107  21.226  1.00  0.00     0.181 C 
HETATM    2  O4  UNL     1       6.829  26.415  21.433  1.00  0.00    -0.348 OA
HETATM    3  C4  UNL     1       6.977  26.588  22.838  1.00  0.00     0.292 C 
HETATM    4  C12 UNL     1       5.862  25.670  23.316  1.00  0.00     0.204 C 
HETATM    5  C13 UNL     1       6.333  24.416  22.547  1.00  0.00     0.182 C 
ENDROOT
BRANCH   1   6
HETATM    6  C2  UNL     1       5.514  24.716  20.291  1.00  0.00     0.226 C 
BRANCH   6   7
HETATM    7  O3  UNL     1       5.933  24.863  18.969  1.00  0.00    -0.257 OA
BRANCH   7   8
HETATM    8  S1  UNL     1       7.110  23.737  18.583  1.00  0.00     0.357 S 
HETATM    9  O1  UNL     1       6.602  23.183  17.224  1.00  0.00    -0.176 OA
HETATM   10  O2  UNL     1       7.286  22.616  19.482  1.00  0.00    -0.176 OA
BRANCH   8  11
HETATM   11  N1  UNL     1       8.614  24.509  18.190  1.00  0.00    -0.301 N 
HETATM   12  C1  UNL     1       9.335  24.877  19.389  1.00  0.00     0.161 C 
ATOM     13  H1  UNL     1       8.945  24.680  17.241  1.00  0.00     0.173 HD
ENDBRANCH   8  11
ENDBRANCH   7   8
ENDBRANCH   6   7
ENDBRANCH   1   6
BRANCH   5  14
HETATM   14  O7  UNL     1       5.377  23.445  22.455  1.00  0.00    -0.390 OA
ATOM     15  H7  UNL     1       4.522  23.718  22.764  1.00  0.00     0.210 HD
ENDBRANCH   5  14
BRANCH   3  16
HETATM   16  O5  UNL     1       8.149  25.988  23.216  1.00  0.00    -0.353 OA
BRANCH  16  17
HETATM   17  C5  UNL     1       9.038  26.789  23.886  1.00  0.00     0.129 C 
HETATM   18  C6  UNL     1       8.890  28.213  23.411  1.00  0.00     0.037 C 
HETATM   19  C7  UNL     1      10.090  28.540  22.555  1.00  0.00    -0.012 C 
HETATM   20  C8  UNL     1      11.268  28.769  23.464  1.00  0.00     0.005 C 
HETATM   21  C11 UNL     1      10.429  27.135  22.036  1.00  0.00     0.012 C 
HETATM   22  C9  UNL     1      11.383  27.404  24.146  1.00  0.00     0.007 C 
HETATM   23  C10 UNL     1      10.475  26.487  23.396  1.00  0.00     0.015 C 
ENDBRANCH  16  17
ENDBRANCH   3  16
BRANCH   4  24
HETATM   24  O6  UNL     1       5.887  25.479  24.674  1.00  0.00    -0.388 OA
ATOM     25  H6  UNL     1       6.764  25.320  25.002  1.00  0.00     0.210 HD
ENDBRANCH   4  24
TORSDOF 8
ENDMDL
MODEL 5
REMARK VINA RESULT: -4.714475476      0.706      1.273
REMARK  8 active torsions:
REMARK  status: ('A' for Active; 'I' for Inactive)
REMARK    1  A    between atoms: N1_2  and  S1_4 
REMARK    2  A    between atoms: S1_4  and  O3_7 
REMARK    3  A    between atoms: O3_7  and  C2_8 
REMARK    4  A    between atoms: C2_8  and  C3_9 
REMARK    5  A    between atoms: C4_11  and  O5_12 
REMARK    6  A    between atoms: O5_12  and  C5_13 
REMARK    7  A    between atoms: C12_20  and  O6_21 
REMARK    8  A    between atoms: C13_23  and  O7_24 
ROOT
HETATM    1  C3  UNL     1       7.017  25.910  23.164  1.00  0.00     0.181 C 
HETATM    2  O4  UNL     1       7.445  24.783  22.584  1.00  0.00    -0.348 OA
HETATM    3  C4  UNL     1       6.286  24.019  22.270  1.00  0.00     0.292 C 
HETATM    4  C12 UNL     1       5.500  24.227  23.555  1.00  0.00     0.204 C 
HETATM    5  C13 UNL     1       5.548  25.771  23.536  1.00  0.00     0.182 C 
ENDROOT
BRANCH   1   6
HETATM    6  C2  UNL     1       7.721  26.346  24.429  1.00  0.00     0.226 C 
BRANCH   6   7
HETATM    7  O3  UNL     1       8.500  27.472  24.167  1.00  0.00    -0.257 OA
BRANCH   7   8
HETATM    8  S1  UNL     1      10.017  27.037  23.609  1.00  0.00     0.357 S 
HETATM    9  O1  UNL     1       9.806  27.011  22.070  1.00  0.00    -0.176 OA
HETATM   10  O2  UNL     1      10.534  25.745  24.008  1.00  0.00    -0.176 OA
BRANCH   8  11
HETATM   11  N1  UNL     1      11.169  28.312  23.857  1.00  0.00    -0.301 N 
HETATM   12  C1  UNL     1      10.911  29.421  22.966  1.00  0.00     0.161 C 
ATOM     13  H1  UNL     1      11.926  28.282  24.540  1.00  0.00     0.173 HD
ENDBRANCH   8  11
ENDBRANCH   7   8
ENDBRANCH   6   7
ENDBRANCH   1   6
BRANCH   5  14
HETATM   14  O7  UNL     1       5.226  26.339  24.735  1.00  0.00    -0.390 OA
ATOM     15  H7  UNL     1       4.624  27.069  24.664  1.00  0.00     0.210 HD
ENDBRANCH   5  14
BRANCH   3  16
HETATM   16  O5  UNL     1       5.596  24.685  21.291  1.00  0.00    -0.353 OA
BRANCH  16  17
HETATM   17  C5  UNL     1       6.339  25.098  20.216  1.00  0.00     0.129 C 
HETATM   18  C6  UNL     1       5.564  24.854  18.945  1.00  0.00     0.037 C 
HETATM   19  C7  UNL     1       6.201  23.683  18.235  1.00  0.00    -0.012 C 
HETATM   20  C8  UNL     1       7.473  24.160  17.588  1.00  0.00     0.005 C 
HETATM   21  C11 UNL     1       6.786  22.935  19.441  1.00  0.00     0.012 C 
HETATM   22  C9  UNL     1       8.273  24.615  18.810  1.00  0.00     0.007 C 
HETATM   23  C10 UNL     1       7.524  24.123  20.003  1.00  0.00     0.015 C 
ENDBRANCH  16  17
ENDBRANCH   3  16
BRANCH   4  24
HETATM   24  O6  UNL     1       4.217  23.752  23.467  1.00  0.00    -0.388 OA
ATOM     25  H6  UNL     1       4.026  23.096  24.127  1.00  0.00     0.210 HD
ENDBRANCH   4  24
TORSDOF 8
ENDMDL
