MODEL 1
REMARK VINA RESULT: -5.467007082      0.000      0.000
REMARK  11 active torsions:
REMARK  status: ('A' for Active; 'I' for Inactive)
REMARK    1  A    between atoms: S1_2  and  O3_5 
REMARK    2  A    between atoms: O3_5  and  C2_6 
REMARK    3  A    between atoms: C2_6  and  C3_7 
REMARK    4  A    between atoms: C5_10  and  C6_11 
REMARK    5  A    between atoms: C6_11  and  C7_12 
REMARK    6  A    between atoms: C8_13  and  C9_14 
REMARK    7  A    between atoms: C10_15  and  C11_16 
REMARK    8  A    between atoms: C11_16  and  C12_17 
REMARK    9  A    between atoms: C12_17  and  O5_18 
REMARK   10  A    between atoms: C13_20  and  O6_21 
REMARK   11  A    between atoms: C14_23  and  O7_24 
ROOT
HETATM    1  C3  UNL     1       8.025  25.696  22.626  1.00  0.00     0.066 C 
HETATM    2  C4  UNL     1       8.832  26.086  21.405  1.00  0.00     0.177 C 
HETATM    3  O4  UNL     1       9.696  27.154  21.693  1.00  0.00    -0.382 OA
HETATM    4  C5  UNL     1      10.570  26.820  22.728  1.00  0.00     0.156 C 
HETATM    5  C13 UNL     1       9.801  26.644  24.009  1.00  0.00     0.176 C 
HETATM    6  C14 UNL     1       8.311  26.696  23.719  1.00  0.00     0.157 C 
ENDROOT
BRANCH   4   7
HETATM    7  C6  UNL     1      11.532  28.005  22.860  1.00  0.00     0.062 C 
BRANCH   7   8
HETATM    8  C7  UNL     1      11.123  28.905  23.967  1.00  0.00    -0.015 C 
HETATM    9  C8  UNL     1      12.032  29.612  24.607  1.00  0.00     0.060 C 
BRANCH   9  10
HETATM   10  C9  UNL     1      11.585  30.467  25.670  1.00  0.00    -0.079 C 
HETATM   11  C10 UNL     1      11.203  31.200  26.552  1.00  0.00    -0.100 C 
BRANCH  11  12
HETATM   12  C11 UNL     1      10.737  32.107  27.603  1.00  0.00     0.120 C 
BRANCH  12  13
HETATM   13  C12 UNL     1       9.698  33.085  27.033  1.00  0.00     0.176 C 
BRANCH  13  14
HETATM   14  O5  UNL     1      10.112  33.518  25.799  1.00  0.00    -0.400 OA
ATOM     15  H5  UNL     1      10.837  34.123  25.904  1.00  0.00     0.209 HD
ENDBRANCH  13  14
ENDBRANCH  12  13
ENDBRANCH  11  12
ENDBRANCH   9  10
ENDBRANCH   7   8
ENDBRANCH   4   7
BRANCH   5  16
HETATM   16  O6  UNL     1      10.167  25.450  24.605  1.00  0.00    -0.390 OA
ATOM     17  H6  UNL     1      10.399  25.608  25.513  1.00  0.00     0.210 HD
ENDBRANCH   5  16
BRANCH   6  18
HETATM   18  O7  UNL     1       7.635  26.398  24.892  1.00  0.00    -0.392 OA
ATOM     19  H7  UNL     1       7.984  25.625  25.320  1.00  0.00     0.210 HD
ENDBRANCH   6  18
BRANCH   1  20
HETATM   20  C2  UNL     1       6.543  25.631  22.311  1.00  0.00     0.199 C 
BRANCH  20  21
HETATM   21  O3  UNL     1       6.129  24.319  22.474  1.00  0.00    -0.275 OA
BRANCH  21  22
HETATM   22  S1  UNL     1       5.477  23.704  21.051  1.00  0.00     0.261 S 
HETATM   23  C1  UNL     1       5.957  24.709  19.653  1.00  0.00     0.194 C 
HETATM   24  O1  UNL     1       3.978  23.759  21.155  1.00  0.00    -0.199 OA
HETATM   25  O2  UNL     1       5.884  22.297  20.803  1.00  0.00    -0.199 OA
ENDBRANCH  21  22
ENDBRANCH  20  21
ENDBRANCH   1  20
TORSDOF 11
ENDMDL
MODEL 2
REMARK VINA RESULT: -5.275474964      3.379      8.281
REMARK  11 active torsions:
REMARK  status: ('A' for Active; 'I' for Inactive)
REMARK    1  A    between atoms: S1_2  and  O3_5 
REMARK    2  A    between atoms: O3_5  and  C2_6 
REMARK    3  A    between atoms: C2_6  and  C3_7 
REMARK    4  A    between atoms: C5_10  and  C6_11 
REMARK    5  A    between atoms: C6_11  and  C7_12 
REMARK    6  A    between atoms: C8_13  and  C9_14 
REMARK    7  A    between atoms: C10_15  and  C11_16 
REMARK    8  A    between atoms: C11_16  and  C12_17 
REMARK    9  A    between atoms: C12_17  and  O5_18 
REMARK   10  A    between atoms: C13_20  and  O6_21 
REMARK   11  A    between atoms: C14_23  and  O7_24 
ROOT
HETATM    1  C3  UNL     1      10.069  27.399  24.160  1.00  0.00     0.066 C 
HETATM    2  C4  UNL     1       8.974  28.087  23.370  1.00  0.00     0.177 C 
HETATM    3  O4  UNL     1       8.030  27.158  22.906  1.00  0.00    -0.382 OA
HETATM    4  C5  UNL     1       7.453  26.462  23.970  1.00  0.00     0.156 C 
HETATM    5  C13 UNL     1       8.489  25.597  24.634  1.00  0.00     0.176 C 
HETATM    6  C14 UNL     1       9.859  25.908  24.056  1.00  0.00     0.157 C 
ENDROOT
BRANCH   4   7
HETATM    7  C6  UNL     1       6.363  25.583  23.350  1.00  0.00     0.062 C 
BRANCH   7   8
HETATM    8  C7  UNL     1       6.646  25.309  21.919  1.00  0.00    -0.015 C 
HETATM    9  C8  UNL     1       5.871  24.487  21.243  1.00  0.00     0.060 C 
BRANCH   9  10
HETATM   10  C9  UNL     1       6.188  24.255  19.862  1.00  0.00    -0.079 C 
HETATM   11  C10 UNL     1       6.473  24.056  18.703  1.00  0.00    -0.100 C 
BRANCH  11  12
HETATM   12  C11 UNL     1       6.844  23.813  17.308  1.00  0.00     0.120 C 
BRANCH  12  13
HETATM   13  C12 UNL     1       8.316  24.187  17.081  1.00  0.00     0.176 C 
BRANCH  13  14
HETATM   14  O5  UNL     1       8.983  24.153  18.279  1.00  0.00    -0.400 OA
ATOM     15  H5  UNL     1       8.442  24.551  18.951  1.00  0.00     0.209 HD
ENDBRANCH  13  14
ENDBRANCH  12  13
ENDBRANCH  11  12
ENDBRANCH   9  10
ENDBRANCH   7   8
ENDBRANCH   4   7
BRANCH   5  16
HETATM   16  O6  UNL     1       8.450  25.800  26.002  1.00  0.00    -0.390 OA
ATOM     17  H6  UNL     1       7.620  25.492  26.344  1.00  0.00     0.210 HD
ENDBRANCH   5  16
BRANCH   6  18
HETATM   18  O7  UNL     1      10.802  25.195  24.779  1.00  0.00    -0.392 OA
ATOM     19  H7  UNL     1      10.456  24.877  25.605  1.00  0.00     0.210 HD
ENDBRANCH   6  18
BRANCH   1  20
HETATM   20  C2  UNL     1      11.444  27.799  23.663  1.00  0.00     0.199 C 
BRANCH  20  21
HETATM   21  O3  UNL     1      12.272  27.941  24.765  1.00  0.00    -0.275 OA
BRANCH  21  22
HETATM   22  S1  UNL     1      12.538  29.562  25.124  1.00  0.00     0.261 S 
HETATM   23  C1  UNL     1      11.738  30.612  23.918  1.00  0.00     0.194 C 
HETATM   24  O1  UNL     1      14.015  29.828  25.048  1.00  0.00    -0.199 OA
HETATM   25  O2  UNL     1      12.058  29.927  26.482  1.00  0.00    -0.199 OA
ENDBRANCH  21  22
ENDBRANCH  20  21
ENDBRANCH   1  20
TORSDOF 11
ENDMDL
MODEL 3
REMARK VINA RESULT: -4.797888674      2.537      4.009
REMARK  11 active torsions:
REMARK  status: ('A' for Active; 'I' for Inactive)
REMARK    1  A    between atoms: S1_2  and  O3_5 
REMARK    2  A    between atoms: O3_5  and  C2_6 
REMARK    3  A    between atoms: C2_6  and  C3_7 
REMARK    4  A    between atoms: C5_10  and  C6_11 
REMARK    5  A    between atoms: C6_11  and  C7_12 
REMARK    6  A    between atoms: C8_13  and  C9_14 
REMARK    7  A    between atoms: C10_15  and  C11_16 
REMARK    8  A    between atoms: C11_16  and  C12_17 
REMARK    9  A    between atoms: C12_17  and  O5_18 
REMARK   10  A    between atoms: C13_20  and  O6_21 
REMARK   11  A    between atoms: C14_23  and  O7_24 
ROOT
HETATM    1  C3  UNL     1       5.979  24.245  21.057  1.00  0.00     0.066 C 
HETATM    2  C4  UNL     1       7.136  25.222  21.108  1.00  0.00     0.177 C 
HETATM    3  O4  UNL     1       7.093  25.992  22.280  1.00  0.00    -0.382 OA
HETATM    4  C5  UNL     1       7.137  25.176  23.412  1.00  0.00     0.156 C 
HETATM    5  C13 UNL     1       5.882  24.352  23.495  1.00  0.00     0.176 C 
HETATM    6  C14 UNL     1       5.068  24.533  22.226  1.00  0.00     0.157 C 
ENDROOT
BRANCH   4   7
HETATM    7  C6  UNL     1       7.213  26.129  24.609  1.00  0.00     0.062 C 
BRANCH   7   8
HETATM    8  C7  UNL     1       8.605  26.592  24.838  1.00  0.00    -0.015 C 
HETATM    9  C8  UNL     1       9.337  26.994  23.819  1.00  0.00     0.060 C 
BRANCH   9  10
HETATM   10  C9  UNL     1      10.677  27.431  24.093  1.00  0.00    -0.079 C 
HETATM   11  C10 UNL     1      11.803  27.794  24.342  1.00  0.00    -0.100 C 
BRANCH  11  12
HETATM   12  C11 UNL     1      13.162  28.228  24.669  1.00  0.00     0.120 C 
BRANCH  12  13
HETATM   13  C12 UNL     1      13.121  29.334  25.733  1.00  0.00     0.176 C 
BRANCH  13  14
HETATM   14  O5  UNL     1      12.093  30.198  25.451  1.00  0.00    -0.400 OA
ATOM     15  H5  UNL     1      12.219  30.564  24.583  1.00  0.00     0.209 HD
ENDBRANCH  13  14
ENDBRANCH  12  13
ENDBRANCH  11  12
ENDBRANCH   9  10
ENDBRANCH   7   8
ENDBRANCH   4   7
BRANCH   5  16
HETATM   16  O6  UNL     1       6.215  23.025  23.707  1.00  0.00    -0.390 OA
ATOM     17  H6  UNL     1       6.504  22.638  22.890  1.00  0.00     0.210 HD
ENDBRANCH   5  16
BRANCH   6  18
HETATM   18  O7  UNL     1       3.992  23.661  22.278  1.00  0.00    -0.392 OA
ATOM     19  H7  UNL     1       3.196  24.091  22.568  1.00  0.00     0.210 HD
ENDBRANCH   6  18
BRANCH   1  20
HETATM   20  C2  UNL     1       5.234  24.339  19.740  1.00  0.00     0.199 C 
BRANCH  20  21
HETATM   21  O3  UNL     1       6.083  24.915  18.809  1.00  0.00    -0.275 OA
BRANCH  21  22
HETATM   22  S1  UNL     1       7.138  23.778  18.161  1.00  0.00     0.261 S 
HETATM   23  C1  UNL     1       8.549  24.582  17.415  1.00  0.00     0.194 C 
HETATM   24  O1  UNL     1       6.418  23.027  17.076  1.00  0.00    -0.199 OA
HETATM   25  O2  UNL     1       7.614  22.804  19.177  1.00  0.00    -0.199 OA
ENDBRANCH  21  22
ENDBRANCH  20  21
ENDBRANCH   1  20
TORSDOF 11
ENDMDL
MODEL 4
REMARK VINA RESULT: -4.468260288      1.724      2.780
REMARK  11 active torsions:
REMARK  status: ('A' for Active; 'I' for Inactive)
REMARK    1  A    between atoms: S1_2  and  O3_5 
REMARK    2  A    between atoms: O3_5  and  C2_6 
REMARK    3  A    between atoms: C2_6  and  C3_7 
REMARK    4  A    between atoms: C5_10  and  C6_11 
REMARK    5  A    between atoms: C6_11  and  C7_12 
REMARK    6  A    between atoms: C8_13  and  C9_14 
REMARK    7  A    between atoms: C10_15  and  C11_16 
REMARK    8  A    between atoms: C11_16  and  C12_17 
REMARK    9  A    between atoms: C12_17  and  O5_18 
REMARK   10  A    between atoms: C13_20  and  O6_21 
REMARK   11  A    between atoms: C14_23  and  O7_24 
ROOT
HETATM    1  C3  UNL     1       9.929  27.382  22.648  1.00  0.00     0.066 C 
HETATM    2  C4  UNL     1       9.939  28.896  22.706  1.00  0.00     0.177 C 
HETATM    3  O4  UNL     1      10.515  29.350  23.903  1.00  0.00    -0.382 OA
HETATM    4  C5  UNL     1      11.824  28.882  24.033  1.00  0.00     0.156 C 
HETATM    5  C13 UNL     1      11.816  27.387  24.200  1.00  0.00     0.176 C 
HETATM    6  C14 UNL     1      10.410  26.857  23.979  1.00  0.00     0.157 C 
ENDROOT
BRANCH   4   7
HETATM    7  C6  UNL     1      12.378  29.542  25.299  1.00  0.00     0.062 C 
BRANCH   7   8
HETATM    8  C7  UNL     1      11.588  30.745  25.665  1.00  0.00    -0.015 C 
HETATM    9  C8  UNL     1      11.411  31.052  26.933  1.00  0.00     0.060 C 
BRANCH   9  10
HETATM   10  C9  UNL     1      10.639  32.224  27.234  1.00  0.00    -0.079 C 
HETATM   11  C10 UNL     1      10.005  33.221  27.494  1.00  0.00    -0.100 C 
BRANCH  11  12
HETATM   12  C11 UNL     1       9.259  34.438  27.818  1.00  0.00     0.120 C 
BRANCH  12  13
HETATM   13  C12 UNL     1       9.656  35.571  26.862  1.00  0.00     0.176 C 
BRANCH  13  14
HETATM   14  O5  UNL     1       9.612  35.111  25.570  1.00  0.00    -0.400 OA
ATOM     15  H5  UNL     1       9.019  35.654  25.063  1.00  0.00     0.209 HD
ENDBRANCH  13  14
ENDBRANCH  12  13
ENDBRANCH  11  12
ENDBRANCH   9  10
ENDBRANCH   7   8
ENDBRANCH   4   7
BRANCH   5  16
HETATM   16  O6  UNL     1      12.722  26.821  23.321  1.00  0.00    -0.390 OA
ATOM     17  H6  UNL     1      12.279  26.593  22.513  1.00  0.00     0.210 HD
ENDBRANCH   5  16
BRANCH   6  18
HETATM   18  O7  UNL     1      10.463  25.472  24.007  1.00  0.00    -0.392 OA
ATOM     19  H7  UNL     1      11.024  25.121  23.326  1.00  0.00     0.210 HD
ENDBRANCH   6  18
BRANCH   1  20
HETATM   20  C2  UNL     1       8.550  26.851  22.310  1.00  0.00     0.199 C 
BRANCH  20  21
HETATM   21  O3  UNL     1       7.975  26.380  23.479  1.00  0.00    -0.275 OA
BRANCH  21  22
HETATM   22  S1  UNL     1       6.689  25.348  23.154  1.00  0.00     0.261 S 
HETATM   23  C1  UNL     1       6.627  24.950  21.412  1.00  0.00     0.194 C 
HETATM   24  O1  UNL     1       5.411  26.059  23.502  1.00  0.00    -0.199 OA
HETATM   25  O2  UNL     1       6.761  24.089  23.939  1.00  0.00    -0.199 OA
ENDBRANCH  21  22
ENDBRANCH  20  21
ENDBRANCH   1  20
TORSDOF 11
ENDMDL
MODEL 5
REMARK VINA RESULT: -4.430916200      2.072      2.587
REMARK  11 active torsions:
REMARK  status: ('A' for Active; 'I' for Inactive)
REMARK    1  A    between atoms: S1_2  and  O3_5 
REMARK    2  A    between atoms: O3_5  and  C2_6 
REMARK    3  A    between atoms: C2_6  and  C3_7 
REMARK    4  A    between atoms: C5_10  and  C6_11 
REMARK    5  A    between atoms: C6_11  and  C7_12 
REMARK    6  A    between atoms: C8_13  and  C9_14 
REMARK    7  A    between atoms: C10_15  and  C11_16 
REMARK    8  A    between atoms: C11_16  and  C12_17 
REMARK    9  A    between atoms: C12_17  and  O5_18 
REMARK   10  A    between atoms: C13_20  and  O6_21 
REMARK   11  A    between atoms: C14_23  and  O7_24 
ROOT
HETATM    1  C3  UNL     1       6.805  25.216  22.767  1.00  0.00     0.066 C 
HETATM    2  C4  UNL     1       7.255  25.268  21.322  1.00  0.00     0.177 C 
HETATM    3  O4  UNL     1       8.197  26.289  21.124  1.00  0.00    -0.382 OA
HETATM    4  C5  UNL     1       9.313  26.100  21.942  1.00  0.00     0.156 C 
HETATM    5  C13 UNL     1       8.922  26.267  23.384  1.00  0.00     0.176 C 
HETATM    6  C14 UNL     1       7.412  26.393  23.492  1.00  0.00     0.157 C 
ENDROOT
BRANCH   4   7
HETATM    7  C6  UNL     1      10.309  27.195  21.545  1.00  0.00     0.062 C 
BRANCH   7   8
HETATM    8  C7  UNL     1      10.992  27.755  22.738  1.00  0.00    -0.015 C 
HETATM    9  C8  UNL     1      10.876  29.036  23.019  1.00  0.00     0.060 C 
BRANCH   9  10
HETATM   10  C9  UNL     1      11.556  29.529  24.183  1.00  0.00    -0.079 C 
HETATM   11  C10 UNL     1      12.135  29.925  25.168  1.00  0.00    -0.100 C 
BRANCH  11  12
HETATM   12  C11 UNL     1      12.839  30.380  26.369  1.00  0.00     0.120 C 
BRANCH  12  13
HETATM   13  C12 UNL     1      14.004  29.433  26.688  1.00  0.00     0.176 C 
BRANCH  13  14
HETATM   14  O5  UNL     1      13.963  28.359  25.835  1.00  0.00    -0.400 OA
ATOM     15  H5  UNL     1      14.078  27.557  26.332  1.00  0.00     0.209 HD
ENDBRANCH  13  14
ENDBRANCH  12  13
ENDBRANCH  11  12
ENDBRANCH   9  10
ENDBRANCH   7   8
ENDBRANCH   4   7
BRANCH   5  16
HETATM   16  O6  UNL     1       9.402  25.196  24.118  1.00  0.00    -0.390 OA
ATOM     17  H6  UNL     1       8.762  24.952  24.776  1.00  0.00     0.210 HD
ENDBRANCH   5  16
BRANCH   6  18
HETATM   18  O7  UNL     1       7.077  26.409  24.837  1.00  0.00    -0.392 OA
ATOM     19  H7  UNL     1       6.140  26.343  24.974  1.00  0.00     0.210 HD
ENDBRANCH   6  18
BRANCH   1  20
HETATM   20  C2  UNL     1       5.293  25.222  22.875  1.00  0.00     0.199 C 
BRANCH  20  21
HETATM   21  O3  UNL     1       4.847  23.922  22.694  1.00  0.00    -0.275 OA
BRANCH  21  22
HETATM   22  S1  UNL     1       4.403  23.649  21.095  1.00  0.00     0.261 S 
HETATM   23  C1  UNL     1       2.697  23.123  20.997  1.00  0.00     0.194 C 
HETATM   24  O1  UNL     1       5.252  22.534  20.552  1.00  0.00    -0.199 OA
HETATM   25  O2  UNL     1       4.593  24.850  20.241  1.00  0.00    -0.199 OA
ENDBRANCH  21  22
ENDBRANCH  20  21
ENDBRANCH   1  20
TORSDOF 11
ENDMDL
