MODEL 1
REMARK VINA RESULT: -5.260755497      0.000      0.000
REMARK  10 active torsions:
REMARK  status: ('A' for Active; 'I' for Inactive)
REMARK       I    between atoms: N1_1  and  C1_4 
REMARK       I    between atoms: C1_4  and  N2_5 
REMARK       I    between atoms: C1_4  and  N7_28 
REMARK    1  A    between atoms: N2_5  and  C2_7 
REMARK    2  A    between atoms: N5_16  and  C6_17 
REMARK    3  A    between atoms: C6_17  and  C7_18 
REMARK    4  A    between atoms: C7_18  and  C8_19 
REMARK    5  A    between atoms: C8_19  and  C9_20 
REMARK    6  A    between atoms: C9_20  and  C10_21 
REMARK    7  A    between atoms: C10_21  and  N6_22 
REMARK    8  A    between atoms: N7_28  and  N8_30 
REMARK    9  A    between atoms: N8_30  and  N9_31 
REMARK   10  A    between atoms: N8_30  and  O3_34 
ROOT
HETATM    1  C2  UNL     1      44.719  14.337  17.319  1.00  0.00     0.247 A 
HETATM    2  N3  UNL     1      45.702  14.405  16.402  1.00  0.00    -0.286 N 
ATOM      3  H3  UNL     1      46.097  13.536  16.041  1.00  0.00     0.172 HD
HETATM    4  C3  UNL     1      46.182  15.573  15.943  1.00  0.00     0.279 A 
HETATM    5  O1  UNL     1      47.082  15.686  15.102  1.00  0.00    -0.265 OA
HETATM    6  C4  UNL     1      45.592  16.725  16.482  1.00  0.00     0.154 A 
HETATM    7  N4  UNL     1      45.793  18.016  16.281  1.00  0.00    -0.344 N 
ATOM      8  H4  UNL     1      46.474  18.426  15.642  1.00  0.00     0.167 HD
HETATM    9  C5  UNL     1      44.930  18.700  17.080  1.00  0.00     0.186 A 
HETATM   10  N5  UNL     1      44.180  17.866  17.788  1.00  0.00    -0.318 N 
HETATM   11  C11 UNL     1      44.590  16.610  17.418  1.00  0.00     0.187 A 
HETATM   12  O2  UNL     1      44.181  15.426  17.811  1.00  0.00    -0.259 OA
ENDROOT
BRANCH   1  13
HETATM   13  N2  UNL     1      44.320  13.151  17.703  1.00  0.00    -0.153 N 
HETATM   14  C1  UNL     1      42.971  12.883  18.025  1.00  0.00     0.692 C 
HETATM   15  N1  UNL     1      42.514  13.149  19.191  1.00  0.00    -0.233 N 
HETATM   16  N7  UNL     1      42.128  12.318  17.045  1.00  0.00    -0.110 N 
ATOM     17  H12 UNL     1      43.123  13.557  19.900  1.00  0.00     0.174 HD
ATOM     18  H11 UNL     1      41.540  12.955  19.424  1.00  0.00     0.174 HD
ATOM     19  H7  UNL     1      41.946  12.842  16.190  1.00  0.00     0.203 HD
ATOM     20  H2  UNL     1      45.004  12.398  17.773  1.00  0.00     0.188 HD
BRANCH  16  21
HETATM   21  N8  UNL     1      41.535  11.064  17.208  1.00  0.00     0.004 NA
BRANCH  21  22
HETATM   22  N9  UNL     1      42.407  10.156  17.794  1.00  0.00    -0.322 NA
ATOM     23  H92 UNL     1      41.926   9.272  17.961  1.00  0.00     0.175 HD
ATOM     24  H91 UNL     1      42.792  10.514  18.668  1.00  0.00     0.175 HD
ENDBRANCH  21  22
BRANCH  21  25
HETATM   25  O3  UNL     1      40.403  11.178  17.969  1.00  0.00    -0.276 OA
ATOM     26  H3  UNL     1      39.665  10.792  17.512  1.00  0.00     0.241 HD
ENDBRANCH  21  25
ENDBRANCH  16  21
ENDBRANCH   1  13
BRANCH  10  27
HETATM   27  C6  UNL     1      43.127  18.114  18.785  1.00  0.00     0.159 C 
BRANCH  27  28
HETATM   28  C7  UNL     1      41.758  18.014  18.262  1.00  0.00    -0.011 C 
BRANCH  28  29
HETATM   29  C8  UNL     1      41.370  18.491  16.942  1.00  0.00    -0.027 C 
BRANCH  29  30
HETATM   30  C9  UNL     1      41.446  17.654  15.740  1.00  0.00     0.054 C 
BRANCH  30  31
HETATM   31  C10 UNL     1      41.448  16.171  15.839  1.00  0.00     0.233 C 
BRANCH  31  32
HETATM   32  N6  UNL     1      42.497  15.650  14.913  1.00  0.00    -0.079 N 
ATOM     33  H63 UNL     1      42.819  14.716  15.167  1.00  0.00     0.274 HD
ATOM     34  H62 UNL     1      42.130  15.421  13.989  1.00  0.00     0.274 HD
ATOM     35  H61 UNL     1      43.254  16.332  14.879  1.00  0.00     0.274 HD
ENDBRANCH  31  32
ENDBRANCH  30  31
ENDBRANCH  29  30
ENDBRANCH  28  29
ENDBRANCH  27  28
ENDBRANCH  10  27
TORSDOF 10
ENDMDL
MODEL 2
REMARK VINA RESULT: -5.117672947      3.277      7.603
REMARK  10 active torsions:
REMARK  status: ('A' for Active; 'I' for Inactive)
REMARK       I    between atoms: N1_1  and  C1_4 
REMARK       I    between atoms: C1_4  and  N2_5 
REMARK       I    between atoms: C1_4  and  N7_28 
REMARK    1  A    between atoms: N2_5  and  C2_7 
REMARK    2  A    between atoms: N5_16  and  C6_17 
REMARK    3  A    between atoms: C6_17  and  C7_18 
REMARK    4  A    between atoms: C7_18  and  C8_19 
REMARK    5  A    between atoms: C8_19  and  C9_20 
REMARK    6  A    between atoms: C9_20  and  C10_21 
REMARK    7  A    between atoms: C10_21  and  N6_22 
REMARK    8  A    between atoms: N7_28  and  N8_30 
REMARK    9  A    between atoms: N8_30  and  N9_31 
REMARK   10  A    between atoms: N8_30  and  O3_34 
ROOT
HETATM    1  C2  UNL     1      44.380  19.363  15.583  1.00  0.00     0.247 A 
HETATM    2  N3  UNL     1      43.047  19.544  15.560  1.00  0.00    -0.286 N 
ATOM      3  H3  UNL     1      42.679  20.442  15.246  1.00  0.00     0.172 HD
HETATM    4  C3  UNL     1      42.182  18.586  15.935  1.00  0.00     0.279 A 
HETATM    5  O1  UNL     1      40.951  18.705  15.932  1.00  0.00    -0.265 OA
HETATM    6  C4  UNL     1      42.758  17.379  16.354  1.00  0.00     0.154 A 
HETATM    7  N4  UNL     1      42.244  16.239  16.783  1.00  0.00    -0.344 N 
ATOM      8  H4  UNL     1      41.251  16.030  16.891  1.00  0.00     0.167 HD
HETATM    9  C5  UNL     1      43.275  15.394  17.056  1.00  0.00     0.186 A 
HETATM   10  N5  UNL     1      44.440  15.978  16.807  1.00  0.00    -0.318 N 
HETATM   11  C11 UNL     1      44.126  17.236  16.361  1.00  0.00     0.187 A 
HETATM   12  O2  UNL     1      44.899  18.226  15.978  1.00  0.00    -0.259 OA
ENDROOT
BRANCH   1  13
HETATM   13  N2  UNL     1      45.141  20.356  15.198  1.00  0.00    -0.153 N 
HETATM   14  C1  UNL     1      46.533  20.205  15.008  1.00  0.00     0.692 C 
HETATM   15  N1  UNL     1      47.338  20.289  15.999  1.00  0.00    -0.233 N 
HETATM   16  N7  UNL     1      47.027  19.959  13.710  1.00  0.00    -0.110 N 
ATOM     17  H12 UNL     1      46.980  20.467  16.937  1.00  0.00     0.174 HD
ATOM     18  H11 UNL     1      48.343  20.180  15.862  1.00  0.00     0.174 HD
ATOM     19  H7  UNL     1      46.746  19.104  13.230  1.00  0.00     0.203 HD
ATOM     20  H2  UNL     1      44.715  21.268  15.031  1.00  0.00     0.188 HD
BRANCH  16  21
HETATM   21  N8  UNL     1      47.889  20.846  13.062  1.00  0.00     0.004 NA
BRANCH  21  22
HETATM   22  N9  UNL     1      47.688  22.154  13.480  1.00  0.00    -0.322 NA
ATOM     23  H92 UNL     1      48.274  22.352  14.291  1.00  0.00     0.175 HD
ATOM     24  H91 UNL     1      46.710  22.331  13.707  1.00  0.00     0.175 HD
ENDBRANCH  21  22
BRANCH  21  25
HETATM   25  O3  UNL     1      49.189  20.480  13.287  1.00  0.00    -0.276 OA
ATOM     26  H3  UNL     1      49.586  21.068  13.920  1.00  0.00     0.241 HD
ENDBRANCH  21  25
ENDBRANCH  16  21
ENDBRANCH   1  13
BRANCH  10  27
HETATM   27  C6  UNL     1      45.821  15.490  16.952  1.00  0.00     0.159 C 
BRANCH  27  28
HETATM   28  C7  UNL     1      46.638  15.603  15.737  1.00  0.00    -0.011 C 
BRANCH  28  29
HETATM   29  C8  UNL     1      47.852  16.404  15.661  1.00  0.00    -0.027 C 
BRANCH  29  30
HETATM   30  C9  UNL     1      48.523  16.714  14.395  1.00  0.00     0.054 C 
BRANCH  30  31
HETATM   31  C10 UNL     1      49.918  17.225  14.372  1.00  0.00     0.233 C 
BRANCH  31  32
HETATM   32  N6  UNL     1      50.225  17.664  12.978  1.00  0.00    -0.079 N 
ATOM     33  H63 UNL     1      50.960  18.370  12.939  1.00  0.00     0.274 HD
ATOM     34  H62 UNL     1      50.699  16.943  12.433  1.00  0.00     0.274 HD
ATOM     35  H61 UNL     1      49.355  17.976  12.547  1.00  0.00     0.274 HD
ENDBRANCH  31  32
ENDBRANCH  30  31
ENDBRANCH  29  30
ENDBRANCH  28  29
ENDBRANCH  27  28
ENDBRANCH  10  27
TORSDOF 10
ENDMDL
MODEL 3
REMARK VINA RESULT: -5.107512977      6.159      8.797
REMARK  10 active torsions:
REMARK  status: ('A' for Active; 'I' for Inactive)
REMARK       I    between atoms: N1_1  and  C1_4 
REMARK       I    between atoms: C1_4  and  N2_5 
REMARK       I    between atoms: C1_4  and  N7_28 
REMARK    1  A    between atoms: N2_5  and  C2_7 
REMARK    2  A    between atoms: N5_16  and  C6_17 
REMARK    3  A    between atoms: C6_17  and  C7_18 
REMARK    4  A    between atoms: C7_18  and  C8_19 
REMARK    5  A    between atoms: C8_19  and  C9_20 
REMARK    6  A    between atoms: C9_20  and  C10_21 
REMARK    7  A    between atoms: C10_21  and  N6_22 
REMARK    8  A    between atoms: N7_28  and  N8_30 
REMARK    9  A    between atoms: N8_30  and  N9_31 
REMARK   10  A    between atoms: N8_30  and  O3_34 
ROOT
HETATM    1  C2  UNL     1      36.470  11.101  20.516  1.00  0.00     0.247 A 
HETATM    2  N3  UNL     1      36.804  10.062  21.304  1.00  0.00    -0.286 N 
ATOM      3  H3  UNL     1      36.096   9.671  21.927  1.00  0.00     0.172 HD
HETATM    4  C3  UNL     1      38.033   9.519  21.301  1.00  0.00     0.279 A 
HETATM    5  O1  UNL     1      38.386   8.565  22.006  1.00  0.00    -0.265 OA
HETATM    6  C4  UNL     1      38.952  10.105  20.421  1.00  0.00     0.154 A 
HETATM    7  N4  UNL     1      40.220   9.852  20.146  1.00  0.00    -0.344 N 
ATOM      8  H4  UNL     1      40.793   9.120  20.568  1.00  0.00     0.167 HD
HETATM    9  C5  UNL     1      40.627  10.742  19.200  1.00  0.00     0.186 A 
HETATM   10  N5  UNL     1      39.637  11.559  18.866  1.00  0.00    -0.318 N 
HETATM   11  C11 UNL     1      38.570  11.166  19.633  1.00  0.00     0.187 A 
HETATM   12  O2  UNL     1      37.345  11.635  19.701  1.00  0.00    -0.259 OA
ENDROOT
BRANCH   1  13
HETATM   13  N2  UNL     1      35.247  11.560  20.592  1.00  0.00    -0.153 N 
HETATM   14  C1  UNL     1      34.155  10.884  20.002  1.00  0.00     0.692 C 
HETATM   15  N1  UNL     1      33.882  11.046  18.762  1.00  0.00    -0.233 N 
HETATM   16  N7  UNL     1      33.367  10.025  20.796  1.00  0.00    -0.110 N 
ATOM     17  H12 UNL     1      34.452  11.667  18.188  1.00  0.00     0.174 HD
ATOM     18  H11 UNL     1      33.094  10.558  18.336  1.00  0.00     0.174 HD
ATOM     19  H7  UNL     1      33.803   9.205  21.218  1.00  0.00     0.203 HD
ATOM     20  H2  UNL     1      35.076  12.433  21.092  1.00  0.00     0.188 HD
BRANCH  16  21
HETATM   21  N8  UNL     1      32.009  10.260  21.024  1.00  0.00     0.004 NA
BRANCH  21  22
HETATM   22  N9  UNL     1      31.687  11.602  20.866  1.00  0.00    -0.322 NA
ATOM     23  H92 UNL     1      32.371  12.053  20.258  1.00  0.00     0.175 HD
ATOM     24  H91 UNL     1      31.645  12.087  21.762  1.00  0.00     0.175 HD
ENDBRANCH  21  22
BRANCH  21  25
HETATM   25  O3  UNL     1      31.255   9.498  20.172  1.00  0.00    -0.276 OA
ATOM     26  H3  UNL     1      31.362   8.577  20.382  1.00  0.00     0.241 HD
ENDBRANCH  21  25
ENDBRANCH  16  21
ENDBRANCH   1  13
BRANCH  10  27
HETATM   27  C6  UNL     1      39.582  12.680  17.914  1.00  0.00     0.159 C 
BRANCH  27  28
HETATM   28  C7  UNL     1      40.547  13.754  18.183  1.00  0.00    -0.011 C 
BRANCH  28  29
HETATM   29  C8  UNL     1      41.461  14.277  17.177  1.00  0.00    -0.027 C 
BRANCH  29  30
HETATM   30  C9  UNL     1      41.751  15.707  17.033  1.00  0.00     0.054 C 
BRANCH  30  31
HETATM   31  C10 UNL     1      41.780  16.352  15.694  1.00  0.00     0.233 C 
BRANCH  31  32
HETATM   32  N6  UNL     1      42.607  15.499  14.790  1.00  0.00    -0.079 N 
ATOM     33  H63 UNL     1      43.437  15.125  15.250  1.00  0.00     0.274 HD
ATOM     34  H62 UNL     1      42.160  14.608  14.570  1.00  0.00     0.274 HD
ATOM     35  H61 UNL     1      42.829  16.045  13.957  1.00  0.00     0.274 HD
ENDBRANCH  31  32
ENDBRANCH  30  31
ENDBRANCH  29  30
ENDBRANCH  28  29
ENDBRANCH  27  28
ENDBRANCH  10  27
TORSDOF 10
ENDMDL
MODEL 4
REMARK VINA RESULT: -4.831640305      7.332     10.575
REMARK  10 active torsions:
REMARK  status: ('A' for Active; 'I' for Inactive)
REMARK       I    between atoms: N1_1  and  C1_4 
REMARK       I    between atoms: C1_4  and  N2_5 
REMARK       I    between atoms: C1_4  and  N7_28 
REMARK    1  A    between atoms: N2_5  and  C2_7 
REMARK    2  A    between atoms: N5_16  and  C6_17 
REMARK    3  A    between atoms: C6_17  and  C7_18 
REMARK    4  A    between atoms: C7_18  and  C8_19 
REMARK    5  A    between atoms: C8_19  and  C9_20 
REMARK    6  A    between atoms: C9_20  and  C10_21 
REMARK    7  A    between atoms: C10_21  and  N6_22 
REMARK    8  A    between atoms: N7_28  and  N8_30 
REMARK    9  A    between atoms: N8_30  and  N9_31 
REMARK   10  A    between atoms: N8_30  and  O3_34 
ROOT
HETATM    1  C2  UNL     1      36.423  11.168  20.098  1.00  0.00     0.247 A 
HETATM    2  N3  UNL     1      37.045  11.732  19.045  1.00  0.00    -0.286 N 
ATOM      3  H3  UNL     1      36.556  12.453  18.515  1.00  0.00     0.172 HD
HETATM    4  C3  UNL     1      38.285  11.380  18.666  1.00  0.00     0.279 A 
HETATM    5  O1  UNL     1      38.896  11.868  17.708  1.00  0.00    -0.265 OA
HETATM    6  C4  UNL     1      38.896  10.383  19.440  1.00  0.00     0.154 A 
HETATM    7  N4  UNL     1      40.077   9.794  19.376  1.00  0.00    -0.344 N 
ATOM      8  H4  UNL     1      40.808   9.984  18.689  1.00  0.00     0.167 HD
HETATM    9  C5  UNL     1      40.145   8.888  20.389  1.00  0.00     0.186 A 
HETATM   10  N5  UNL     1      39.025   8.890  21.099  1.00  0.00    -0.318 N 
HETATM   11  C11 UNL     1      38.225   9.833  20.508  1.00  0.00     0.187 A 
HETATM   12  O2  UNL     1      37.012  10.237  20.808  1.00  0.00    -0.259 OA
ENDROOT
BRANCH   1  13
HETATM   13  N2  UNL     1      35.214  11.578  20.388  1.00  0.00    -0.153 N 
HETATM   14  C1  UNL     1      34.064  10.961  19.848  1.00  0.00     0.692 C 
HETATM   15  N1  UNL     1      33.635  11.287  18.687  1.00  0.00    -0.233 N 
HETATM   16  N7  UNL     1      33.390   9.979  20.603  1.00  0.00    -0.110 N 
ATOM     17  H12 UNL     1      34.122  11.998  18.141  1.00  0.00     0.174 HD
ATOM     18  H11 UNL     1      32.804  10.842  18.297  1.00  0.00     0.174 HD
ATOM     19  H7  UNL     1      33.884   9.121  20.848  1.00  0.00     0.203 HD
ATOM     20  H2  UNL     1      35.100  12.368  21.024  1.00  0.00     0.188 HD
BRANCH  16  21
HETATM   21  N8  UNL     1      32.070  10.143  21.028  1.00  0.00     0.004 NA
BRANCH  21  22
HETATM   22  N9  UNL     1      31.698  11.481  21.044  1.00  0.00    -0.322 NA
ATOM     23  H92 UNL     1      31.285  11.715  21.947  1.00  0.00     0.175 HD
ATOM     24  H91 UNL     1      31.042  11.698  20.294  1.00  0.00     0.175 HD
ENDBRANCH  21  22
BRANCH  21  25
HETATM   25  O3  UNL     1      31.227   9.437  20.213  1.00  0.00    -0.276 OA
ATOM     26  H3  UNL     1      31.274   8.511  20.423  1.00  0.00     0.241 HD
ENDBRANCH  21  25
ENDBRANCH  16  21
ENDBRANCH   1  13
BRANCH  10  27
HETATM   27  C6  UNL     1      38.614   8.095  22.267  1.00  0.00     0.159 C 
BRANCH  27  28
HETATM   28  C7  UNL     1      37.896   6.856  21.938  1.00  0.00    -0.011 C 
BRANCH  28  29
HETATM   29  C8  UNL     1      38.526   5.717  21.285  1.00  0.00    -0.027 C 
BRANCH  29  30
HETATM   30  C9  UNL     1      38.469   5.500  19.836  1.00  0.00     0.054 C 
BRANCH  30  31
HETATM   31  C10 UNL     1      39.710   5.464  19.017  1.00  0.00     0.233 C 
BRANCH  31  32
HETATM   32  N6  UNL     1      39.326   5.125  17.614  1.00  0.00    -0.079 N 
ATOM     33  H63 UNL     1      38.333   4.913  17.517  1.00  0.00     0.274 HD
ATOM     34  H62 UNL     1      39.355   5.933  16.992  1.00  0.00     0.274 HD
ATOM     35  H61 UNL     1      39.925   4.362  17.300  1.00  0.00     0.274 HD
ENDBRANCH  31  32
ENDBRANCH  30  31
ENDBRANCH  29  30
ENDBRANCH  28  29
ENDBRANCH  27  28
ENDBRANCH  10  27
TORSDOF 10
ENDMDL
MODEL 5
REMARK VINA RESULT: -4.819684333      3.046      4.778
REMARK  10 active torsions:
REMARK  status: ('A' for Active; 'I' for Inactive)
REMARK       I    between atoms: N1_1  and  C1_4 
REMARK       I    between atoms: C1_4  and  N2_5 
REMARK       I    between atoms: C1_4  and  N7_28 
REMARK    1  A    between atoms: N2_5  and  C2_7 
REMARK    2  A    between atoms: N5_16  and  C6_17 
REMARK    3  A    between atoms: C6_17  and  C7_18 
REMARK    4  A    between atoms: C7_18  and  C8_19 
REMARK    5  A    between atoms: C8_19  and  C9_20 
REMARK    6  A    between atoms: C9_20  and  C10_21 
REMARK    7  A    between atoms: C10_21  and  N6_22 
REMARK    8  A    between atoms: N7_28  and  N8_30 
REMARK    9  A    between atoms: N8_30  and  N9_31 
REMARK   10  A    between atoms: N8_30  and  O3_34 
ROOT
HETATM    1  C2  UNL     1      40.623  11.803  17.954  1.00  0.00     0.247 A 
HETATM    2  N3  UNL     1      41.518  10.798  17.976  1.00  0.00    -0.286 N 
ATOM      3  H3  UNL     1      41.179   9.839  18.062  1.00  0.00     0.172 HD
HETATM    4  C3  UNL     1      42.843  11.009  17.889  1.00  0.00     0.279 A 
HETATM    5  O1  UNL     1      43.702  10.120  17.905  1.00  0.00    -0.265 OA
HETATM    6  C4  UNL     1      43.236  12.349  17.773  1.00  0.00     0.154 A 
HETATM    7  N4  UNL     1      44.418  12.932  17.667  1.00  0.00    -0.344 N 
ATOM      8  H4  UNL     1      45.322  12.460  17.651  1.00  0.00     0.167 HD
HETATM    9  C5  UNL     1      44.213  14.275  17.584  1.00  0.00     0.186 A 
HETATM   10  N5  UNL     1      42.918  14.558  17.634  1.00  0.00    -0.318 N 
HETATM   11  C11 UNL     1      42.288  13.346  17.754  1.00  0.00     0.187 A 
HETATM   12  O2  UNL     1      41.012  13.049  17.845  1.00  0.00    -0.259 OA
ENDROOT
BRANCH   1  13
HETATM   13  N2  UNL     1      39.354  11.495  18.045  1.00  0.00    -0.153 N 
HETATM   14  C1  UNL     1      38.794  10.966  19.229  1.00  0.00     0.692 C 
HETATM   15  N1  UNL     1      38.867   9.713  19.480  1.00  0.00    -0.233 N 
HETATM   16  N7  UNL     1      38.152  11.835  20.135  1.00  0.00    -0.110 N 
ATOM     17  H12 UNL     1      39.331   9.085  18.824  1.00  0.00     0.174 HD
ATOM     18  H11 UNL     1      38.463   9.330  20.334  1.00  0.00     0.174 HD
ATOM     19  H7  UNL     1      38.696  12.574  20.580  1.00  0.00     0.203 HD
ATOM     20  H2  UNL     1      38.750  11.643  17.235  1.00  0.00     0.188 HD
BRANCH  16  21
HETATM   21  N8  UNL     1      36.795  11.716  20.445  1.00  0.00     0.004 NA
BRANCH  21  22
HETATM   22  N9  UNL     1      36.026  11.511  19.308  1.00  0.00    -0.322 NA
ATOM     23  H92 UNL     1      35.231  12.150  19.307  1.00  0.00     0.175 HD
ATOM     24  H91 UNL     1      35.696  10.547  19.246  1.00  0.00     0.175 HD
ENDBRANCH  21  22
BRANCH  21  25
HETATM   25  O3  UNL     1      36.606  10.686  21.327  1.00  0.00    -0.276 OA
ATOM     26  H3  UNL     1      36.005  10.050  20.957  1.00  0.00     0.241 HD
ENDBRANCH  21  25
ENDBRANCH  16  21
ENDBRANCH   1  13
BRANCH  10  27
HETATM   27  C6  UNL     1      42.202  15.843  17.595  1.00  0.00     0.159 C 
BRANCH  27  28
HETATM   28  C7  UNL     1      41.539  16.131  16.317  1.00  0.00    -0.011 C 
BRANCH  28  29
HETATM   29  C8  UNL     1      41.652  17.409  15.628  1.00  0.00    -0.027 C 
BRANCH  29  30
HETATM   30  C9  UNL     1      42.869  18.228  15.666  1.00  0.00     0.054 C 
BRANCH  30  31
HETATM   31  C10 UNL     1      42.796  19.711  15.610  1.00  0.00     0.233 C 
BRANCH  31  32
HETATM   32  N6  UNL     1      43.713  20.177  14.528  1.00  0.00    -0.079 N 
ATOM     33  H63 UNL     1      43.488  21.116  14.197  1.00  0.00     0.274 HD
ATOM     34  H62 UNL     1      44.655  20.373  14.866  1.00  0.00     0.274 HD
ATOM     35  H61 UNL     1      43.698  19.482  13.782  1.00  0.00     0.274 HD
ENDBRANCH  31  32
ENDBRANCH  30  31
ENDBRANCH  29  30
ENDBRANCH  28  29
ENDBRANCH  27  28
ENDBRANCH  10  27
TORSDOF 10
ENDMDL
