MODEL 1
REMARK VINA RESULT: -5.717025937      0.000      0.000
REMARK  7 active torsions:
REMARK  status: ('A' for Active; 'I' for Inactive)
REMARK    1  A    between atoms: N1_1  and  C1_4 
REMARK    2  A    between atoms: N3_9  and  C3_10 
REMARK    3  A    between atoms: C3_10  and  C4_11 
REMARK       I    between atoms: C4_11  and  N4_13 
REMARK    4  A    between atoms: N4_13  and  C5_15 
REMARK    5  A    between atoms: C5_15  and  C6_16 
REMARK    6  A    between atoms: C6_16  and  N5_17 
REMARK    7  A    between atoms: N5_17  and  C7_19 
ROOT
HETATM    1  C4  UNL     1      38.115   8.354  21.458  1.00  0.00     0.236 C 
HETATM    2  O2  UNL     1      36.908   8.402  21.810  1.00  0.00    -0.272 OA
HETATM    3  N4  UNL     1      38.648   9.509  20.825  1.00  0.00    -0.358 N 
ATOM      4  H4  UNL     1      39.624   9.498  20.530  1.00  0.00     0.162 HD
ENDROOT
BRANCH   1   5
HETATM    5  C3  UNL     1      38.981   7.188  21.666  1.00  0.00     0.241 C 
BRANCH   5   6
HETATM    6  N3  UNL     1      39.227   6.445  20.449  1.00  0.00    -0.242 N 
HETATM    7  C2  UNL     1      38.424   5.436  20.069  1.00  0.00     0.345 A 
HETATM    8  N2  UNL     1      38.658   4.739  18.920  1.00  0.00    -0.141 N 
HETATM    9  O1  UNL     1      37.434   5.108  20.763  1.00  0.00    -0.246 OA
HETATM   10  C1  UNL     1      39.693   5.046  18.148  1.00  0.00     0.683 A 
ATOM     11  H2  UNL     1      38.033   3.977  18.654  1.00  0.00     0.189 HD
HETATM   12  N8  UNL     1      40.509   6.050  18.509  1.00  0.00    -0.141 N 
HETATM   13  C11 UNL     1      40.269   6.735  19.648  1.00  0.00     0.345 A 
ATOM     14  H8  UNL     1      41.308   6.295  17.923  1.00  0.00     0.189 HD
HETATM   15  O4  UNL     1      41.047   7.672  19.963  1.00  0.00    -0.246 OA
BRANCH  10  16
HETATM   16  N1  UNL     1      39.909   4.368  17.046  1.00  0.00    -0.234 N 
ATOM     17  H12 UNL     1      40.801   4.440  16.556  1.00  0.00     0.174 HD
ATOM     18  H11 UNL     1      39.180   3.761  16.672  1.00  0.00     0.174 HD
ENDBRANCH  10  16
ENDBRANCH   5   6
ENDBRANCH   1   5
BRANCH   3  19
HETATM   19  C5  UNL     1      37.864  10.700  20.580  1.00  0.00     0.142 C 
BRANCH  19  20
HETATM   20  C6  UNL     1      38.160  11.290  19.222  1.00  0.00     0.139 C 
BRANCH  20  21
HETATM   21  N5  UNL     1      39.384  10.802  18.660  1.00  0.00    -0.384 N 
ATOM     22  H5  UNL     1      39.584   9.802  18.637  1.00  0.00     0.159 HD
BRANCH  21  23
HETATM   23  C7  UNL     1      40.310  11.732  18.139  1.00  0.00     0.099 A 
HETATM   24  C8  UNL     1      40.066  13.092  18.127  1.00  0.00     0.053 A 
HETATM   25  C9  UNL     1      40.970  13.987  17.620  1.00  0.00     0.109 A 
HETATM   26  N6  UNL     1      42.125  13.511  17.121  1.00  0.00    -0.309 N 
HETATM   27  N7  UNL     1      42.396  12.221  17.114  1.00  0.00    -0.265 N 
ATOM     28  H6  UNL     1      42.809  14.165  16.739  1.00  0.00     0.186 HD
HETATM   29  C10 UNL     1      41.523  11.324  17.608  1.00  0.00     0.286 A 
ATOM     30  H7  UNL     1      43.283  11.897  16.728  1.00  0.00     0.190 HD
HETATM   31  O3  UNL     1      41.779  10.089  17.602  1.00  0.00    -0.264 OA
ENDBRANCH  21  23
ENDBRANCH  20  21
ENDBRANCH  19  20
ENDBRANCH   3  19
TORSDOF 7
ENDMDL
MODEL 2
REMARK VINA RESULT: -5.712861242      0.036      1.638
REMARK  7 active torsions:
REMARK  status: ('A' for Active; 'I' for Inactive)
REMARK    1  A    between atoms: N1_1  and  C1_4 
REMARK    2  A    between atoms: N3_9  and  C3_10 
REMARK    3  A    between atoms: C3_10  and  C4_11 
REMARK       I    between atoms: C4_11  and  N4_13 
REMARK    4  A    between atoms: N4_13  and  C5_15 
REMARK    5  A    between atoms: C5_15  and  C6_16 
REMARK    6  A    between atoms: C6_16  and  N5_17 
REMARK    7  A    between atoms: N5_17  and  C7_19 
ROOT
HETATM    1  C4  UNL     1      38.073   8.365  21.464  1.00  0.00     0.236 C 
HETATM    2  O2  UNL     1      36.871   8.430  21.828  1.00  0.00    -0.272 OA
HETATM    3  N4  UNL     1      38.611   9.507  20.811  1.00  0.00    -0.358 N 
ATOM      4  H4  UNL     1      39.584   9.482  20.506  1.00  0.00     0.162 HD
ENDROOT
BRANCH   1   5
HETATM    5  C3  UNL     1      38.928   7.192  21.676  1.00  0.00     0.241 C 
BRANCH   5   6
HETATM    6  N3  UNL     1      39.182   6.453  20.458  1.00  0.00    -0.242 N 
HETATM    7  C2  UNL     1      40.219   6.756  19.657  1.00  0.00     0.345 A 
HETATM    8  N2  UNL     1      40.458   6.058  18.511  1.00  0.00    -0.141 N 
HETATM    9  O1  UNL     1      40.999   7.694  19.946  1.00  0.00    -0.246 OA
HETATM   10  C1  UNL     1      39.662   5.054  18.159  1.00  0.00     0.683 A 
ATOM     11  H2  UNL     1      41.251   6.307  17.921  1.00  0.00     0.189 HD
HETATM   12  N8  UNL     1      38.620   4.734  18.944  1.00  0.00    -0.141 N 
HETATM   13  C11 UNL     1      38.393   5.432  20.078  1.00  0.00     0.345 A 
ATOM     14  H8  UNL     1      38.002   3.965  18.684  1.00  0.00     0.189 HD
HETATM   15  O4  UNL     1      37.410   5.112  20.796  1.00  0.00    -0.246 OA
BRANCH  10  16
HETATM   16  N1  UNL     1      39.899   4.389  17.055  1.00  0.00    -0.234 N 
ATOM     17  H12 UNL     1      40.802   4.461  16.586  1.00  0.00     0.174 HD
ATOM     18  H11 UNL     1      39.175   3.791  16.656  1.00  0.00     0.174 HD
ENDBRANCH  10  16
ENDBRANCH   5   6
ENDBRANCH   1   5
BRANCH   3  19
HETATM   19  C5  UNL     1      37.837  10.703  20.561  1.00  0.00     0.142 C 
BRANCH  19  20
HETATM   20  C6  UNL     1      38.142  11.289  19.203  1.00  0.00     0.139 C 
BRANCH  20  21
HETATM   21  N5  UNL     1      39.373  10.802  18.654  1.00  0.00    -0.384 N 
ATOM     22  H5  UNL     1      39.575   9.802  18.637  1.00  0.00     0.159 HD
BRANCH  21  23
HETATM   23  C7  UNL     1      40.300  11.733  18.136  1.00  0.00     0.099 A 
HETATM   24  C8  UNL     1      40.058  13.093  18.130  1.00  0.00     0.053 A 
HETATM   25  C9  UNL     1      40.963  13.988  17.626  1.00  0.00     0.109 A 
HETATM   26  N6  UNL     1      42.118  13.513  17.125  1.00  0.00    -0.309 N 
HETATM   27  N7  UNL     1      42.386  12.222  17.113  1.00  0.00    -0.265 N 
ATOM     28  H6  UNL     1      42.802  14.167  16.746  1.00  0.00     0.186 HD
HETATM   29  C10 UNL     1      41.512  11.324  17.603  1.00  0.00     0.286 A 
ATOM     30  H7  UNL     1      43.272  11.899  16.725  1.00  0.00     0.190 HD
HETATM   31  O3  UNL     1      41.766  10.090  17.592  1.00  0.00    -0.264 OA
ENDBRANCH  21  23
ENDBRANCH  20  21
ENDBRANCH  19  20
ENDBRANCH   3  19
TORSDOF 7
ENDMDL
MODEL 3
REMARK VINA RESULT: -5.643965559      3.816      7.506
REMARK  7 active torsions:
REMARK  status: ('A' for Active; 'I' for Inactive)
REMARK    1  A    between atoms: N1_1  and  C1_4 
REMARK    2  A    between atoms: N3_9  and  C3_10 
REMARK    3  A    between atoms: C3_10  and  C4_11 
REMARK       I    between atoms: C4_11  and  N4_13 
REMARK    4  A    between atoms: N4_13  and  C5_15 
REMARK    5  A    between atoms: C5_15  and  C6_16 
REMARK    6  A    between atoms: C6_16  and  N5_17 
REMARK    7  A    between atoms: N5_17  and  C7_19 
ROOT
HETATM    1  C4  UNL     1      39.013  10.604  19.649  1.00  0.00     0.236 C 
HETATM    2  O2  UNL     1      38.473  10.062  18.651  1.00  0.00    -0.272 OA
HETATM    3  N4  UNL     1      38.149  11.048  20.686  1.00  0.00    -0.358 N 
ATOM      4  H4  UNL     1      38.560  11.491  21.508  1.00  0.00     0.162 HD
ENDROOT
BRANCH   1   5
HETATM    5  C3  UNL     1      40.461  10.795  19.792  1.00  0.00     0.241 C 
BRANCH   5   6
HETATM    6  N3  UNL     1      40.978  11.840  18.934  1.00  0.00    -0.242 N 
HETATM    7  C2  UNL     1      40.786  13.140  19.219  1.00  0.00     0.345 A 
HETATM    8  N2  UNL     1      41.275  14.123  18.410  1.00  0.00    -0.141 N 
HETATM    9  O1  UNL     1      40.149  13.485  20.242  1.00  0.00    -0.246 OA
HETATM   10  C1  UNL     1      41.957  13.811  17.314  1.00  0.00     0.683 A 
ATOM     11  H2  UNL     1      41.116  15.102  18.648  1.00  0.00     0.189 HD
HETATM   12  N8  UNL     1      42.160  12.519  17.009  1.00  0.00    -0.141 N 
HETATM   13  C11 UNL     1      41.672  11.553  17.818  1.00  0.00     0.345 A 
ATOM     14  H8  UNL     1      42.683  12.268  16.170  1.00  0.00     0.189 HD
HETATM   15  O4  UNL     1      41.877  10.350  17.511  1.00  0.00    -0.246 OA
BRANCH  10  16
HETATM   16  N1  UNL     1      42.422  14.764  16.542  1.00  0.00    -0.234 N 
ATOM     17  H12 UNL     1      42.075  15.719  16.626  1.00  0.00     0.174 HD
ATOM     18  H11 UNL     1      43.140  14.551  15.849  1.00  0.00     0.174 HD
ENDBRANCH  10  16
ENDBRANCH   5   6
ENDBRANCH   1   5
BRANCH   3  19
HETATM   19  C5  UNL     1      36.711  10.900  20.625  1.00  0.00     0.142 C 
BRANCH  19  20
HETATM   20  C6  UNL     1      36.173  10.206  21.854  1.00  0.00     0.139 C 
BRANCH  20  21
HETATM   21  N5  UNL     1      34.860   9.668  21.656  1.00  0.00    -0.384 N 
ATOM     22  H5  UNL     1      34.723   8.666  21.522  1.00  0.00     0.159 HD
BRANCH  21  23
HETATM   23  C7  UNL     1      33.758  10.552  21.650  1.00  0.00     0.099 A 
HETATM   24  C8  UNL     1      33.517  11.441  22.679  1.00  0.00     0.053 A 
HETATM   25  C9  UNL     1      32.446  12.294  22.664  1.00  0.00     0.109 A 
HETATM   26  N6  UNL     1      31.614  12.253  21.608  1.00  0.00    -0.309 N 
HETATM   27  N7  UNL     1      31.810  11.419  20.605  1.00  0.00    -0.265 N 
ATOM     28  H6  UNL     1      30.812  12.882  21.582  1.00  0.00     0.186 HD
HETATM   29  C10 UNL     1      32.856  10.572  20.599  1.00  0.00     0.286 A 
ATOM     30  H7  UNL     1      31.158  11.417  19.821  1.00  0.00     0.190 HD
HETATM   31  O3  UNL     1      33.045   9.774  19.642  1.00  0.00    -0.264 OA
ENDBRANCH  21  23
ENDBRANCH  20  21
ENDBRANCH  19  20
ENDBRANCH   3  19
TORSDOF 7
ENDMDL
MODEL 4
REMARK VINA RESULT: -5.638048525      3.819      7.512
REMARK  7 active torsions:
REMARK  status: ('A' for Active; 'I' for Inactive)
REMARK    1  A    between atoms: N1_1  and  C1_4 
REMARK    2  A    between atoms: N3_9  and  C3_10 
REMARK    3  A    between atoms: C3_10  and  C4_11 
REMARK       I    between atoms: C4_11  and  N4_13 
REMARK    4  A    between atoms: N4_13  and  C5_15 
REMARK    5  A    between atoms: C5_15  and  C6_16 
REMARK    6  A    between atoms: C6_16  and  N5_17 
REMARK    7  A    between atoms: N5_17  and  C7_19 
ROOT
HETATM    1  C4  UNL     1      39.016  10.608  19.656  1.00  0.00     0.236 C 
HETATM    2  O2  UNL     1      38.483  10.067  18.653  1.00  0.00    -0.272 OA
HETATM    3  N4  UNL     1      38.145  11.042  20.691  1.00  0.00    -0.358 N 
ATOM      4  H4  UNL     1      38.550  11.484  21.517  1.00  0.00     0.162 HD
ENDROOT
BRANCH   1   5
HETATM    5  C3  UNL     1      40.462  10.807  19.806  1.00  0.00     0.241 C 
BRANCH   5   6
HETATM    6  N3  UNL     1      40.979  11.848  18.943  1.00  0.00    -0.242 N 
HETATM    7  C2  UNL     1      41.675  11.554  17.830  1.00  0.00     0.345 A 
HETATM    8  N2  UNL     1      42.160  12.536  17.018  1.00  0.00    -0.141 N 
HETATM    9  O1  UNL     1      41.896  10.363  17.508  1.00  0.00    -0.246 OA
HETATM   10  C1  UNL     1      41.953  13.814  17.314  1.00  0.00     0.683 A 
ATOM     11  H2  UNL     1      42.684  12.287  16.179  1.00  0.00     0.189 HD
HETATM   12  N8  UNL     1      41.262  14.130  18.421  1.00  0.00    -0.141 N 
HETATM   13  C11 UNL     1      40.785  13.150  19.219  1.00  0.00     0.345 A 
ATOM     14  H8  UNL     1      41.097  15.109  18.658  1.00  0.00     0.189 HD
HETATM   15  O4  UNL     1      40.139  13.472  20.249  1.00  0.00    -0.246 OA
BRANCH  10  16
HETATM   16  N1  UNL     1      42.425  14.750  16.527  1.00  0.00    -0.234 N 
ATOM     17  H12 UNL     1      41.818  15.491  16.175  1.00  0.00     0.174 HD
ATOM     18  H11 UNL     1      43.410  14.742  16.262  1.00  0.00     0.174 HD
ENDBRANCH  10  16
ENDBRANCH   5   6
ENDBRANCH   1   5
BRANCH   3  19
HETATM   19  C5  UNL     1      36.708  10.886  20.623  1.00  0.00     0.142 C 
BRANCH  19  20
HETATM   20  C6  UNL     1      36.165  10.210  21.860  1.00  0.00     0.139 C 
BRANCH  20  21
HETATM   21  N5  UNL     1      34.854   9.666  21.664  1.00  0.00    -0.384 N 
ATOM     22  H5  UNL     1      34.720   8.663  21.539  1.00  0.00     0.159 HD
BRANCH  21  23
HETATM   23  C7  UNL     1      33.750  10.547  21.647  1.00  0.00     0.099 A 
HETATM   24  C8  UNL     1      33.500  11.440  22.670  1.00  0.00     0.053 A 
HETATM   25  C9  UNL     1      32.427  12.290  22.645  1.00  0.00     0.109 A 
HETATM   26  N6  UNL     1      31.602  12.243  21.583  1.00  0.00    -0.309 N 
HETATM   27  N7  UNL     1      31.807  11.405  20.586  1.00  0.00    -0.265 N 
ATOM     28  H6  UNL     1      30.798  12.870  21.549  1.00  0.00     0.186 HD
HETATM   29  C10 UNL     1      32.854  10.561  20.590  1.00  0.00     0.286 A 
ATOM     30  H7  UNL     1      31.159  11.398  19.797  1.00  0.00     0.190 HD
HETATM   31  O3  UNL     1      33.052   9.759  19.637  1.00  0.00    -0.264 OA
ENDBRANCH  21  23
ENDBRANCH  20  21
ENDBRANCH  19  20
ENDBRANCH   3  19
TORSDOF 7
ENDMDL
MODEL 5
REMARK VINA RESULT: -5.609294038      3.907      5.527
REMARK  7 active torsions:
REMARK  status: ('A' for Active; 'I' for Inactive)
REMARK    1  A    between atoms: N1_1  and  C1_4 
REMARK    2  A    between atoms: N3_9  and  C3_10 
REMARK    3  A    between atoms: C3_10  and  C4_11 
REMARK       I    between atoms: C4_11  and  N4_13 
REMARK    4  A    between atoms: N4_13  and  C5_15 
REMARK    5  A    between atoms: C5_15  and  C6_16 
REMARK    6  A    between atoms: C6_16  and  N5_17 
REMARK    7  A    between atoms: N5_17  and  C7_19 
ROOT
HETATM    1  C4  UNL     1      36.617  11.120  21.166  1.00  0.00     0.236 C 
HETATM    2  O2  UNL     1      37.320  10.312  21.826  1.00  0.00    -0.272 OA
HETATM    3  N4  UNL     1      37.099  11.493  19.882  1.00  0.00    -0.358 N 
ATOM      4  H4  UNL     1      36.549  12.146  19.325  1.00  0.00     0.162 HD
ENDROOT
BRANCH   1   5
HETATM    5  C3  UNL     1      35.350  11.682  21.646  1.00  0.00     0.241 C 
BRANCH   5   6
HETATM    6  N3  UNL     1      34.198  10.910  21.233  1.00  0.00    -0.242 N 
HETATM    7  C2  UNL     1      33.604  11.118  20.045  1.00  0.00     0.345 A 
HETATM    8  N2  UNL     1      32.520  10.388  19.657  1.00  0.00    -0.141 N 
HETATM    9  O1  UNL     1      34.035  11.994  19.258  1.00  0.00    -0.246 OA
HETATM   10  C1  UNL     1      32.024   9.448  20.453  1.00  0.00     0.683 A 
ATOM     11  H2  UNL     1      32.088  10.565  18.750  1.00  0.00     0.189 HD
HETATM   12  N8  UNL     1      32.601   9.223  21.645  1.00  0.00    -0.141 N 
HETATM   13  C11 UNL     1      33.676   9.952  22.020  1.00  0.00     0.345 A 
ATOM     14  H8  UNL     1      32.229   8.504  22.265  1.00  0.00     0.189 HD
HETATM   15  O4  UNL     1      34.199   9.721  23.141  1.00  0.00    -0.246 OA
BRANCH  10  16
HETATM   16  N1  UNL     1      30.981   8.752  20.071  1.00  0.00    -0.234 N 
ATOM     17  H12 UNL     1      30.559   8.906  19.155  1.00  0.00     0.174 HD
ATOM     18  H11 UNL     1      30.585   8.048  20.693  1.00  0.00     0.174 HD
ENDBRANCH  10  16
ENDBRANCH   5   6
ENDBRANCH   1   5
BRANCH   3  19
HETATM   19  C5  UNL     1      38.338  10.986  19.333  1.00  0.00     0.142 C 
BRANCH  19  20
HETATM   20  C6  UNL     1      39.102  12.064  18.600  1.00  0.00     0.139 C 
BRANCH  20  21
HETATM   21  N5  UNL     1      40.042  11.533  17.658  1.00  0.00    -0.384 N 
ATOM     22  H5  UNL     1      39.765  10.803  17.002  1.00  0.00     0.159 HD
BRANCH  21  23
HETATM   23  C7  UNL     1      41.360  12.040  17.657  1.00  0.00     0.099 A 
HETATM   24  C8  UNL     1      41.632  13.393  17.714  1.00  0.00     0.053 A 
HETATM   25  C9  UNL     1      42.913  13.876  17.712  1.00  0.00     0.109 A 
HETATM   26  N6  UNL     1      43.926  12.993  17.653  1.00  0.00    -0.309 N 
HETATM   27  N7  UNL     1      43.708  11.694  17.597  1.00  0.00    -0.265 N 
ATOM     28  H6  UNL     1      44.887  13.337  17.650  1.00  0.00     0.186 HD
HETATM   29  C10 UNL     1      42.458  11.197  17.598  1.00  0.00     0.286 A 
ATOM     30  H7  UNL     1      44.502  11.055  17.553  1.00  0.00     0.190 HD
HETATM   31  O3  UNL     1      42.247   9.955  17.544  1.00  0.00    -0.264 OA
ENDBRANCH  21  23
ENDBRANCH  20  21
ENDBRANCH  19  20
ENDBRANCH   3  19
TORSDOF 7
ENDMDL
