MODEL 1
REMARK VINA RESULT: -5.942488343      0.000      0.000
REMARK  9 active torsions:
REMARK  status: ('A' for Active; 'I' for Inactive)
REMARK    1  A    between atoms: C2_2  and  N1_3 
REMARK    2  A    between atoms: C3_4  and  N2_5 
REMARK    3  A    between atoms: N2_5  and  C4_7 
REMARK    4  A    between atoms: C4_7  and  C5_8 
REMARK    5  A    between atoms: C5_8  and  C6_9 
REMARK    6  A    between atoms: C6_9  and  N3_10 
REMARK    7  A    between atoms: N3_10  and  N4_12 
REMARK    8  A    between atoms: N4_12  and  C7_14 
REMARK    9  A    between atoms: C8_17  and  N6_18 
ROOT
HETATM    1  N3  UNL     1      36.164  11.480  19.318  1.00  0.00    -0.322 N 
ATOM      2  H3  UNL     1      35.723  11.467  18.398  1.00  0.00     0.180 HD
ENDROOT
BRANCH   1   3
HETATM    3  C6  UNL     1      37.547  11.110  19.412  1.00  0.00     0.141 C 
BRANCH   3   4
HETATM    4  C5  UNL     1      38.281  11.806  18.280  1.00  0.00     0.041 C 
BRANCH   4   5
HETATM    5  C4  UNL     1      39.567  12.357  18.844  1.00  0.00     0.123 C 
BRANCH   5   6
HETATM    6  N2  UNL     1      40.608  11.370  18.910  1.00  0.00    -0.375 N 
ATOM      7  H2  UNL     1      40.424  10.476  19.366  1.00  0.00     0.161 HD
BRANCH   6   8
HETATM    8  C3  UNL     1      41.771  11.593  18.402  1.00  0.00     0.124 A 
HETATM    9  N1  UNL     1      42.688  10.619  18.249  1.00  0.00    -0.284 N 
HETATM   10  C11 UNL     1      43.867  10.952  17.711  1.00  0.00     0.342 A 
HETATM   11  N10 UNL     1      44.181  12.195  17.320  1.00  0.00    -0.252 N 
HETATM   12  O2  UNL     1      44.708  10.051  17.573  1.00  0.00    -0.245 OA
HETATM   13  N9  UNL     1      43.305  13.173  17.454  1.00  0.00    -0.304 N 
ATOM     14  H10 UNL     1      45.099  12.385  16.917  1.00  0.00     0.191 HD
HETATM   15  C10 UNL     1      42.092  12.890  17.995  1.00  0.00     0.155 A 
ATOM     16  H9  UNL     1      43.533  14.122  17.158  1.00  0.00     0.186 HD
BRANCH   9  17
HETATM   17  C2  UNL     1      42.323   9.300  18.678  1.00  0.00     0.131 C 
HETATM   18  C1  UNL     1      42.801   8.919  20.030  1.00  0.00     0.027 C 
ENDBRANCH   9  17
ENDBRANCH   6   8
ENDBRANCH   5   6
ENDBRANCH   4   5
ENDBRANCH   3   4
ENDBRANCH   1   3
BRANCH   1  19
HETATM   19  N4  UNL     1      35.389  11.856  20.419  1.00  0.00    -0.136 N 
ATOM     20  H4  UNL     1      35.791  12.494  21.105  1.00  0.00     0.205 HD
BRANCH  19  21
HETATM   21  C7  UNL     1      34.186  11.429  20.602  1.00  0.00     0.715 A 
HETATM   22  N5  UNL     1      33.347  12.204  21.313  1.00  0.00    -0.021 N 
HETATM   23  C8  UNL     1      32.059  11.817  21.548  1.00  0.00     0.694 A 
ATOM     24  H5  UNL     1      33.678  13.095  21.683  1.00  0.00     0.203 HD
HETATM   25  N7  UNL     1      31.619  10.644  21.061  1.00  0.00    -0.141 N 
HETATM   26  C9  UNL     1      32.441   9.854  20.348  1.00  0.00     0.352 A 
ATOM     27  H7  UNL     1      30.657  10.353  21.233  1.00  0.00     0.189 HD
HETATM   28  O1  UNL     1      32.010   8.758  19.901  1.00  0.00    -0.246 OA
HETATM   29  N8  UNL     1      33.722  10.264  20.128  1.00  0.00    -0.139 N 
ATOM     30  H8  UNL     1      34.347   9.666  19.587  1.00  0.00     0.189 HD
BRANCH  23  31
HETATM   31  N6  UNL     1      31.274  12.561  22.222  1.00  0.00    -0.234 N 
ATOM     32  H62 UNL     1      31.557  13.510  22.467  1.00  0.00     0.174 HD
ATOM     33  H61 UNL     1      30.362  12.214  22.521  1.00  0.00     0.174 HD
ENDBRANCH  23  31
ENDBRANCH  19  21
ENDBRANCH   1  19
TORSDOF 9
ENDMDL
MODEL 2
REMARK VINA RESULT: -5.834317960      1.603      2.625
REMARK  9 active torsions:
REMARK  status: ('A' for Active; 'I' for Inactive)
REMARK    1  A    between atoms: C2_2  and  N1_3 
REMARK    2  A    between atoms: C3_4  and  N2_5 
REMARK    3  A    between atoms: N2_5  and  C4_7 
REMARK    4  A    between atoms: C4_7  and  C5_8 
REMARK    5  A    between atoms: C5_8  and  C6_9 
REMARK    6  A    between atoms: C6_9  and  N3_10 
REMARK    7  A    between atoms: N3_10  and  N4_12 
REMARK    8  A    between atoms: N4_12  and  C7_14 
REMARK    9  A    between atoms: C8_17  and  N6_18 
ROOT
HETATM    1  N3  UNL     1      36.258  11.495  19.267  1.00  0.00    -0.322 N 
ATOM      2  H3  UNL     1      35.797  11.509  18.357  1.00  0.00     0.180 HD
ENDROOT
BRANCH   1   3
HETATM    3  C6  UNL     1      37.640  11.112  19.322  1.00  0.00     0.141 C 
BRANCH   3   4
HETATM    4  C5  UNL     1      38.363  11.863  18.218  1.00  0.00     0.041 C 
BRANCH   4   5
HETATM    5  C4  UNL     1      39.572  12.521  18.833  1.00  0.00     0.123 C 
BRANCH   5   6
HETATM    6  N2  UNL     1      40.342  13.266  17.878  1.00  0.00    -0.375 N 
ATOM      7  H2  UNL     1      39.872  13.937  17.269  1.00  0.00     0.161 HD
BRANCH   6   8
HETATM    8  C3  UNL     1      41.616  13.104  17.775  1.00  0.00     0.124 A 
HETATM    9  N1  UNL     1      42.483  14.128  17.876  1.00  0.00    -0.284 N 
HETATM   10  C11 UNL     1      43.787  13.856  17.755  1.00  0.00     0.342 A 
HETATM   11  N10 UNL     1      44.273  12.626  17.540  1.00  0.00    -0.252 N 
HETATM   12  O2  UNL     1      44.581  14.805  17.849  1.00  0.00    -0.245 OA
HETATM   13  N9  UNL     1      43.451  11.598  17.437  1.00  0.00    -0.304 N 
ATOM     14  H10 UNL     1      45.279  12.484  17.456  1.00  0.00     0.191 HD
HETATM   15  C10 UNL     1      42.116  11.819  17.552  1.00  0.00     0.155 A 
ATOM     16  H9  UNL     1      43.811  10.657  17.275  1.00  0.00     0.186 HD
BRANCH   9  17
HETATM   17  C2  UNL     1      41.932  15.434  18.105  1.00  0.00     0.131 C 
HETATM   18  C1  UNL     1      41.778  16.277  16.894  1.00  0.00     0.027 C 
ENDBRANCH   9  17
ENDBRANCH   6   8
ENDBRANCH   5   6
ENDBRANCH   4   5
ENDBRANCH   3   4
ENDBRANCH   1   3
BRANCH   1  19
HETATM   19  N4  UNL     1      35.510  11.849  20.394  1.00  0.00    -0.136 N 
ATOM     20  H4  UNL     1      35.939  12.452  21.097  1.00  0.00     0.205 HD
BRANCH  19  21
HETATM   21  C7  UNL     1      34.300  11.446  20.581  1.00  0.00     0.715 A 
HETATM   22  N5  UNL     1      33.491  12.214  21.333  1.00  0.00    -0.021 N 
HETATM   23  C8  UNL     1      32.198  11.851  21.575  1.00  0.00     0.694 A 
ATOM     24  H5  UNL     1      33.851  13.083  21.730  1.00  0.00     0.203 HD
HETATM   25  N7  UNL     1      31.722  10.708  21.054  1.00  0.00    -0.141 N 
HETATM   26  C9  UNL     1      32.512   9.923  20.300  1.00  0.00     0.352 A 
ATOM     27  H7  UNL     1      30.755  10.434  21.231  1.00  0.00     0.189 HD
HETATM   28  O1  UNL     1      32.048   8.855  19.821  1.00  0.00    -0.246 OA
HETATM   29  N8  UNL     1      33.800  10.310  20.074  1.00  0.00    -0.139 N 
ATOM     30  H8  UNL     1      34.401   9.717  19.501  1.00  0.00     0.189 HD
BRANCH  23  31
HETATM   31  N6  UNL     1      31.443  12.589  22.288  1.00  0.00    -0.234 N 
ATOM     32  H62 UNL     1      31.651  12.726  23.278  1.00  0.00     0.174 HD
ATOM     33  H61 UNL     1      30.628  13.045  21.878  1.00  0.00     0.174 HD
ENDBRANCH  23  31
ENDBRANCH  19  21
ENDBRANCH   1  19
TORSDOF 9
ENDMDL
MODEL 3
REMARK VINA RESULT: -5.739610422      2.572      3.586
REMARK  9 active torsions:
REMARK  status: ('A' for Active; 'I' for Inactive)
REMARK    1  A    between atoms: C2_2  and  N1_3 
REMARK    2  A    between atoms: C3_4  and  N2_5 
REMARK    3  A    between atoms: N2_5  and  C4_7 
REMARK    4  A    between atoms: C4_7  and  C5_8 
REMARK    5  A    between atoms: C5_8  and  C6_9 
REMARK    6  A    between atoms: C6_9  and  N3_10 
REMARK    7  A    between atoms: N3_10  and  N4_12 
REMARK    8  A    between atoms: N4_12  and  C7_14 
REMARK    9  A    between atoms: C8_17  and  N6_18 
ROOT
HETATM    1  N3  UNL     1      37.320  11.532  19.038  1.00  0.00    -0.322 N 
ATOM      2  H3  UNL     1      36.714  11.720  18.239  1.00  0.00     0.180 HD
ENDROOT
BRANCH   1   3
HETATM    3  C6  UNL     1      38.718  11.324  18.795  1.00  0.00     0.141 C 
BRANCH   3   4
HETATM    4  C5  UNL     1      39.192  12.445  17.887  1.00  0.00     0.041 C 
BRANCH   4   5
HETATM    5  C4  UNL     1      40.350  13.126  18.573  1.00  0.00     0.123 C 
BRANCH   5   6
HETATM    6  N2  UNL     1      40.934  14.163  17.771  1.00  0.00    -0.375 N 
ATOM      7  H2  UNL     1      40.331  14.871  17.349  1.00  0.00     0.161 HD
BRANCH   6   8
HETATM    8  C3  UNL     1      42.206  14.218  17.574  1.00  0.00     0.124 A 
HETATM    9  N1  UNL     1      42.815  15.323  17.104  1.00  0.00    -0.284 N 
HETATM   10  C11 UNL     1      44.141  15.279  16.933  1.00  0.00     0.342 A 
HETATM   11  N10 UNL     1      44.891  14.201  17.204  1.00  0.00    -0.252 N 
HETATM   12  O2  UNL     1      44.697  16.300  16.500  1.00  0.00    -0.245 OA
HETATM   13  N9  UNL     1      44.325  13.101  17.667  1.00  0.00    -0.304 N 
ATOM     14  H10 UNL     1      45.898  14.231  17.051  1.00  0.00     0.191 HD
HETATM   15  C10 UNL     1      42.982  13.092  17.858  1.00  0.00     0.155 A 
ATOM     16  H9  UNL     1      44.887  12.276  17.878  1.00  0.00     0.186 HD
BRANCH   9  17
HETATM   17  C2  UNL     1      41.986  16.460  16.823  1.00  0.00     0.131 C 
HETATM   18  C1  UNL     1      41.592  16.620  15.401  1.00  0.00     0.027 C 
ENDBRANCH   9  17
ENDBRANCH   6   8
ENDBRANCH   5   6
ENDBRANCH   4   5
ENDBRANCH   3   4
ENDBRANCH   1   3
BRANCH   1  19
HETATM   19  N4  UNL     1      36.742  11.490  20.311  1.00  0.00    -0.136 N 
ATOM     20  H4  UNL     1      37.281  11.837  21.104  1.00  0.00     0.205 HD
BRANCH  19  21
HETATM   21  C7  UNL     1      35.557  11.030  20.523  1.00  0.00     0.715 A 
HETATM   22  N5  UNL     1      34.565  11.456  19.720  1.00  0.00    -0.021 N 
HETATM   23  C8  UNL     1      33.285  11.012  19.885  1.00  0.00     0.694 A 
ATOM     24  H5  UNL     1      34.773  12.121  18.975  1.00  0.00     0.203 HD
HETATM   25  N7  UNL     1      33.007  10.135  20.864  1.00  0.00    -0.141 N 
HETATM   26  C9  UNL     1      33.983   9.696  21.680  1.00  0.00     0.352 A 
ATOM     27  H7  UNL     1      32.052   9.801  20.990  1.00  0.00     0.189 HD
HETATM   28  O1  UNL     1      33.703   8.875  22.593  1.00  0.00    -0.246 OA
HETATM   29  N8  UNL     1      35.253  10.155  21.493  1.00  0.00    -0.139 N 
ATOM     30  H8  UNL     1      35.995   9.823  22.109  1.00  0.00     0.189 HD
BRANCH  23  31
HETATM   31  N6  UNL     1      32.355  11.423  19.116  1.00  0.00    -0.234 N 
ATOM     32  H62 UNL     1      32.255  12.420  18.926  1.00  0.00     0.174 HD
ATOM     33  H61 UNL     1      31.707  10.761  18.689  1.00  0.00     0.174 HD
ENDBRANCH  23  31
ENDBRANCH  19  21
ENDBRANCH   1  19
TORSDOF 9
ENDMDL
MODEL 4
REMARK VINA RESULT: -5.726878042      2.382      3.544
REMARK  9 active torsions:
REMARK  status: ('A' for Active; 'I' for Inactive)
REMARK    1  A    between atoms: C2_2  and  N1_3 
REMARK    2  A    between atoms: C3_4  and  N2_5 
REMARK    3  A    between atoms: N2_5  and  C4_7 
REMARK    4  A    between atoms: C4_7  and  C5_8 
REMARK    5  A    between atoms: C5_8  and  C6_9 
REMARK    6  A    between atoms: C6_9  and  N3_10 
REMARK    7  A    between atoms: N3_10  and  N4_12 
REMARK    8  A    between atoms: N4_12  and  C7_14 
REMARK    9  A    between atoms: C8_17  and  N6_18 
ROOT
HETATM    1  N3  UNL     1      37.274  11.508  19.653  1.00  0.00    -0.322 N 
ATOM      2  H3  UNL     1      37.373  11.805  20.624  1.00  0.00     0.180 HD
ENDROOT
BRANCH   1   3
HETATM    3  C6  UNL     1      38.445  11.059  18.957  1.00  0.00     0.141 C 
BRANCH   3   4
HETATM    4  C5  UNL     1      38.842  12.155  17.984  1.00  0.00     0.041 C 
BRANCH   4   5
HETATM    5  C4  UNL     1      39.996  12.908  18.596  1.00  0.00     0.123 C 
BRANCH   5   6
HETATM    6  N2  UNL     1      40.664  13.760  17.652  1.00  0.00    -0.375 N 
ATOM      7  H2  UNL     1      40.109  14.347  17.028  1.00  0.00     0.161 HD
BRANCH   6   8
HETATM    8  C3  UNL     1      41.949  13.796  17.578  1.00  0.00     0.124 A 
HETATM    9  N1  UNL     1      42.624  14.932  17.320  1.00  0.00    -0.284 N 
HETATM   10  C11 UNL     1      43.958  14.866  17.264  1.00  0.00     0.342 A 
HETATM   11  N10 UNL     1      44.656  13.737  17.451  1.00  0.00    -0.252 N 
HETATM   12  O2  UNL     1      44.574  15.916  17.025  1.00  0.00    -0.245 OA
HETATM   13  N9  UNL     1      44.026  12.605  17.708  1.00  0.00    -0.304 N 
ATOM     14  H10 UNL     1      45.673  13.752  17.395  1.00  0.00     0.191 HD
HETATM   15  C10 UNL     1      42.670  12.616  17.775  1.00  0.00     0.155 A 
ATOM     16  H9  UNL     1      44.547  11.740  17.854  1.00  0.00     0.186 HD
BRANCH   9  17
HETATM   17  C2  UNL     1      41.850  16.125  17.123  1.00  0.00     0.131 C 
HETATM   18  C1  UNL     1      41.608  16.496  15.707  1.00  0.00     0.027 C 
ENDBRANCH   9  17
ENDBRANCH   6   8
ENDBRANCH   5   6
ENDBRANCH   4   5
ENDBRANCH   3   4
ENDBRANCH   1   3
BRANCH   1  19
HETATM   19  N4  UNL     1      36.003  11.561  19.071  1.00  0.00    -0.136 N 
ATOM     20  H4  UNL     1      35.931  11.574  18.054  1.00  0.00     0.205 HD
BRANCH  19  21
HETATM   21  C7  UNL     1      34.919  11.594  19.768  1.00  0.00     0.715 A 
HETATM   22  N5  UNL     1      33.947  10.717  19.459  1.00  0.00    -0.021 N 
HETATM   23  C8  UNL     1      32.771  10.694  20.153  1.00  0.00     0.694 A 
ATOM     24  H5  UNL     1      34.090  10.059  18.693  1.00  0.00     0.203 HD
HETATM   25  N7  UNL     1      32.580  11.560  21.162  1.00  0.00    -0.141 N 
HETATM   26  C9  UNL     1      33.537  12.446  21.489  1.00  0.00     0.352 A 
ATOM     27  H7  UNL     1      31.703  11.545  21.684  1.00  0.00     0.189 HD
HETATM   28  O1  UNL     1      33.339  13.250  22.438  1.00  0.00    -0.246 OA
HETATM   29  N8  UNL     1      34.702  12.448  20.780  1.00  0.00    -0.139 N 
ATOM     30  H8  UNL     1      35.430  13.118  21.026  1.00  0.00     0.189 HD
BRANCH  23  31
HETATM   31  N6  UNL     1      31.859   9.858  19.850  1.00  0.00    -0.234 N 
ATOM     32  H62 UNL     1      31.357   9.362  20.586  1.00  0.00     0.174 HD
ATOM     33  H61 UNL     1      31.626   9.678  18.873  1.00  0.00     0.174 HD
ENDBRANCH  23  31
ENDBRANCH  19  21
ENDBRANCH   1  19
TORSDOF 9
ENDMDL
MODEL 5
REMARK VINA RESULT: -5.723706970      1.385      1.826
REMARK  9 active torsions:
REMARK  status: ('A' for Active; 'I' for Inactive)
REMARK    1  A    between atoms: C2_2  and  N1_3 
REMARK    2  A    between atoms: C3_4  and  N2_5 
REMARK    3  A    between atoms: N2_5  and  C4_7 
REMARK    4  A    between atoms: C4_7  and  C5_8 
REMARK    5  A    between atoms: C5_8  and  C6_9 
REMARK    6  A    between atoms: C6_9  and  N3_10 
REMARK    7  A    between atoms: N3_10  and  N4_12 
REMARK    8  A    between atoms: N4_12  and  C7_14 
REMARK    9  A    between atoms: C8_17  and  N6_18 
ROOT
HETATM    1  N3  UNL     1      37.205  11.557  19.824  1.00  0.00    -0.322 N 
ATOM      2  H3  UNL     1      37.291  11.856  20.796  1.00  0.00     0.180 HD
ENDROOT
BRANCH   1   3
HETATM    3  C6  UNL     1      38.389  11.120  19.141  1.00  0.00     0.141 C 
BRANCH   3   4
HETATM    4  C5  UNL     1      38.522  11.962  17.884  1.00  0.00     0.041 C 
BRANCH   4   5
HETATM    5  C4  UNL     1      39.709  12.872  18.071  1.00  0.00     0.123 C 
BRANCH   5   6
HETATM    6  N2  UNL     1      40.770  12.250  18.813  1.00  0.00    -0.375 N 
ATOM      7  H2  UNL     1      40.565  11.815  19.712  1.00  0.00     0.161 HD
BRANCH   6   8
HETATM    8  C3  UNL     1      41.977  12.231  18.362  1.00  0.00     0.124 A 
HETATM    9  N1  UNL     1      42.657  11.085  18.174  1.00  0.00    -0.284 N 
HETATM   10  C11 UNL     1      43.906  11.171  17.702  1.00  0.00     0.342 A 
HETATM   11  N10 UNL     1      44.512  12.330  17.408  1.00  0.00    -0.252 N 
HETATM   12  O2  UNL     1      44.528  10.111  17.530  1.00  0.00    -0.245 OA
HETATM   13  N9  UNL     1      43.873  13.473  17.580  1.00  0.00    -0.304 N 
ATOM     14  H10 UNL     1      45.467  12.329  17.052  1.00  0.00     0.191 HD
HETATM   15  C10 UNL     1      42.602  13.442  18.057  1.00  0.00     0.155 A 
ATOM     16  H9  UNL     1      44.324  14.361  17.358  1.00  0.00     0.186 HD
BRANCH   9  17
HETATM   17  C2  UNL     1      41.983   9.860  18.498  1.00  0.00     0.131 C 
HETATM   18  C1  UNL     1      42.218   9.353  19.872  1.00  0.00     0.027 C 
ENDBRANCH   9  17
ENDBRANCH   6   8
ENDBRANCH   5   6
ENDBRANCH   4   5
ENDBRANCH   3   4
ENDBRANCH   1   3
BRANCH   1  19
HETATM   19  N4  UNL     1      35.940  11.596  19.229  1.00  0.00    -0.136 N 
ATOM     20  H4  UNL     1      35.879  11.677  18.214  1.00  0.00     0.205 HD
BRANCH  19  21
HETATM   21  C7  UNL     1      34.847  11.535  19.911  1.00  0.00     0.715 A 
HETATM   22  N5  UNL     1      33.984  10.543  19.625  1.00  0.00    -0.021 N 
HETATM   23  C8  UNL     1      32.808  10.415  20.305  1.00  0.00     0.694 A 
ATOM     24  H5  UNL     1      34.213   9.876  18.889  1.00  0.00     0.203 HD
HETATM   25  N7  UNL     1      32.504  11.293  21.277  1.00  0.00    -0.141 N 
HETATM   26  C9  UNL     1      33.352  12.292  21.579  1.00  0.00     0.352 A 
ATOM     27  H7  UNL     1      31.626  11.199  21.788  1.00  0.00     0.189 HD
HETATM   28  O1  UNL     1      33.049  13.105  22.493  1.00  0.00    -0.246 OA
HETATM   29  N8  UNL     1      34.520  12.397  20.885  1.00  0.00    -0.139 N 
ATOM     30  H8  UNL     1      35.165  13.153  21.112  1.00  0.00     0.189 HD
BRANCH  23  31
HETATM   31  N6  UNL     1      32.000   9.471  20.025  1.00  0.00    -0.234 N 
ATOM     32  H62 UNL     1      32.190   8.523  20.352  1.00  0.00     0.174 HD
ATOM     33  H61 UNL     1      31.160   9.655  19.475  1.00  0.00     0.174 HD
ENDBRANCH  23  31
ENDBRANCH  19  21
ENDBRANCH   1  19
TORSDOF 9
ENDMDL
