MODEL 1
REMARK VINA RESULT: -5.241990006      0.000      0.000
REMARK  8 active torsions:
REMARK  status: ('A' for Active; 'I' for Inactive)
REMARK    1  A    between atoms: N1_1  and  C1_4 
REMARK    2  A    between atoms: C2_7  and  C3_8 
REMARK    3  A    between atoms: C3_8  and  C4_9 
REMARK    4  A    between atoms: C6_13  and  N4_14 
REMARK    5  A    between atoms: N6_21  and  C8_22 
REMARK    6  A    between atoms: C8_22  and  O2_23 
REMARK    7  A    between atoms: O2_23  and  C9_24 
REMARK    8  A    between atoms: C9_24  and  C10_25 
ROOT
HETATM    1  C1  UNL     1      42.648  15.855  16.670  1.00  0.00     0.681 A 
HETATM    2  N2  UNL     1      42.583  14.515  16.573  1.00  0.00    -0.180 N 
ATOM      3  H2  UNL     1      42.890  14.074  15.706  1.00  0.00     0.185 HD
HETATM    4  C2  UNL     1      42.136  13.737  17.558  1.00  0.00     0.110 A 
HETATM    5  N6  UNL     1      41.731  14.297  18.700  1.00  0.00    -0.265 N 
HETATM    6  C11 UNL     1      41.795  15.637  18.802  1.00  0.00     0.344 A 
HETATM    7  O4  UNL     1      41.404  16.138  19.893  1.00  0.00    -0.246 OA
HETATM    8  N8  UNL     1      42.240  16.432  17.823  1.00  0.00    -0.141 N 
ATOM      9  H8  UNL     1      42.271  17.445  17.943  1.00  0.00     0.189 HD
ENDROOT
BRANCH   4  10
HETATM   10  C3  UNL     1      42.101  12.288  17.363  1.00  0.00     0.123 C 
BRANCH  10  11
HETATM   11  C4  UNL     1      43.272  11.578  17.927  1.00  0.00     0.033 A 
HETATM   12  C5  UNL     1      44.463  12.155  18.246  1.00  0.00     0.119 A 
HETATM   13  N3  UNL     1      45.452  11.399  18.753  1.00  0.00    -0.201 N 
HETATM   14  C6  UNL     1      45.334  10.074  18.970  1.00  0.00     0.678 A 
ATOM     15  H3  UNL     1      46.336  11.852  18.986  1.00  0.00     0.183 HD
HETATM   16  N5  UNL     1      44.151   9.506  18.653  1.00  0.00    -0.156 N 
HETATM   17  C7  UNL     1      43.127  10.216  18.142  1.00  0.00     0.267 A 
ATOM     18  H5  UNL     1      44.028   8.505  18.804  1.00  0.00     0.187 HD
HETATM   19  O1  UNL     1      42.044   9.608  17.869  1.00  0.00    -0.267 OA
BRANCH  14  20
HETATM   20  N4  UNL     1      46.293   9.353  19.460  1.00  0.00    -0.234 N 
ATOM     21  H42 UNL     1      46.262   9.049  20.433  1.00  0.00     0.174 HD
ATOM     22  H41 UNL     1      47.103   9.062  18.912  1.00  0.00     0.174 HD
ENDBRANCH  14  20
ENDBRANCH  10  11
ENDBRANCH   4  10
BRANCH   5  23
HETATM   23  C8  UNL     1      41.228  13.484  19.821  1.00  0.00     0.305 C 
BRANCH  23  24
HETATM   24  O2  UNL     1      39.914  13.242  19.559  1.00  0.00    -0.363 OA
BRANCH  24  25
HETATM   25  C9  UNL     1      39.405  12.017  19.835  1.00  0.00     0.269 C 
BRANCH  25  26
HETATM   26  C10 UNL     1      38.864  11.228  18.733  1.00  0.00     0.254 C 
HETATM   27  N7  UNL     1      38.481  11.961  17.552  1.00  0.00    -0.060 NA
HETATM   28  O3  UNL     1      38.732   9.998  18.788  1.00  0.00    -0.275 OA
ENDBRANCH  25  26
ENDBRANCH  24  25
ENDBRANCH  23  24
ENDBRANCH   5  23
BRANCH   1  29
HETATM   29  N1  UNL     1      43.090  16.563  15.683  1.00  0.00    -0.234 N 
ATOM     30  H12 UNL     1      43.702  17.365  15.836  1.00  0.00     0.174 HD
ATOM     31  H11 UNL     1      42.834  16.328  14.724  1.00  0.00     0.174 HD
ENDBRANCH   1  29
TORSDOF 8
ENDMDL
MODEL 2
REMARK VINA RESULT: -5.153476462      4.308      8.596
REMARK  8 active torsions:
REMARK  status: ('A' for Active; 'I' for Inactive)
REMARK    1  A    between atoms: N1_1  and  C1_4 
REMARK    2  A    between atoms: C2_7  and  C3_8 
REMARK    3  A    between atoms: C3_8  and  C4_9 
REMARK    4  A    between atoms: C6_13  and  N4_14 
REMARK    5  A    between atoms: N6_21  and  C8_22 
REMARK    6  A    between atoms: C8_22  and  O2_23 
REMARK    7  A    between atoms: O2_23  and  C9_24 
REMARK    8  A    between atoms: C9_24  and  C10_25 
ROOT
HETATM    1  C1  UNL     1      37.995   6.763  21.400  1.00  0.00     0.681 A 
HETATM    2  N2  UNL     1      37.449   7.943  21.746  1.00  0.00    -0.180 N 
ATOM      3  H2  UNL     1      36.636   7.941  22.363  1.00  0.00     0.185 HD
HETATM    4  C2  UNL     1      37.920   9.113  21.320  1.00  0.00     0.110 A 
HETATM    5  N6  UNL     1      38.983   9.135  20.512  1.00  0.00    -0.265 N 
HETATM    6  C11 UNL     1      39.533   7.957  20.163  1.00  0.00     0.344 A 
HETATM    7  O4  UNL     1      40.535   8.010  19.399  1.00  0.00    -0.246 OA
HETATM    8  N8  UNL     1      39.072   6.774  20.582  1.00  0.00    -0.141 N 
ATOM      9  H8  UNL     1      39.520   5.905  20.293  1.00  0.00     0.189 HD
ENDROOT
BRANCH   4  10
HETATM   10  C3  UNL     1      37.261  10.347  21.748  1.00  0.00     0.123 C 
BRANCH  10  11
HETATM   11  C4  UNL     1      36.031  10.665  20.986  1.00  0.00     0.033 A 
HETATM   12  C5  UNL     1      35.975  11.447  19.874  1.00  0.00     0.119 A 
HETATM   13  N3  UNL     1      34.793  11.660  19.271  1.00  0.00    -0.201 N 
HETATM   14  C6  UNL     1      33.632  11.133  19.710  1.00  0.00     0.678 A 
ATOM     15  H3  UNL     1      34.773  12.249  18.439  1.00  0.00     0.183 HD
HETATM   16  N5  UNL     1      33.693  10.357  20.813  1.00  0.00    -0.156 N 
HETATM   17  C7  UNL     1      34.850  10.111  21.456  1.00  0.00     0.267 A 
ATOM     18  H5  UNL     1      32.833   9.943  21.172  1.00  0.00     0.187 HD
HETATM   19  O1  UNL     1      34.825   9.369  22.489  1.00  0.00    -0.267 OA
BRANCH  14  20
HETATM   20  N4  UNL     1      32.496  11.343  19.122  1.00  0.00    -0.234 N 
ATOM     21  H42 UNL     1      32.351  12.190  18.573  1.00  0.00     0.174 HD
ATOM     22  H41 UNL     1      31.714  10.690  19.177  1.00  0.00     0.174 HD
ENDBRANCH  14  20
ENDBRANCH  10  11
ENDBRANCH   4  10
BRANCH   5  23
HETATM   23  C8  UNL     1      39.544  10.402  20.011  1.00  0.00     0.305 C 
BRANCH  23  24
HETATM   24  O2  UNL     1      39.173  10.495  18.704  1.00  0.00    -0.363 OA
BRANCH  24  25
HETATM   25  C9  UNL     1      39.715  11.471  17.936  1.00  0.00     0.269 C 
BRANCH  25  26
HETATM   26  C10 UNL     1      41.134  11.386  17.609  1.00  0.00     0.254 C 
HETATM   27  N7  UNL     1      41.863  12.630  17.602  1.00  0.00    -0.060 NA
HETATM   28  O3  UNL     1      41.701  10.316  17.349  1.00  0.00    -0.275 OA
ENDBRANCH  25  26
ENDBRANCH  24  25
ENDBRANCH  23  24
ENDBRANCH   5  23
BRANCH   1  29
HETATM   29  N1  UNL     1      37.497   5.655  21.843  1.00  0.00    -0.234 N 
ATOM     30  H12 UNL     1      36.492   5.535  21.960  1.00  0.00     0.174 HD
ATOM     31  H11 UNL     1      38.108   4.874  22.084  1.00  0.00     0.174 HD
ENDBRANCH   1  29
TORSDOF 8
ENDMDL
MODEL 3
REMARK VINA RESULT: -5.116226849      2.471      5.605
REMARK  8 active torsions:
REMARK  status: ('A' for Active; 'I' for Inactive)
REMARK    1  A    between atoms: N1_1  and  C1_4 
REMARK    2  A    between atoms: C2_7  and  C3_8 
REMARK    3  A    between atoms: C3_8  and  C4_9 
REMARK    4  A    between atoms: C6_13  and  N4_14 
REMARK    5  A    between atoms: N6_21  and  C8_22 
REMARK    6  A    between atoms: C8_22  and  O2_23 
REMARK    7  A    between atoms: O2_23  and  C9_24 
REMARK    8  A    between atoms: C9_24  and  C10_25 
ROOT
HETATM    1  C1  UNL     1      43.980  11.829  17.743  1.00  0.00     0.681 A 
HETATM    2  N2  UNL     1      42.661  12.093  17.711  1.00  0.00    -0.180 N 
ATOM      3  H2  UNL     1      42.007  11.310  17.745  1.00  0.00     0.185 HD
HETATM    4  C2  UNL     1      42.170  13.328  17.635  1.00  0.00     0.110 A 
HETATM    5  N6  UNL     1      43.011  14.364  17.589  1.00  0.00    -0.265 N 
HETATM    6  C11 UNL     1      44.331  14.106  17.621  1.00  0.00     0.344 A 
HETATM    7  O4  UNL     1      45.101  15.105  17.576  1.00  0.00    -0.246 OA
HETATM    8  N8  UNL     1      44.840  12.872  17.697  1.00  0.00    -0.141 N 
ATOM      9  H8  UNL     1      45.849  12.721  17.720  1.00  0.00     0.189 HD
ENDROOT
BRANCH   4  10
HETATM   10  C3  UNL     1      40.720  13.519  17.604  1.00  0.00     0.123 C 
BRANCH  10  11
HETATM   11  C4  UNL     1      40.020  12.994  18.799  1.00  0.00     0.033 A 
HETATM   12  C5  UNL     1      40.330  13.296  20.088  1.00  0.00     0.119 A 
HETATM   13  N3  UNL     1      39.616  12.752  21.088  1.00  0.00    -0.201 N 
HETATM   14  C6  UNL     1      38.587  11.904  20.887  1.00  0.00     0.678 A 
ATOM     15  H3  UNL     1      39.864  12.993  22.048  1.00  0.00     0.183 HD
HETATM   16  N5  UNL     1      38.283  11.607  19.606  1.00  0.00    -0.156 N 
HETATM   17  C7  UNL     1      38.965  12.124  18.567  1.00  0.00     0.267 A 
ATOM     18  H5  UNL     1      37.511  10.968  19.418  1.00  0.00     0.187 HD
HETATM   19  O1  UNL     1      38.618  11.795  17.388  1.00  0.00    -0.267 OA
BRANCH  14  20
HETATM   20  N4  UNL     1      37.904  11.384  21.858  1.00  0.00    -0.234 N 
ATOM     21  H42 UNL     1      36.889  11.312  21.791  1.00  0.00     0.174 HD
ATOM     22  H41 UNL     1      38.335  11.030  22.712  1.00  0.00     0.174 HD
ENDBRANCH  14  20
ENDBRANCH  10  11
ENDBRANCH   4  10
BRANCH   5  23
HETATM   23  C8  UNL     1      42.521  15.752  17.503  1.00  0.00     0.305 C 
BRANCH  23  24
HETATM   24  O2  UNL     1      42.506  16.072  16.180  1.00  0.00    -0.363 OA
BRANCH  24  25
HETATM   25  C9  UNL     1      41.526  16.883  15.713  1.00  0.00     0.269 C 
BRANCH  25  26
HETATM   26  C10 UNL     1      41.642  18.317  15.952  1.00  0.00     0.254 C 
HETATM   27  N7  UNL     1      42.881  18.934  15.545  1.00  0.00    -0.060 NA
HETATM   28  O3  UNL     1      40.741  18.986  16.475  1.00  0.00    -0.275 OA
ENDBRANCH  25  26
ENDBRANCH  24  25
ENDBRANCH  23  24
ENDBRANCH   5  23
BRANCH   1  29
HETATM   29  N1  UNL     1      44.403  10.610  17.817  1.00  0.00    -0.234 N 
ATOM     30  H12 UNL     1      43.844   9.880  18.257  1.00  0.00     0.174 HD
ATOM     31  H11 UNL     1      45.313  10.355  17.433  1.00  0.00     0.174 HD
ENDBRANCH   1  29
TORSDOF 8
ENDMDL
MODEL 4
REMARK VINA RESULT: -5.030272707      2.201      4.597
REMARK  8 active torsions:
REMARK  status: ('A' for Active; 'I' for Inactive)
REMARK    1  A    between atoms: N1_1  and  C1_4 
REMARK    2  A    between atoms: C2_7  and  C3_8 
REMARK    3  A    between atoms: C3_8  and  C4_9 
REMARK    4  A    between atoms: C6_13  and  N4_14 
REMARK    5  A    between atoms: N6_21  and  C8_22 
REMARK    6  A    between atoms: C8_22  and  O2_23 
REMARK    7  A    between atoms: O2_23  and  C9_24 
REMARK    8  A    between atoms: C9_24  and  C10_25 
ROOT
HETATM    1  C1  UNL     1      42.206  17.038  16.299  1.00  0.00     0.681 A 
HETATM    2  N2  UNL     1      41.755  16.480  17.437  1.00  0.00    -0.180 N 
ATOM      3  H2  UNL     1      40.832  16.748  17.778  1.00  0.00     0.185 HD
HETATM    4  C2  UNL     1      42.458  15.592  18.139  1.00  0.00     0.110 A 
HETATM    5  N6  UNL     1      43.668  15.229  17.707  1.00  0.00    -0.265 N 
HETATM    6  C11 UNL     1      44.124  15.785  16.569  1.00  0.00     0.344 A 
HETATM    7  O4  UNL     1      45.270  15.422  16.187  1.00  0.00    -0.246 OA
HETATM    8  N8  UNL     1      43.430  16.676  15.854  1.00  0.00    -0.141 N 
ATOM      9  H8  UNL     1      43.815  17.072  14.995  1.00  0.00     0.189 HD
ENDROOT
BRANCH   4  10
HETATM   10  C3  UNL     1      41.887  15.038  19.366  1.00  0.00     0.123 C 
BRANCH  10  11
HETATM   11  C4  UNL     1      40.877  13.981  19.132  1.00  0.00     0.033 A 
HETATM   12  C5  UNL     1      40.561  13.448  17.921  1.00  0.00     0.119 A 
HETATM   13  N3  UNL     1      39.623  12.489  17.841  1.00  0.00    -0.201 N 
HETATM   14  C6  UNL     1      38.959  12.011  18.914  1.00  0.00     0.678 A 
ATOM     15  H3  UNL     1      39.402  12.102  16.923  1.00  0.00     0.183 HD
HETATM   16  N5  UNL     1      39.276  12.542  20.113  1.00  0.00    -0.156 N 
HETATM   17  C7  UNL     1      40.208  13.505  20.250  1.00  0.00     0.267 A 
ATOM     18  H5  UNL     1      38.792  12.204  20.945  1.00  0.00     0.187 HD
HETATM   19  O1  UNL     1      40.449  13.955  21.415  1.00  0.00    -0.267 OA
BRANCH  14  20
HETATM   20  N4  UNL     1      38.056  11.086  18.827  1.00  0.00    -0.234 N 
ATOM     21  H42 UNL     1      37.631  10.865  17.927  1.00  0.00     0.174 HD
ATOM     22  H41 UNL     1      37.735  10.548  19.633  1.00  0.00     0.174 HD
ENDBRANCH  14  20
ENDBRANCH  10  11
ENDBRANCH   4  10
BRANCH   5  23
HETATM   23  C8  UNL     1      44.489  14.252  18.445  1.00  0.00     0.305 C 
BRANCH  23  24
HETATM   24  O2  UNL     1      44.323  13.058  17.813  1.00  0.00    -0.363 OA
BRANCH  24  25
HETATM   25  C9  UNL     1      43.880  11.994  18.526  1.00  0.00     0.269 C 
BRANCH  25  26
HETATM   26  C10 UNL     1      43.635  10.742  17.820  1.00  0.00     0.254 C 
HETATM   27  N7  UNL     1      42.257  10.329  17.711  1.00  0.00    -0.060 NA
HETATM   28  O3  UNL     1      44.544  10.055  17.334  1.00  0.00    -0.275 OA
ENDBRANCH  25  26
ENDBRANCH  24  25
ENDBRANCH  23  24
ENDBRANCH   5  23
BRANCH   1  29
HETATM   29  N1  UNL     1      41.482  17.894  15.657  1.00  0.00    -0.234 N 
ATOM     30  H12 UNL     1      41.417  17.878  14.639  1.00  0.00     0.174 HD
ATOM     31  H11 UNL     1      40.956  18.608  16.162  1.00  0.00     0.174 HD
ENDBRANCH   1  29
TORSDOF 8
ENDMDL
MODEL 5
REMARK VINA RESULT: -4.973460389      4.426      6.901
REMARK  8 active torsions:
REMARK  status: ('A' for Active; 'I' for Inactive)
REMARK    1  A    between atoms: N1_1  and  C1_4 
REMARK    2  A    between atoms: C2_7  and  C3_8 
REMARK    3  A    between atoms: C3_8  and  C4_9 
REMARK    4  A    between atoms: C6_13  and  N4_14 
REMARK    5  A    between atoms: N6_21  and  C8_22 
REMARK    6  A    between atoms: C8_22  and  O2_23 
REMARK    7  A    between atoms: O2_23  and  C9_24 
REMARK    8  A    between atoms: C9_24  and  C10_25 
ROOT
HETATM    1  C1  UNL     1      36.443   9.091  22.130  1.00  0.00     0.681 A 
HETATM    2  N2  UNL     1      37.483   8.242  22.035  1.00  0.00    -0.180 N 
ATOM      3  H2  UNL     1      37.361   7.284  22.366  1.00  0.00     0.185 HD
HETATM    4  C2  UNL     1      38.664   8.595  21.531  1.00  0.00     0.110 A 
HETATM    5  N6  UNL     1      38.840   9.844  21.094  1.00  0.00    -0.265 N 
HETATM    6  C11 UNL     1      37.804  10.696  21.186  1.00  0.00     0.344 A 
HETATM    7  O4  UNL     1      38.001  11.870  20.766  1.00  0.00    -0.246 OA
HETATM    8  N8  UNL     1      36.612  10.358  21.690  1.00  0.00    -0.141 N 
ATOM      9  H8  UNL     1      35.852  11.037  21.741  1.00  0.00     0.189 HD
ENDROOT
BRANCH   4  10
HETATM   10  C3  UNL     1      39.738   7.605  21.468  1.00  0.00     0.123 C 
BRANCH  10  11
HETATM   11  C4  UNL     1      39.672   6.723  20.280  1.00  0.00     0.033 A 
HETATM   12  C5  UNL     1      38.581   6.012  19.887  1.00  0.00     0.119 A 
HETATM   13  N3  UNL     1      38.649   5.246  18.785  1.00  0.00    -0.201 N 
HETATM   14  C6  UNL     1      39.759   5.136  18.027  1.00  0.00     0.678 A 
ATOM     15  H3  UNL     1      37.819   4.722  18.507  1.00  0.00     0.183 HD
HETATM   16  N5  UNL     1      40.839   5.844  18.420  1.00  0.00    -0.156 N 
HETATM   17  C7  UNL     1      40.825   6.626  19.515  1.00  0.00     0.267 A 
ATOM     18  H5  UNL     1      41.695   5.783  17.870  1.00  0.00     0.187 HD
HETATM   19  O1  UNL     1      41.885   7.262  19.821  1.00  0.00    -0.267 OA
BRANCH  14  20
HETATM   20  N4  UNL     1      39.815   4.395  16.965  1.00  0.00    -0.234 N 
ATOM     21  H42 UNL     1      40.102   3.419  17.035  1.00  0.00     0.174 HD
ATOM     22  H41 UNL     1      39.582   4.742  16.034  1.00  0.00     0.174 HD
ENDBRANCH  14  20
ENDBRANCH  10  11
ENDBRANCH   4  10
BRANCH   5  23
HETATM   23  C8  UNL     1      40.127  10.288  20.528  1.00  0.00     0.305 C 
BRANCH  23  24
HETATM   24  O2  UNL     1      40.041  10.093  19.183  1.00  0.00    -0.363 OA
BRANCH  24  25
HETATM   25  C9  UNL     1      40.536  11.041  18.350  1.00  0.00     0.269 C 
BRANCH  25  26
HETATM   26  C10 UNL     1      39.627  12.067  17.852  1.00  0.00     0.254 C 
HETATM   27  N7  UNL     1      40.126  13.420  17.859  1.00  0.00    -0.060 NA
HETATM   28  O3  UNL     1      38.486  11.813  17.441  1.00  0.00    -0.275 OA
ENDBRANCH  25  26
ENDBRANCH  24  25
ENDBRANCH  23  24
ENDBRANCH   5  23
BRANCH   1  29
HETATM   29  N1  UNL     1      35.318   8.696  22.628  1.00  0.00    -0.234 N 
ATOM     30  H12 UNL     1      35.048   8.930  23.583  1.00  0.00     0.174 HD
ATOM     31  H11 UNL     1      34.672   8.137  22.069  1.00  0.00     0.174 HD
ENDBRANCH   1  29
TORSDOF 8
ENDMDL
