MODEL 1
REMARK VINA RESULT: -5.205838663      0.000      0.000
REMARK  8 active torsions:
REMARK  status: ('A' for Active; 'I' for Inactive)
REMARK    1  A    between atoms: C2_3  and  N2_4 
REMARK    2  A    between atoms: N2_4  and  S1_6 
REMARK    3  A    between atoms: S1_6  and  N3_9 
REMARK    4  A    between atoms: N3_9  and  C3_11 
REMARK    5  A    between atoms: C6_19  and  N6_20 
REMARK    6  A    between atoms: N8_26  and  C8_27 
REMARK    7  A    between atoms: C8_27  and  C9_28 
REMARK    8  A    between atoms: C9_28  and  O4_29 
ROOT
HETATM    1  N1  UNL     1      34.700  10.022  21.421  1.00  0.00    -0.196 NA
HETATM    2  C1  UNL     1      35.716  10.501  21.119  1.00  0.00     0.079 C 
HETATM    3  C2  UNL     1      36.995  11.114  20.763  1.00  0.00     0.257 C 
ENDROOT
BRANCH   3   4
HETATM    4  N2  UNL     1      37.034  11.518  19.389  1.00  0.00    -0.289 N 
ATOM      5  H2  UNL     1      36.213  11.831  18.873  1.00  0.00     0.174 HD
BRANCH   4   6
HETATM    6  S1  UNL     1      38.594  11.422  18.703  1.00  0.00     0.333 S 
HETATM    7  O1  UNL     1      38.538  11.907  17.260  1.00  0.00    -0.182 OA
HETATM    8  O2  UNL     1      39.002   9.957  18.683  1.00  0.00    -0.182 OA
BRANCH   6   9
HETATM    9  N3  UNL     1      39.760  12.344  19.568  1.00  0.00    -0.099 N 
ATOM     10  H3  UNL     1      39.690  12.437  20.582  1.00  0.00     0.199 HD
BRANCH   9  11
HETATM   11  C3  UNL     1      40.815  12.973  18.869  1.00  0.00     0.697 A 
HETATM   12  N4  UNL     1      40.723  14.112  18.160  1.00  0.00    -0.181 N 
HETATM   13  C4  UNL     1      41.905  14.413  17.635  1.00  0.00     0.162 A 
ATOM     14  H4  UNL     1      39.872  14.662  18.043  1.00  0.00     0.184 HD
HETATM   15  C5  UNL     1      42.399  15.429  16.843  1.00  0.00     0.290 A 
HETATM   16  C7  UNL     1      42.771  13.395  18.051  1.00  0.00     0.172 A 
HETATM   17  O3  UNL     1      41.584  16.332  16.489  1.00  0.00    -0.265 OA
HETATM   18  N5  UNL     1      43.670  15.437  16.483  1.00  0.00    -0.154 N 
HETATM   19  C6  UNL     1      44.492  14.454  16.888  1.00  0.00     0.680 A 
ATOM     20  H5  UNL     1      44.029  16.190  15.897  1.00  0.00     0.187 HD
HETATM   21  N7  UNL     1      44.055  13.433  17.668  1.00  0.00    -0.174 N 
ATOM     22  H7  UNL     1      44.700  12.699  17.961  1.00  0.00     0.186 HD
HETATM   23  N8  UNL     1      42.086  12.527  18.801  1.00  0.00    -0.162 N 
BRANCH  19  24
HETATM   24  N6  UNL     1      45.716  14.487  16.526  1.00  0.00    -0.234 N 
ATOM     25  H62 UNL     1      45.951  14.357  15.541  1.00  0.00     0.174 HD
ATOM     26  H61 UNL     1      46.434  14.644  17.233  1.00  0.00     0.174 HD
ENDBRANCH  19  24
BRANCH  23  27
HETATM   27  C8  UNL     1      42.581  11.335  19.432  1.00  0.00     0.175 C 
BRANCH  27  28
HETATM   28  C9  UNL     1      43.009  10.280  18.444  1.00  0.00     0.185 C 
BRANCH  28  29
HETATM   29  O4  UNL     1      41.870   9.988  17.662  1.00  0.00    -0.399 OA
ATOM     30  H4  UNL     1      41.304   9.455  18.208  1.00  0.00     0.209 HD
ENDBRANCH  28  29
ENDBRANCH  27  28
ENDBRANCH  23  27
ENDBRANCH   9  11
ENDBRANCH   6   9
ENDBRANCH   4   6
ENDBRANCH   3   4
TORSDOF 8
ENDMDL
MODEL 2
REMARK VINA RESULT: -5.200566558      2.999      8.443
REMARK  8 active torsions:
REMARK  status: ('A' for Active; 'I' for Inactive)
REMARK    1  A    between atoms: C2_3  and  N2_4 
REMARK    2  A    between atoms: N2_4  and  S1_6 
REMARK    3  A    between atoms: S1_6  and  N3_9 
REMARK    4  A    between atoms: N3_9  and  C3_11 
REMARK    5  A    between atoms: C6_19  and  N6_20 
REMARK    6  A    between atoms: N8_26  and  C8_27 
REMARK    7  A    between atoms: C8_27  and  C9_28 
REMARK    8  A    between atoms: C9_28  and  O4_29 
ROOT
HETATM    1  N1  UNL     1      42.975  10.029  17.891  1.00  0.00    -0.196 NA
HETATM    2  C1  UNL     1      42.062  10.747  17.829  1.00  0.00     0.079 C 
HETATM    3  C2  UNL     1      40.926  11.664  17.734  1.00  0.00     0.257 C 
ENDROOT
BRANCH   3   4
HETATM    4  N2  UNL     1      40.269  11.840  18.995  1.00  0.00    -0.289 N 
ATOM      5  H2  UNL     1      40.693  12.325  19.785  1.00  0.00     0.174 HD
BRANCH   4   6
HETATM    6  S1  UNL     1      38.707  11.155  19.043  1.00  0.00     0.333 S 
HETATM    7  O1  UNL     1      38.819   9.641  18.924  1.00  0.00    -0.182 OA
HETATM    8  O2  UNL     1      37.942  11.660  17.829  1.00  0.00    -0.182 OA
BRANCH   6   9
HETATM    9  N3  UNL     1      37.851  11.550  20.482  1.00  0.00    -0.099 N 
ATOM     10  H3  UNL     1      38.322  12.050  21.237  1.00  0.00     0.199 HD
BRANCH   9  11
HETATM   11  C3  UNL     1      36.493  11.180  20.614  1.00  0.00     0.697 A 
HETATM   12  N4  UNL     1      35.480  11.614  19.844  1.00  0.00    -0.181 N 
HETATM   13  C4  UNL     1      34.340  11.066  20.248  1.00  0.00     0.162 A 
ATOM     14  H4  UNL     1      35.573  12.267  19.066  1.00  0.00     0.184 HD
HETATM   15  C5  UNL     1      33.020  11.135  19.850  1.00  0.00     0.290 A 
HETATM   16  C7  UNL     1      34.680  10.247  21.331  1.00  0.00     0.172 A 
HETATM   17  O3  UNL     1      32.753  11.886  18.867  1.00  0.00    -0.265 OA
HETATM   18  N5  UNL     1      32.095  10.438  20.486  1.00  0.00    -0.154 N 
HETATM   19  C6  UNL     1      32.434   9.656  21.524  1.00  0.00     0.680 A 
ATOM     20  H5  UNL     1      31.121  10.495  20.188  1.00  0.00     0.187 HD
HETATM   21  N7  UNL     1      33.717   9.553  21.953  1.00  0.00    -0.174 N 
ATOM     22  H7  UNL     1      33.947   8.952  22.745  1.00  0.00     0.186 HD
HETATM   23  N8  UNL     1      35.998  10.332  21.537  1.00  0.00    -0.162 N 
BRANCH  19  24
HETATM   24  N6  UNL     1      31.518   8.993  22.120  1.00  0.00    -0.234 N 
ATOM     25  H62 UNL     1      31.556   7.973  22.116  1.00  0.00     0.174 HD
ATOM     26  H61 UNL     1      30.768   9.502  22.586  1.00  0.00     0.174 HD
ENDBRANCH  19  24
BRANCH  23  27
HETATM   27  C8  UNL     1      36.771   9.659  22.544  1.00  0.00     0.175 C 
BRANCH  27  28
HETATM   28  C9  UNL     1      37.354   8.354  22.064  1.00  0.00     0.185 C 
BRANCH  28  29
HETATM   29  O4  UNL     1      38.682   8.636  21.675  1.00  0.00    -0.399 OA
ATOM     30  H4  UNL     1      39.233   8.021  22.146  1.00  0.00     0.209 HD
ENDBRANCH  28  29
ENDBRANCH  27  28
ENDBRANCH  23  27
ENDBRANCH   9  11
ENDBRANCH   6   9
ENDBRANCH   4   6
ENDBRANCH   3   4
TORSDOF 8
ENDMDL
MODEL 3
REMARK VINA RESULT: -5.148497707      4.400      6.184
REMARK  8 active torsions:
REMARK  status: ('A' for Active; 'I' for Inactive)
REMARK    1  A    between atoms: C2_3  and  N2_4 
REMARK    2  A    between atoms: N2_4  and  S1_6 
REMARK    3  A    between atoms: S1_6  and  N3_9 
REMARK    4  A    between atoms: N3_9  and  C3_11 
REMARK    5  A    between atoms: C6_19  and  N6_20 
REMARK    6  A    between atoms: N8_26  and  C8_27 
REMARK    7  A    between atoms: C8_27  and  C9_28 
REMARK    8  A    between atoms: C9_28  and  O4_29 
ROOT
HETATM    1  N1  UNL     1      44.499  10.139  17.514  1.00  0.00    -0.196 NA
HETATM    2  C1  UNL     1      43.810  11.051  17.731  1.00  0.00     0.079 C 
HETATM    3  C2  UNL     1      42.924  12.183  18.002  1.00  0.00     0.257 C 
ENDROOT
BRANCH   3   4
HETATM    4  N2  UNL     1      43.431  13.406  17.458  1.00  0.00    -0.289 N 
ATOM      5  H2  UNL     1      44.277  13.460  16.891  1.00  0.00     0.174 HD
BRANCH   4   6
HETATM    6  S1  UNL     1      42.480  14.767  17.855  1.00  0.00     0.333 S 
HETATM    7  O1  UNL     1      41.470  14.378  18.926  1.00  0.00    -0.182 OA
HETATM    8  O2  UNL     1      41.703  15.167  16.610  1.00  0.00    -0.182 OA
BRANCH   6   9
HETATM    9  N3  UNL     1      43.419  16.095  18.412  1.00  0.00    -0.099 N 
ATOM     10  H3  UNL     1      43.609  16.206  19.408  1.00  0.00     0.199 HD
BRANCH   9  11
HETATM   11  C3  UNL     1      43.925  17.034  17.484  1.00  0.00     0.697 A 
HETATM   12  N4  UNL     1      43.229  18.032  16.913  1.00  0.00    -0.181 N 
HETATM   13  C4  UNL     1      44.016  18.719  16.092  1.00  0.00     0.162 A 
ATOM     14  H4  UNL     1      42.244  18.233  17.085  1.00  0.00     0.184 HD
HETATM   15  C5  UNL     1      43.859  19.811  15.264  1.00  0.00     0.290 A 
HETATM   16  C7  UNL     1      45.268  18.099  16.168  1.00  0.00     0.172 A 
HETATM   17  O3  UNL     1      42.711  20.343  15.224  1.00  0.00    -0.265 OA
HETATM   18  N5  UNL     1      44.878  20.262  14.554  1.00  0.00    -0.154 N 
HETATM   19  C6  UNL     1      46.076  19.659  14.635  1.00  0.00     0.680 A 
ATOM     20  H5  UNL     1      44.755  21.069  13.943  1.00  0.00     0.187 HD
HETATM   21  N7  UNL     1      46.282  18.582  15.434  1.00  0.00    -0.174 N 
ATOM     22  H7  UNL     1      47.202  18.143  15.478  1.00  0.00     0.186 HD
HETATM   23  N8  UNL     1      45.191  17.074  17.022  1.00  0.00    -0.162 N 
BRANCH  19  24
HETATM   24  N6  UNL     1      47.043  20.117  13.938  1.00  0.00    -0.234 N 
ATOM     25  H62 UNL     1      47.320  19.631  13.085  1.00  0.00     0.174 HD
ATOM     26  H61 UNL     1      47.519  20.963  14.253  1.00  0.00     0.174 HD
ENDBRANCH  19  24
BRANCH  23  27
HETATM   27  C8  UNL     1      46.241  16.167  17.398  1.00  0.00     0.175 C 
BRANCH  27  28
HETATM   28  C9  UNL     1      46.734  15.328  16.247  1.00  0.00     0.185 C 
BRANCH  28  29
HETATM   29  O4  UNL     1      45.613  14.613  15.772  1.00  0.00    -0.399 OA
ATOM     30  H4  UNL     1      45.940  13.772  15.475  1.00  0.00     0.209 HD
ENDBRANCH  28  29
ENDBRANCH  27  28
ENDBRANCH  23  27
ENDBRANCH   9  11
ENDBRANCH   6   9
ENDBRANCH   4   6
ENDBRANCH   3   4
TORSDOF 8
ENDMDL
MODEL 4
REMARK VINA RESULT: -5.034458850      3.877      5.761
REMARK  8 active torsions:
REMARK  status: ('A' for Active; 'I' for Inactive)
REMARK    1  A    between atoms: C2_3  and  N2_4 
REMARK    2  A    between atoms: N2_4  and  S1_6 
REMARK    3  A    between atoms: S1_6  and  N3_9 
REMARK    4  A    between atoms: N3_9  and  C3_11 
REMARK    5  A    between atoms: C6_19  and  N6_20 
REMARK    6  A    between atoms: N8_26  and  C8_27 
REMARK    7  A    between atoms: C8_27  and  C9_28 
REMARK    8  A    between atoms: C9_28  and  O4_29 
ROOT
HETATM    1  N1  UNL     1      44.678  10.138  17.739  1.00  0.00    -0.196 NA
HETATM    2  C1  UNL     1      43.730  10.812  17.757  1.00  0.00     0.079 C 
HETATM    3  C2  UNL     1      42.532  11.651  17.755  1.00  0.00     0.257 C 
ENDROOT
BRANCH   3   4
HETATM    4  N2  UNL     1      42.746  12.896  18.430  1.00  0.00    -0.289 N 
ATOM      5  H2  UNL     1      43.440  13.023  19.166  1.00  0.00     0.174 HD
BRANCH   4   6
HETATM    6  S1  UNL     1      41.724  14.147  17.878  1.00  0.00     0.333 S 
HETATM    7  O1  UNL     1      41.699  15.266  18.910  1.00  0.00    -0.182 OA
HETATM    8  O2  UNL     1      40.316  13.582  17.773  1.00  0.00    -0.182 OA
BRANCH   6   9
HETATM    9  N3  UNL     1      42.215  14.785  16.358  1.00  0.00    -0.099 N 
ATOM     10  H3  UNL     1      42.285  14.175  15.544  1.00  0.00     0.199 HD
BRANCH   9  11
HETATM   11  C3  UNL     1      42.521  16.161  16.242  1.00  0.00     0.697 A 
HETATM   12  N4  UNL     1      41.661  17.178  16.420  1.00  0.00    -0.181 N 
HETATM   13  C4  UNL     1      42.284  18.335  16.232  1.00  0.00     0.162 A 
ATOM     14  H4  UNL     1      40.675  17.076  16.663  1.00  0.00     0.184 HD
HETATM   15  C5  UNL     1      41.924  19.666  16.280  1.00  0.00     0.290 A 
HETATM   16  C7  UNL     1      43.607  18.001  15.920  1.00  0.00     0.172 A 
HETATM   17  O3  UNL     1      40.718  19.926  16.565  1.00  0.00    -0.265 OA
HETATM   18  N5  UNL     1      42.816  20.609  16.033  1.00  0.00    -0.154 N 
HETATM   19  C6  UNL     1      44.084  20.276  15.735  1.00  0.00     0.680 A 
ATOM     20  H5  UNL     1      42.543  21.590  16.069  1.00  0.00     0.187 HD
HETATM   21  N7  UNL     1      44.488  18.983  15.676  1.00  0.00    -0.174 N 
ATOM     22  H7  UNL     1      45.457  18.757  15.447  1.00  0.00     0.186 HD
HETATM   23  N8  UNL     1      43.730  16.671  15.932  1.00  0.00    -0.162 N 
BRANCH  19  24
HETATM   24  N6  UNL     1      44.925  21.208  15.502  1.00  0.00    -0.234 N 
ATOM     25  H62 UNL     1      45.879  21.121  15.854  1.00  0.00     0.174 HD
ATOM     26  H61 UNL     1      44.622  22.022  14.967  1.00  0.00     0.174 HD
ENDBRANCH  19  24
BRANCH  23  27
HETATM   27  C8  UNL     1      44.913  15.899  15.668  1.00  0.00     0.175 C 
BRANCH  27  28
HETATM   28  C9  UNL     1      45.576  15.389  16.923  1.00  0.00     0.185 C 
BRANCH  28  29
HETATM   29  O4  UNL     1      45.277  14.011  16.993  1.00  0.00    -0.399 OA
ATOM     30  H4  UNL     1      45.699  13.688  17.781  1.00  0.00     0.209 HD
ENDBRANCH  28  29
ENDBRANCH  27  28
ENDBRANCH  23  27
ENDBRANCH   9  11
ENDBRANCH   6   9
ENDBRANCH   4   6
ENDBRANCH   3   4
TORSDOF 8
ENDMDL
MODEL 5
REMARK VINA RESULT: -4.974597819      4.446      6.765
REMARK  8 active torsions:
REMARK  status: ('A' for Active; 'I' for Inactive)
REMARK    1  A    between atoms: C2_3  and  N2_4 
REMARK    2  A    between atoms: N2_4  and  S1_6 
REMARK    3  A    between atoms: S1_6  and  N3_9 
REMARK    4  A    between atoms: N3_9  and  C3_11 
REMARK    5  A    between atoms: C6_19  and  N6_20 
REMARK    6  A    between atoms: N8_26  and  C8_27 
REMARK    7  A    between atoms: C8_27  and  C9_28 
REMARK    8  A    between atoms: C9_28  and  O4_29 
ROOT
HETATM    1  N1  UNL     1      42.222   9.655  17.901  1.00  0.00    -0.196 NA
HETATM    2  C1  UNL     1      42.596  10.756  17.908  1.00  0.00     0.079 C 
HETATM    3  C2  UNL     1      43.043  12.149  17.906  1.00  0.00     0.257 C 
ENDROOT
BRANCH   3   4
HETATM    4  N2  UNL     1      44.421  12.271  17.538  1.00  0.00    -0.289 N 
ATOM      5  H2  UNL     1      44.963  11.510  17.130  1.00  0.00     0.174 HD
BRANCH   4   6
HETATM    6  S1  UNL     1      45.068  13.820  17.850  1.00  0.00     0.333 S 
HETATM    7  O1  UNL     1      46.297  13.681  18.739  1.00  0.00    -0.182 OA
HETATM    8  O2  UNL     1      44.024  14.610  18.624  1.00  0.00    -0.182 OA
BRANCH   6   9
HETATM    9  N3  UNL     1      45.497  14.663  16.414  1.00  0.00    -0.099 N 
ATOM     10  H3  UNL     1      46.129  14.236  15.738  1.00  0.00     0.199 HD
BRANCH   9  11
HETATM   11  C3  UNL     1      44.969  15.953  16.175  1.00  0.00     0.697 A 
HETATM   12  N4  UNL     1      43.667  16.257  16.029  1.00  0.00    -0.181 N 
HETATM   13  C4  UNL     1      43.530  17.561  15.816  1.00  0.00     0.162 A 
ATOM     14  H4  UNL     1      42.900  15.587  16.075  1.00  0.00     0.184 HD
HETATM   15  C5  UNL     1      42.468  18.416  15.604  1.00  0.00     0.290 A 
HETATM   16  C7  UNL     1      44.829  18.083  15.833  1.00  0.00     0.172 A 
HETATM   17  O3  UNL     1      41.310  17.906  15.596  1.00  0.00    -0.265 OA
HETATM   18  N5  UNL     1      42.679  19.708  15.419  1.00  0.00    -0.154 N 
HETATM   19  C6  UNL     1      43.929  20.197  15.438  1.00  0.00     0.680 A 
ATOM     20  H5  UNL     1      41.889  20.334  15.262  1.00  0.00     0.187 HD
HETATM   21  N7  UNL     1      45.007  19.398  15.643  1.00  0.00    -0.174 N 
ATOM     22  H7  UNL     1      45.947  19.795  15.653  1.00  0.00     0.186 HD
HETATM   23  N8  UNL     1      45.690  17.085  16.054  1.00  0.00    -0.162 N 
BRANCH  19  24
HETATM   24  N6  UNL     1      44.103  21.450  15.258  1.00  0.00    -0.234 N 
ATOM     25  H62 UNL     1      43.290  22.063  15.192  1.00  0.00     0.174 HD
ATOM     26  H61 UNL     1      45.055  21.808  15.183  1.00  0.00     0.174 HD
ENDBRANCH  19  24
BRANCH  23  27
HETATM   27  C8  UNL     1      47.122  17.171  16.149  1.00  0.00     0.175 C 
BRANCH  27  28
HETATM   28  C9  UNL     1      47.809  17.052  14.812  1.00  0.00     0.185 C 
BRANCH  28  29
HETATM   29  O4  UNL     1      47.792  18.344  14.244  1.00  0.00    -0.399 OA
ATOM     30  H4  UNL     1      48.687  18.530  13.982  1.00  0.00     0.209 HD
ENDBRANCH  28  29
ENDBRANCH  27  28
ENDBRANCH  23  27
ENDBRANCH   9  11
ENDBRANCH   6   9
ENDBRANCH   4   6
ENDBRANCH   3   4
TORSDOF 8
ENDMDL
