MODEL 1
REMARK VINA RESULT: -5.135702957      0.000      0.000
REMARK  7 active torsions:
REMARK  status: ('A' for Active; 'I' for Inactive)
REMARK       I    between atoms: C2_5  and  N4_7 
REMARK    1  A    between atoms: N6_14  and  C6_15 
REMARK    2  A    between atoms: C6_15  and  C7_16 
REMARK    3  A    between atoms: C7_16  and  N7_17 
REMARK    4  A    between atoms: N7_17  and  C8_19 
REMARK    5  A    between atoms: C8_19  and  C9_20 
REMARK    6  A    between atoms: C9_20  and  N8_21 
REMARK    7  A    between atoms: N8_21  and  C10_23 
ROOT
HETATM    1  N1  UNL     1      46.156  15.325  15.441  1.00  0.00    -0.172 NA
HETATM    2  C1  UNL     1      47.063  16.038  15.393  1.00  0.00     0.184 C 
HETATM    3  N2  UNL     1      48.158  16.884  15.335  1.00  0.00    -0.267 N 
ATOM      4  H2  UNL     1      49.060  16.512  15.632  1.00  0.00     0.180 HD
HETATM    5  C2  UNL     1      48.120  18.102  14.935  1.00  0.00     0.215 C 
HETATM    6  N3  UNL     1      49.310  18.867  14.923  1.00  0.00    -0.062 NA
HETATM    7  N4  UNL     1      46.901  18.652  14.518  1.00  0.00    -0.162 N 
ATOM      8  H4  UNL     1      46.443  18.238  13.707  1.00  0.00     0.187 HD
HETATM    9  C3  UNL     1      46.323  19.649  15.093  1.00  0.00     0.695 C 
HETATM   10  N5  UNL     1      46.867  20.312  16.235  1.00  0.00    -0.220 N 
ATOM     11  H5  UNL     1      47.614  19.884  16.782  1.00  0.00     0.178 HD
HETATM   12  C4  UNL     1      46.341  21.586  16.590  1.00  0.00     0.184 C 
HETATM   13  C5  UNL     1      44.859  21.734  16.390  1.00  0.00     0.109 C 
HETATM   14  N6  UNL     1      44.275  21.015  15.371  1.00  0.00    -0.269 N 
HETATM   15  N11 UNL     1      45.083  20.167  14.627  1.00  0.00    -0.127 N 
ATOM     16  H11 UNL     1      44.771  19.900  13.693  1.00  0.00     0.206 HD
ENDROOT
BRANCH  14  17
HETATM   17  C6  UNL     1      42.902  20.763  15.289  1.00  0.00     0.108 C 
BRANCH  17  18
HETATM   18  C7  UNL     1      42.426  19.748  16.287  1.00  0.00     0.161 C 
BRANCH  18  19
HETATM   19  N7  UNL     1      42.145  18.500  15.692  1.00  0.00    -0.415 N 
ATOM     20  H7  UNL     1      41.322  18.372  15.103  1.00  0.00     0.153 HD
BRANCH  19  21
HETATM   21  C8  UNL     1      43.042  17.430  15.938  1.00  0.00     0.134 C 
BRANCH  21  22
HETATM   22  C9  UNL     1      42.524  16.053  15.669  1.00  0.00     0.157 C 
BRANCH  22  23
HETATM   23  N8  UNL     1      43.108  15.046  16.533  1.00  0.00    -0.225 N 
ATOM     24  H8  UNL     1      44.113  15.033  16.710  1.00  0.00     0.177 HD
BRANCH  23  25
HETATM   25  C10 UNL     1      42.253  14.080  17.126  1.00  0.00     0.669 C 
HETATM   26  N9  UNL     1      41.011  14.255  17.386  1.00  0.00    -0.227 N 
HETATM   27  C11 UNL     1      40.114  13.314  17.980  1.00  0.00     0.139 C 
ATOM     28  H9  UNL     1      40.620  15.164  17.141  1.00  0.00     0.177 HD
HETATM   29  C12 UNL     1      40.579  11.903  18.039  1.00  0.00     0.040 C 
HETATM   30  C13 UNL     1      41.917  11.623  17.445  1.00  0.00     0.139 C 
HETATM   31  N10 UNL     1      42.808  12.790  17.467  1.00  0.00    -0.227 N 
ATOM     32  H10 UNL     1      43.792  12.692  17.717  1.00  0.00     0.177 HD
ENDBRANCH  23  25
ENDBRANCH  22  23
ENDBRANCH  21  22
ENDBRANCH  19  21
ENDBRANCH  18  19
ENDBRANCH  17  18
ENDBRANCH  14  17
TORSDOF 7
ENDMDL
MODEL 2
REMARK VINA RESULT: -5.033428854      2.932      8.256
REMARK  7 active torsions:
REMARK  status: ('A' for Active; 'I' for Inactive)
REMARK       I    between atoms: C2_5  and  N4_7 
REMARK    1  A    between atoms: N6_14  and  C6_15 
REMARK    2  A    between atoms: C6_15  and  C7_16 
REMARK    3  A    between atoms: C7_16  and  N7_17 
REMARK    4  A    between atoms: N7_17  and  C8_19 
REMARK    5  A    between atoms: C8_19  and  C9_20 
REMARK    6  A    between atoms: C9_20  and  N8_21 
REMARK    7  A    between atoms: N8_21  and  C10_23 
ROOT
HETATM    1  N1  UNL     1      41.816  15.445  18.721  1.00  0.00    -0.172 NA
HETATM    2  C1  UNL     1      41.286  14.465  18.421  1.00  0.00     0.184 C 
HETATM    3  N2  UNL     1      40.639  13.295  18.060  1.00  0.00    -0.267 N 
ATOM      4  H2  UNL     1      39.620  13.287  18.095  1.00  0.00     0.180 HD
HETATM    5  C2  UNL     1      41.229  12.220  17.683  1.00  0.00     0.215 C 
HETATM    6  N3  UNL     1      40.455  11.087  17.339  1.00  0.00    -0.062 NA
HETATM    7  N4  UNL     1      42.628  12.188  17.620  1.00  0.00    -0.162 N 
ATOM      8  H4  UNL     1      43.091  12.822  16.969  1.00  0.00     0.187 HD
HETATM    9  C3  UNL     1      43.367  11.409  18.331  1.00  0.00     0.695 C 
HETATM   10  N5  UNL     1      42.835  10.479  19.275  1.00  0.00    -0.220 N 
ATOM     11  H5  UNL     1      41.869  10.553  19.594  1.00  0.00     0.178 HD
HETATM   12  C4  UNL     1      43.687   9.447  19.759  1.00  0.00     0.184 C 
HETATM   13  C5  UNL     1      45.115   9.861  19.979  1.00  0.00     0.109 C 
HETATM   14  N6  UNL     1      45.631  10.843  19.163  1.00  0.00    -0.269 N 
HETATM   15  N11 UNL     1      44.785  11.420  18.226  1.00  0.00    -0.127 N 
ATOM     16  H11 UNL     1      45.204  11.877  17.416  1.00  0.00     0.206 HD
ENDROOT
BRANCH  14  17
HETATM   17  C6  UNL     1      46.782  11.577  19.466  1.00  0.00     0.108 C 
BRANCH  17  18
HETATM   18  C7  UNL     1      46.526  13.049  19.612  1.00  0.00     0.161 C 
BRANCH  18  19
HETATM   19  N7  UNL     1      47.430  13.828  18.860  1.00  0.00    -0.415 N 
ATOM     20  H7  UNL     1      48.433  13.641  18.887  1.00  0.00     0.153 HD
BRANCH  19  21
HETATM   21  C8  UNL     1      46.903  14.878  18.068  1.00  0.00     0.134 C 
BRANCH  21  22
HETATM   22  C9  UNL     1      45.468  14.752  17.667  1.00  0.00     0.157 C 
BRANCH  22  23
HETATM   23  N8  UNL     1      45.227  15.125  16.287  1.00  0.00    -0.225 N 
ATOM     24  H8  UNL     1      45.836  14.786  15.543  1.00  0.00     0.177 HD
BRANCH  23  25
HETATM   25  C10 UNL     1      44.127  15.974  15.994  1.00  0.00     0.669 C 
HETATM   26  N9  UNL     1      42.988  15.580  15.557  1.00  0.00    -0.227 N 
HETATM   27  C11 UNL     1      41.855  16.394  15.249  1.00  0.00     0.139 C 
ATOM     28  H9  UNL     1      42.879  14.576  15.414  1.00  0.00     0.177 HD
HETATM   29  C12 UNL     1      41.889  17.793  15.753  1.00  0.00     0.040 C 
HETATM   30  C13 UNL     1      43.088  18.180  16.549  1.00  0.00     0.139 C 
HETATM   31  N10 UNL     1      44.280  17.395  16.203  1.00  0.00    -0.227 N 
ATOM     32  H10 UNL     1      45.193  17.842  16.112  1.00  0.00     0.177 HD
ENDBRANCH  23  25
ENDBRANCH  22  23
ENDBRANCH  21  22
ENDBRANCH  19  21
ENDBRANCH  18  19
ENDBRANCH  17  18
ENDBRANCH  14  17
TORSDOF 7
ENDMDL
MODEL 3
REMARK VINA RESULT: -5.007616047      1.976      7.909
REMARK  7 active torsions:
REMARK  status: ('A' for Active; 'I' for Inactive)
REMARK       I    between atoms: C2_5  and  N4_7 
REMARK    1  A    between atoms: N6_14  and  C6_15 
REMARK    2  A    between atoms: C6_15  and  C7_16 
REMARK    3  A    between atoms: C7_16  and  N7_17 
REMARK    4  A    between atoms: N7_17  and  C8_19 
REMARK    5  A    between atoms: C8_19  and  C9_20 
REMARK    6  A    between atoms: C9_20  and  N8_21 
REMARK    7  A    between atoms: N8_21  and  C10_23 
ROOT
HETATM    1  N1  UNL     1      38.501  11.996  19.657  1.00  0.00    -0.172 NA
HETATM    2  C1  UNL     1      39.369  11.276  19.412  1.00  0.00     0.184 C 
HETATM    3  N2  UNL     1      40.405  10.402  19.123  1.00  0.00    -0.267 N 
ATOM      4  H2  UNL     1      40.430   9.515  19.626  1.00  0.00     0.180 HD
HETATM    5  C2  UNL     1      41.333  10.627  18.268  1.00  0.00     0.215 C 
HETATM    6  N3  UNL     1      42.339   9.654  18.061  1.00  0.00    -0.062 NA
HETATM    7  N4  UNL     1      41.334  11.833  17.554  1.00  0.00    -0.162 N 
ATOM      8  H4  UNL     1      40.545  12.024  16.938  1.00  0.00     0.187 HD
HETATM    9  C3  UNL     1      42.270  12.715  17.627  1.00  0.00     0.695 C 
HETATM   10  N5  UNL     1      43.425  12.561  18.453  1.00  0.00    -0.220 N 
ATOM     11  H5  UNL     1      43.448  11.859  19.193  1.00  0.00     0.178 HD
HETATM   12  C4  UNL     1      44.541  13.411  18.219  1.00  0.00     0.184 C 
HETATM   13  C5  UNL     1      44.190  14.822  17.840  1.00  0.00     0.109 C 
HETATM   14  N6  UNL     1      43.020  15.027  17.144  1.00  0.00    -0.269 N 
HETATM   15  N11 UNL     1      42.219  13.924  16.879  1.00  0.00    -0.127 N 
ATOM     16  H11 UNL     1      41.558  13.984  16.105  1.00  0.00     0.206 HD
ENDROOT
BRANCH  14  17
HETATM   17  C6  UNL     1      42.385  16.269  17.042  1.00  0.00     0.108 C 
BRANCH  17  18
HETATM   18  C7  UNL     1      41.682  16.469  15.731  1.00  0.00     0.161 C 
BRANCH  18  19
HETATM   19  N7  UNL     1      41.320  17.815  15.516  1.00  0.00    -0.415 N 
ATOM     20  H7  UNL     1      40.941  18.121  14.620  1.00  0.00     0.153 HD
BRANCH  19  21
HETATM   21  C8  UNL     1      41.501  18.730  16.583  1.00  0.00     0.134 C 
BRANCH  21  22
HETATM   22  C9  UNL     1      42.374  19.913  16.305  1.00  0.00     0.157 C 
BRANCH  22  23
HETATM   23  N8  UNL     1      43.191  19.751  15.120  1.00  0.00    -0.225 N 
ATOM     24  H8  UNL     1      42.788  19.869  14.190  1.00  0.00     0.177 HD
BRANCH  23  25
HETATM   25  C10 UNL     1      44.564  19.427  15.279  1.00  0.00     0.669 C 
HETATM   26  N9  UNL     1      45.010  18.358  15.827  1.00  0.00    -0.227 N 
HETATM   27  C11 UNL     1      46.379  17.990  16.008  1.00  0.00     0.139 C 
ATOM     28  H9  UNL     1      44.313  17.698  16.170  1.00  0.00     0.177 HD
HETATM   29  C12 UNL     1      47.383  18.770  15.236  1.00  0.00     0.040 C 
HETATM   30  C13 UNL     1      46.845  19.829  14.336  1.00  0.00     0.139 C 
HETATM   31  N10 UNL     1      45.552  20.360  14.787  1.00  0.00    -0.227 N 
ATOM     32  H10 UNL     1      45.356  21.361  14.754  1.00  0.00     0.177 HD
ENDBRANCH  23  25
ENDBRANCH  22  23
ENDBRANCH  21  22
ENDBRANCH  19  21
ENDBRANCH  18  19
ENDBRANCH  17  18
ENDBRANCH  14  17
TORSDOF 7
ENDMDL
MODEL 4
REMARK VINA RESULT: -4.965142417      3.757      9.919
REMARK  7 active torsions:
REMARK  status: ('A' for Active; 'I' for Inactive)
REMARK       I    between atoms: C2_5  and  N4_7 
REMARK    1  A    between atoms: N6_14  and  C6_15 
REMARK    2  A    between atoms: C6_15  and  C7_16 
REMARK    3  A    between atoms: C7_16  and  N7_17 
REMARK    4  A    between atoms: N7_17  and  C8_19 
REMARK    5  A    between atoms: C8_19  and  C9_20 
REMARK    6  A    between atoms: C9_20  and  N8_21 
REMARK    7  A    between atoms: N8_21  and  C10_23 
ROOT
HETATM    1  N1  UNL     1      41.127   6.025  18.708  1.00  0.00    -0.172 NA
HETATM    2  C1  UNL     1      40.285   6.407  19.398  1.00  0.00     0.184 C 
HETATM    3  N2  UNL     1      39.272   6.854  20.231  1.00  0.00    -0.267 N 
ATOM      4  H2  UNL     1      38.572   6.176  20.532  1.00  0.00     0.180 HD
HETATM    5  C2  UNL     1      39.150   8.059  20.651  1.00  0.00     0.215 C 
HETATM    6  N3  UNL     1      38.069   8.394  21.500  1.00  0.00    -0.062 NA
HETATM    7  N4  UNL     1      40.091   9.023  20.262  1.00  0.00    -0.162 N 
ATOM      8  H4  UNL     1      41.060   8.886  20.547  1.00  0.00     0.187 HD
HETATM    9  C3  UNL     1      39.808  10.070  19.569  1.00  0.00     0.695 C 
HETATM   10  N5  UNL     1      38.488  10.370  19.113  1.00  0.00    -0.220 N 
ATOM     11  H5  UNL     1      37.759   9.657  19.117  1.00  0.00     0.178 HD
HETATM   12  C4  UNL     1      38.217  11.689  18.652  1.00  0.00     0.184 C 
HETATM   13  C5  UNL     1      39.338  12.332  17.885  1.00  0.00     0.109 C 
HETATM   14  N6  UNL     1      40.627  11.977  18.215  1.00  0.00    -0.269 N 
HETATM   15  N11 UNL     1      40.805  11.016  19.201  1.00  0.00    -0.127 N 
ATOM     16  H11 UNL     1      41.700  10.987  19.689  1.00  0.00     0.206 HD
ENDROOT
BRANCH  14  17
HETATM   17  C6  UNL     1      41.729  12.195  17.381  1.00  0.00     0.108 C 
BRANCH  17  18
HETATM   18  C7  UNL     1      42.956  11.448  17.817  1.00  0.00     0.161 C 
BRANCH  18  19
HETATM   19  N7  UNL     1      44.146  12.126  17.475  1.00  0.00    -0.415 N 
ATOM     20  H7  UNL     1      44.743  11.792  16.719  1.00  0.00     0.153 HD
BRANCH  19  21
HETATM   21  C8  UNL     1      44.485  13.286  18.217  1.00  0.00     0.134 C 
BRANCH  21  22
HETATM   22  C9  UNL     1      45.494  14.200  17.597  1.00  0.00     0.157 C 
BRANCH  22  23
HETATM   23  N8  UNL     1      45.027  14.816  16.372  1.00  0.00    -0.225 N 
ATOM     24  H8  UNL     1      45.465  14.593  15.478  1.00  0.00     0.177 HD
BRANCH  23  25
HETATM   25  C10 UNL     1      43.948  15.737  16.441  1.00  0.00     0.669 C 
HETATM   26  N9  UNL     1      44.005  16.901  16.974  1.00  0.00    -0.227 N 
HETATM   27  C11 UNL     1      42.948  17.858  17.066  1.00  0.00     0.139 C 
ATOM     28  H9  UNL     1      44.901  17.173  17.375  1.00  0.00     0.177 HD
HETATM   29  C12 UNL     1      41.755  17.611  16.214  1.00  0.00     0.040 C 
HETATM   30  C13 UNL     1      41.807  16.408  15.337  1.00  0.00     0.139 C 
HETATM   31  N10 UNL     1      42.679  15.352  15.867  1.00  0.00    -0.227 N 
ATOM     32  H10 UNL     1      42.396  14.372  15.831  1.00  0.00     0.177 HD
ENDBRANCH  23  25
ENDBRANCH  22  23
ENDBRANCH  21  22
ENDBRANCH  19  21
ENDBRANCH  18  19
ENDBRANCH  17  18
ENDBRANCH  14  17
TORSDOF 7
ENDMDL
MODEL 5
REMARK VINA RESULT: -4.945235627      7.290     13.598
REMARK  7 active torsions:
REMARK  status: ('A' for Active; 'I' for Inactive)
REMARK       I    between atoms: C2_5  and  N4_7 
REMARK    1  A    between atoms: N6_14  and  C6_15 
REMARK    2  A    between atoms: C6_15  and  C7_16 
REMARK    3  A    between atoms: C7_16  and  N7_17 
REMARK    4  A    between atoms: N7_17  and  C8_19 
REMARK    5  A    between atoms: C8_19  and  C9_20 
REMARK    6  A    between atoms: C9_20  and  N8_21 
REMARK    7  A    between atoms: N8_21  and  C10_23 
ROOT
HETATM    1  N1  UNL     1      31.350   7.025  20.526  1.00  0.00    -0.172 NA
HETATM    2  C1  UNL     1      31.269   8.174  20.589  1.00  0.00     0.184 C 
HETATM    3  N2  UNL     1      31.160   9.553  20.662  1.00  0.00    -0.267 N 
ATOM      4  H2  UNL     1      30.372   9.992  20.186  1.00  0.00     0.180 HD
HETATM    5  C2  UNL     1      31.977  10.319  21.286  1.00  0.00     0.215 C 
HETATM    6  N3  UNL     1      31.758  11.716  21.288  1.00  0.00    -0.062 NA
HETATM    7  N4  UNL     1      33.073   9.757  21.955  1.00  0.00    -0.162 N 
ATOM      8  H4  UNL     1      32.885   9.117  22.726  1.00  0.00     0.187 HD
HETATM    9  C3  UNL     1      34.303   9.999  21.658  1.00  0.00     0.695 C 
HETATM   10  N5  UNL     1      34.691  10.877  20.601  1.00  0.00    -0.220 N 
ATOM     11  H5  UNL     1      34.020  11.169  19.891  1.00  0.00     0.178 HD
HETATM   12  C4  UNL     1      36.038  11.335  20.565  1.00  0.00     0.184 C 
HETATM   13  C5  UNL     1      37.061  10.316  20.980  1.00  0.00     0.109 C 
HETATM   14  N6  UNL     1      36.687   9.374  21.913  1.00  0.00    -0.269 N 
HETATM   15  N11 UNL     1      35.377   9.399  22.371  1.00  0.00    -0.127 N 
ATOM     16  H11 UNL     1      35.174   8.963  23.271  1.00  0.00     0.206 HD
ENDROOT
BRANCH  14  17
HETATM   17  C6  UNL     1      37.376   8.176  22.124  1.00  0.00     0.108 C 
BRANCH  17  18
HETATM   18  C7  UNL     1      38.815   8.238  21.702  1.00  0.00     0.161 C 
BRANCH  18  19
HETATM   19  N7  UNL     1      39.103   7.352  20.643  1.00  0.00    -0.415 N 
ATOM     20  H7  UNL     1      38.465   6.592  20.406  1.00  0.00     0.153 HD
BRANCH  19  21
HETATM   21  C8  UNL     1      40.306   7.550  19.920  1.00  0.00     0.134 C 
BRANCH  21  22
HETATM   22  C9  UNL     1      41.138   8.725  20.322  1.00  0.00     0.157 C 
BRANCH  22  23
HETATM   23  N8  UNL     1      41.749   9.404  19.197  1.00  0.00    -0.225 N 
ATOM     24  H8  UNL     1      42.567   9.009  18.733  1.00  0.00     0.177 HD
BRANCH  23  25
HETATM   25  C10 UNL     1      41.184  10.629  18.753  1.00  0.00     0.669 C 
HETATM   26  N9  UNL     1      40.148  11.189  19.258  1.00  0.00    -0.227 N 
HETATM   27  C11 UNL     1      39.545  12.417  18.846  1.00  0.00     0.139 C 
ATOM     28  H9  UNL     1      39.706  10.705  20.039  1.00  0.00     0.177 HD
HETATM   29  C12 UNL     1      40.353  13.280  17.942  1.00  0.00     0.040 C 
HETATM   30  C13 UNL     1      41.712  12.780  17.592  1.00  0.00     0.139 C 
HETATM   31  N10 UNL     1      41.814  11.315  17.649  1.00  0.00    -0.227 N 
ATOM     32  H10 UNL     1      42.318  10.797  16.928  1.00  0.00     0.177 HD
ENDBRANCH  23  25
ENDBRANCH  22  23
ENDBRANCH  21  22
ENDBRANCH  19  21
ENDBRANCH  18  19
ENDBRANCH  17  18
ENDBRANCH  14  17
TORSDOF 7
ENDMDL
