MODEL 1
REMARK VINA RESULT: -6.755707167      0.000      0.000
REMARK  2 active torsions:
REMARK  status: ('A' for Active; 'I' for Inactive)
REMARK       I    between atoms: N1_2  and  C2_4 
REMARK       I    between atoms: C2_4  and  N3_8 
REMARK    1  A    between atoms: C4_11  and  N4_12 
REMARK       I    between atoms: N4_12  and  C5_14 
REMARK    2  A    between atoms: C7_17  and  N5_18 
ROOT
HETATM    1  C1  UNL     1      40.212   3.690 101.973  1.00  0.00     0.165 C 
HETATM    2  N1  UNL     1      38.952   2.978 101.978  1.00  0.00    -0.230 N 
ATOM      3  H1  UNL     1      38.317   3.079 101.187  1.00  0.00     0.177 HD
HETATM    4  C2  UNL     1      38.587   2.145 103.060  1.00  0.00     0.681 C 
HETATM    5  N2  UNL     1      38.778   0.879 103.015  1.00  0.00    -0.234 N 
ATOM      6  H21 UNL     1      38.514   0.279 103.796  1.00  0.00     0.174 HD
ATOM      7  H22 UNL     1      39.200   0.460 102.186  1.00  0.00     0.174 HD
HETATM    8  N3  UNL     1      38.009   2.720 104.198  1.00  0.00    -0.132 N 
HETATM    9  S1  UNL     1      38.898   3.164 105.687  1.00  0.00    -0.032 SA
HETATM   10  C3  UNL     1      37.562   4.207 106.412  1.00  0.00     0.127 C 
HETATM   11  C4  UNL     1      36.776   4.475 105.120  1.00  0.00     0.139 C 
HETATM   12  C7  UNL     1      36.641   3.105 104.508  1.00  0.00     0.239 C 
ENDROOT
BRANCH  12  13
HETATM   13  N5  UNL     1      35.785   3.066 103.376  1.00  0.00    -0.342 N 
HETATM   14  C8  UNL     1      34.516   2.966 103.529  1.00  0.00     0.198 C 
HETATM   15  N6  UNL     1      33.990   2.898 104.834  1.00  0.00    -0.067 NA
HETATM   16  N7  UNL     1      33.602   2.922 102.443  1.00  0.00    -0.067 NA
ATOM     17  H5  UNL     1      36.181   3.117 102.438  1.00  0.00     0.164 HD
ENDBRANCH  12  13
BRANCH  11  18
HETATM   18  N4  UNL     1      35.545   5.129 105.364  1.00  0.00    -0.352 N 
HETATM   19  C5  UNL     1      34.933   5.893 104.334  1.00  0.00     0.214 C 
HETATM   20  C6  UNL     1      33.653   6.590 104.541  1.00  0.00     0.117 C 
HETATM   21  O1  UNL     1      35.477   6.000 103.187  1.00  0.00    -0.274 OA
ATOM     22  H4  UNL     1      35.097   5.052 106.277  1.00  0.00     0.163 HD
ENDBRANCH  11  18
TORSDOF 2
ENDMDL
MODEL 2
REMARK VINA RESULT: -5.617118111      2.922      4.992
REMARK  2 active torsions:
REMARK  status: ('A' for Active; 'I' for Inactive)
REMARK       I    between atoms: N1_2  and  C2_4 
REMARK       I    between atoms: C2_4  and  N3_8 
REMARK    1  A    between atoms: C4_11  and  N4_12 
REMARK       I    between atoms: N4_12  and  C5_14 
REMARK    2  A    between atoms: C7_17  and  N5_18 
ROOT
HETATM    1  C1  UNL     1      40.862   4.447 106.638  1.00  0.00     0.165 C 
HETATM    2  N1  UNL     1      39.439   4.419 106.375  1.00  0.00    -0.230 N 
ATOM      3  H1  UNL     1      38.807   4.042 107.081  1.00  0.00     0.177 HD
HETATM    4  C2  UNL     1      38.911   4.906 105.158  1.00  0.00     0.681 C 
HETATM    5  N2  UNL     1      38.440   6.094 105.069  1.00  0.00    -0.234 N 
ATOM      6  H21 UNL     1      38.058   6.445 104.191  1.00  0.00     0.174 HD
ATOM      7  H22 UNL     1      38.443   6.703 105.887  1.00  0.00     0.174 HD
HETATM    8  N3  UNL     1      38.906   4.071 104.035  1.00  0.00    -0.132 N 
HETATM    9  S1  UNL     1      40.148   4.079 102.745  1.00  0.00    -0.032 SA
HETATM   10  C3  UNL     1      39.656   2.473 101.985  1.00  0.00     0.127 C 
HETATM   11  C4  UNL     1      38.889   1.897 103.184  1.00  0.00     0.139 C 
HETATM   12  C7  UNL     1      37.987   3.032 103.595  1.00  0.00     0.239 C 
ENDROOT
BRANCH  12  13
HETATM   13  N5  UNL     1      37.038   2.677 104.589  1.00  0.00    -0.342 N 
HETATM   14  C8  UNL     1      35.935   3.325 104.690  1.00  0.00     0.198 C 
HETATM   15  N6  UNL     1      35.686   4.388 103.800  1.00  0.00    -0.067 NA
HETATM   16  N7  UNL     1      34.942   3.025 105.658  1.00  0.00    -0.067 NA
ATOM     17  H5  UNL     1      37.232   1.905 105.225  1.00  0.00     0.164 HD
ENDBRANCH  12  13
BRANCH  11  18
HETATM   18  N4  UNL     1      38.207   0.699 102.863  1.00  0.00    -0.352 N 
HETATM   19  C5  UNL     1      38.890  -0.545 102.934  1.00  0.00     0.214 C 
HETATM   20  C6  UNL     1      38.222  -1.816 102.610  1.00  0.00     0.117 C 
HETATM   21  O1  UNL     1      40.113  -0.601 103.285  1.00  0.00    -0.274 OA
ATOM     22  H4  UNL     1      37.228   0.728 102.580  1.00  0.00     0.163 HD
ENDBRANCH  11  18
TORSDOF 2
ENDMDL
MODEL 3
REMARK VINA RESULT: -4.929580740      2.254      5.223
REMARK  2 active torsions:
REMARK  status: ('A' for Active; 'I' for Inactive)
REMARK       I    between atoms: N1_2  and  C2_4 
REMARK       I    between atoms: C2_4  and  N3_8 
REMARK    1  A    between atoms: C4_11  and  N4_12 
REMARK       I    between atoms: N4_12  and  C5_14 
REMARK    2  A    between atoms: C7_17  and  N5_18 
ROOT
HETATM    1  C1  UNL     1      33.653   3.607 103.549  1.00  0.00     0.165 C 
HETATM    2  N1  UNL     1      34.843   4.190 102.967  1.00  0.00    -0.230 N 
ATOM      3  H1  UNL     1      35.029   4.062 101.972  1.00  0.00     0.177 HD
HETATM    4  C2  UNL     1      35.753   4.935 103.752  1.00  0.00     0.681 C 
HETATM    5  N2  UNL     1      35.699   6.215 103.791  1.00  0.00    -0.234 N 
ATOM      6  H21 UNL     1      36.356   6.752 104.357  1.00  0.00     0.174 HD
ATOM      7  H22 UNL     1      34.991   6.709 103.248  1.00  0.00     0.174 HD
HETATM    8  N3  UNL     1      36.723   4.258 104.497  1.00  0.00    -0.132 N 
HETATM    9  S1  UNL     1      36.577   3.839 106.232  1.00  0.00    -0.032 SA
HETATM   10  C3  UNL     1      37.976   2.638 106.265  1.00  0.00     0.127 C 
HETATM   11  C4  UNL     1      38.045   2.351 104.758  1.00  0.00     0.139 C 
HETATM   12  C7  UNL     1      38.031   3.726 104.143  1.00  0.00     0.239 C 
ENDROOT
BRANCH  12  13
HETATM   13  N5  UNL     1      38.268   3.730 102.744  1.00  0.00    -0.342 N 
HETATM   14  C8  UNL     1      39.450   3.936 102.289  1.00  0.00     0.198 C 
HETATM   15  N6  UNL     1      40.501   4.157 103.200  1.00  0.00    -0.067 NA
HETATM   16  N7  UNL     1      39.759   3.953 100.904  1.00  0.00    -0.067 NA
ATOM     17  H5  UNL     1      37.497   3.568 102.097  1.00  0.00     0.164 HD
ENDBRANCH  12  13
BRANCH  11  18
HETATM   18  N4  UNL     1      39.172   1.569 104.409  1.00  0.00    -0.352 N 
HETATM   19  C5  UNL     1      39.097   0.668 103.313  1.00  0.00     0.214 C 
HETATM   20  C6  UNL     1      40.243  -0.165 102.914  1.00  0.00     0.117 C 
HETATM   21  O1  UNL     1      38.026   0.552 102.634  1.00  0.00    -0.274 OA
ATOM     22  H4  UNL     1      40.037   1.651 104.944  1.00  0.00     0.163 HD
ENDBRANCH  11  18
TORSDOF 2
ENDMDL
MODEL 4
REMARK VINA RESULT: -4.868980897      1.948      2.481
REMARK  2 active torsions:
REMARK  status: ('A' for Active; 'I' for Inactive)
REMARK       I    between atoms: N1_2  and  C2_4 
REMARK       I    between atoms: C2_4  and  N3_8 
REMARK    1  A    between atoms: C4_11  and  N4_12 
REMARK       I    between atoms: N4_12  and  C5_14 
REMARK    2  A    between atoms: C7_17  and  N5_18 
ROOT
HETATM    1  C1  UNL     1      40.685   3.570 101.565  1.00  0.00     0.165 C 
HETATM    2  N1  UNL     1      39.278   3.882 101.701  1.00  0.00    -0.230 N 
ATOM      3  H1  UNL     1      38.920   4.758 101.319  1.00  0.00     0.177 HD
HETATM    4  C2  UNL     1      38.391   2.996 102.353  1.00  0.00     0.681 C 
HETATM    5  N2  UNL     1      37.674   2.168 101.688  1.00  0.00    -0.234 N 
ATOM      6  H21 UNL     1      37.034   1.529 102.159  1.00  0.00     0.174 HD
ATOM      7  H22 UNL     1      37.739   2.146 100.670  1.00  0.00     0.174 HD
HETATM    8  N3  UNL     1      38.301   3.026 103.749  1.00  0.00    -0.132 N 
HETATM    9  S1  UNL     1      39.180   1.929 104.858  1.00  0.00    -0.032 SA
HETATM   10  C3  UNL     1      38.874   2.907 106.390  1.00  0.00     0.127 C 
HETATM   11  C4  UNL     1      38.544   4.250 105.723  1.00  0.00     0.139 C 
HETATM   12  C7  UNL     1      37.545   3.872 104.660  1.00  0.00     0.239 C 
ENDROOT
BRANCH  12  13
HETATM   13  N5  UNL     1      36.949   4.986 104.014  1.00  0.00    -0.342 N 
HETATM   14  C8  UNL     1      35.688   4.997 103.778  1.00  0.00     0.198 C 
HETATM   15  N6  UNL     1      34.911   3.890 104.172  1.00  0.00    -0.067 NA
HETATM   16  N7  UNL     1      35.026   6.076 103.136  1.00  0.00    -0.067 NA
ATOM     17  H5  UNL     1      37.524   5.780 103.735  1.00  0.00     0.164 HD
ENDBRANCH  12  13
BRANCH  11  18
HETATM   18  N4  UNL     1      38.075   5.212 106.649  1.00  0.00    -0.352 N 
HETATM   19  C5  UNL     1      36.807   5.040 107.266  1.00  0.00     0.214 C 
HETATM   20  C6  UNL     1      36.278   6.014 108.235  1.00  0.00     0.117 C 
HETATM   21  O1  UNL     1      36.081   4.029 106.999  1.00  0.00    -0.274 OA
ATOM     22  H4  UNL     1      38.645   6.027 106.873  1.00  0.00     0.163 HD
ENDBRANCH  11  18
TORSDOF 2
ENDMDL
MODEL 5
REMARK VINA RESULT: -4.826220863      1.101      1.101
REMARK  2 active torsions:
REMARK  status: ('A' for Active; 'I' for Inactive)
REMARK       I    between atoms: N1_2  and  C2_4 
REMARK       I    between atoms: C2_4  and  N3_8 
REMARK    1  A    between atoms: C4_11  and  N4_12 
REMARK       I    between atoms: N4_12  and  C5_14 
REMARK    2  A    between atoms: C7_17  and  N5_18 
ROOT
HETATM    1  C1  UNL     1      40.349   2.564 101.734  1.00  0.00     0.165 C 
HETATM    2  N1  UNL     1      38.991   2.075 101.840  1.00  0.00    -0.230 N 
ATOM      3  H1  UNL     1      38.415   2.011 101.001  1.00  0.00     0.177 HD
HETATM    4  C2  UNL     1      38.450   1.683 103.086  1.00  0.00     0.681 C 
HETATM    5  N2  UNL     1      38.435   0.452 103.443  1.00  0.00    -0.234 N 
ATOM      6  H21 UNL     1      38.044   0.170 104.341  1.00  0.00     0.174 HD
ATOM      7  H22 UNL     1      38.818  -0.260 102.822  1.00  0.00     0.174 HD
HETATM    8  N3  UNL     1      37.924   2.660 103.938  1.00  0.00    -0.132 N 
HETATM    9  S1  UNL     1      38.809   3.418 105.298  1.00  0.00    -0.032 SA
HETATM   10  C3  UNL     1      37.630   4.813 105.548  1.00  0.00     0.127 C 
HETATM   11  C4  UNL     1      36.954   4.770 104.170  1.00  0.00     0.139 C 
HETATM   12  C7  UNL     1      36.625   3.311 103.992  1.00  0.00     0.239 C 
ENDROOT
BRANCH  12  13
HETATM   13  N5  UNL     1      35.823   3.041 102.851  1.00  0.00    -0.342 N 
HETATM   14  C8  UNL     1      34.549   2.955 102.963  1.00  0.00     0.198 C 
HETATM   15  N6  UNL     1      33.962   3.135 104.231  1.00  0.00    -0.067 NA
HETATM   16  N7  UNL     1      33.688   2.688 101.866  1.00  0.00    -0.067 NA
ATOM     17  H5  UNL     1      36.263   2.914 101.940  1.00  0.00     0.164 HD
ENDBRANCH  12  13
BRANCH  11  18
HETATM   18  N4  UNL     1      35.835   5.635 104.091  1.00  0.00    -0.352 N 
HETATM   19  C5  UNL     1      34.950   5.749 105.195  1.00  0.00     0.214 C 
HETATM   20  C6  UNL     1      33.774   6.635 105.158  1.00  0.00     0.117 C 
HETATM   21  O1  UNL     1      35.145   5.084 106.263  1.00  0.00    -0.274 OA
ATOM     22  H4  UNL     1      35.666   6.174 103.242  1.00  0.00     0.163 HD
ENDBRANCH  11  18
TORSDOF 2
ENDMDL
