MODEL 1
REMARK VINA RESULT: -4.005685934      0.000      0.000
REMARK  3 active torsions:
REMARK  status: ('A' for Active; 'I' for Inactive)
REMARK       I    between atoms: N1_2  and  C2_4 
REMARK       I    between atoms: C2_4  and  N3_8 
REMARK       I    between atoms: N4_11  and  C5_12 
REMARK       I    between atoms: C5_12  and  N5_14 
REMARK    1  A    between atoms: N5_14  and  C6_16 
REMARK    2  A    between atoms: C6_16  and  C8_18 
REMARK       I    between atoms: C8_18  and  N6_20 
REMARK    3  A    between atoms: N6_20  and  N7_21 
ROOT
HETATM    1  C1  UNL     1      40.434  -1.120 100.478  1.00  0.00     0.165 C 
HETATM    2  N1  UNL     1      40.664  -0.373 101.687  1.00  0.00    -0.231 N 
ATOM      3  H1  UNL     1      40.529  -0.839 102.584  1.00  0.00     0.177 HD
HETATM    4  C2  UNL     1      41.069   0.978 101.677  1.00  0.00     0.669 C 
HETATM    5  N2  UNL     1      42.227   1.296 101.310  1.00  0.00    -0.235 N 
ATOM      6  H21 UNL     1      42.519   2.274 101.303  1.00  0.00     0.174 HD
ATOM      7  H22 UNL     1      42.906   0.598 101.006  1.00  0.00     0.174 HD
HETATM    8  N3  UNL     1      40.116   1.958 102.104  1.00  0.00    -0.215 N 
HETATM    9  C3  UNL     1      40.593   2.963 103.000  1.00  0.00     0.161 C 
HETATM   10  C4  UNL     1      39.605   3.874 103.608  1.00  0.00     0.148 C 
HETATM   11  N4  UNL     1      38.215   3.601 103.289  1.00  0.00    -0.331 N 
HETATM   12  C5  UNL     1      37.248   4.580 103.608  1.00  0.00     0.319 C 
HETATM   13  O1  UNL     1      37.706   5.655 104.144  1.00  0.00    -0.247 OA
HETATM   14  N5  UNL     1      35.853   4.484 103.397  1.00  0.00    -0.329 N 
ATOM     15  H5  UNL     1      35.443   3.653 102.972  1.00  0.00     0.165 HD
HETATM   16  C9  UNL     1      37.794   2.379 102.667  1.00  0.00     0.148 C 
HETATM   17  C10 UNL     1      38.784   1.897 101.633  1.00  0.00     0.161 C 
ENDROOT
BRANCH  14  18
HETATM   18  C6  UNL     1      35.019   5.607 103.805  1.00  0.00     0.191 C 
HETATM   19  C7  UNL     1      33.650   5.390 103.229  1.00  0.00     0.043 C 
BRANCH  18  20
HETATM   20  C8  UNL     1      34.929   5.619 105.326  1.00  0.00     0.334 C 
HETATM   21  O2  UNL     1      34.045   6.466 105.712  1.00  0.00    -0.253 OA
HETATM   22  N6  UNL     1      35.693   4.827 106.088  1.00  0.00    -0.292 NA
BRANCH  22  23
HETATM   23  N7  UNL     1      36.450   4.040 106.844  1.00  0.00    -0.277 N 
ATOM     24  H72 UNL     1      35.874   4.590 106.209  1.00  0.00     0.191 HD
ATOM     25  H71 UNL     1      37.032   3.436 107.425  1.00  0.00     0.191 HD
ENDBRANCH  22  23
ENDBRANCH  18  20
ENDBRANCH  14  18
TORSDOF 3
ENDMDL
MODEL 2
REMARK VINA RESULT: -3.621801021      2.637      7.221
REMARK  3 active torsions:
REMARK  status: ('A' for Active; 'I' for Inactive)
REMARK       I    between atoms: N1_2  and  C2_4 
REMARK       I    between atoms: C2_4  and  N3_8 
REMARK       I    between atoms: N4_11  and  C5_12 
REMARK       I    between atoms: C5_12  and  N5_14 
REMARK    1  A    between atoms: N5_14  and  C6_16 
REMARK    2  A    between atoms: C6_16  and  C8_18 
REMARK       I    between atoms: C8_18  and  N6_20 
REMARK    3  A    between atoms: N6_20  and  N7_21 
ROOT
HETATM    1  C1  UNL     1      36.632   5.950 107.857  1.00  0.00     0.165 C 
HETATM    2  N1  UNL     1      36.085   4.883 107.062  1.00  0.00    -0.231 N 
ATOM      3  H1  UNL     1      35.895   3.985 107.509  1.00  0.00     0.177 HD
HETATM    4  C2  UNL     1      35.801   5.030 105.688  1.00  0.00     0.669 C 
HETATM    5  N2  UNL     1      34.845   5.748 105.306  1.00  0.00    -0.235 N 
ATOM      6  H21 UNL     1      34.640   5.855 104.312  1.00  0.00     0.174 HD
ATOM      7  H22 UNL     1      34.249   6.247 105.967  1.00  0.00     0.174 HD
HETATM    8  N3  UNL     1      36.637   4.329 104.760  1.00  0.00    -0.215 N 
HETATM    9  C3  UNL     1      35.974   3.638 103.700  1.00  0.00     0.161 C 
HETATM   10  C4  UNL     1      36.780   2.755 102.839  1.00  0.00     0.148 C 
HETATM   11  N4  UNL     1      38.177   2.613 103.211  1.00  0.00    -0.331 N 
HETATM   12  C5  UNL     1      39.060   2.011 102.287  1.00  0.00     0.319 C 
HETATM   13  O1  UNL     1      38.534   1.656 101.169  1.00  0.00    -0.247 OA
HETATM   14  N5  UNL     1      40.439   1.767 102.480  1.00  0.00    -0.329 N 
ATOM     15  H5  UNL     1      40.903   2.034 103.349  1.00  0.00     0.165 HD
HETATM   16  C9  UNL     1      38.685   3.060 104.475  1.00  0.00     0.148 C 
HETATM   17  C10 UNL     1      38.042   4.352 104.921  1.00  0.00     0.161 C 
ENDROOT
BRANCH  14  18
HETATM   18  C6  UNL     1      41.179   1.123 101.403  1.00  0.00     0.191 C 
HETATM   19  C7  UNL     1      42.606   0.986 101.848  1.00  0.00     0.043 C 
BRANCH  18  20
HETATM   20  C8  UNL     1      40.590  -0.263 101.168  1.00  0.00     0.334 C 
HETATM   21  O2  UNL     1      41.123  -0.802 100.132  1.00  0.00    -0.253 OA
HETATM   22  N6  UNL     1      39.655  -0.782 101.973  1.00  0.00    -0.292 NA
BRANCH  22  23
HETATM   23  N7  UNL     1      38.728  -1.297 102.773  1.00  0.00    -0.277 N 
ATOM     24  H72 UNL     1      39.492  -0.919 102.213  1.00  0.00     0.191 HD
ATOM     25  H71 UNL     1      38.016  -1.692 103.387  1.00  0.00     0.191 HD
ENDBRANCH  22  23
ENDBRANCH  18  20
ENDBRANCH  14  18
TORSDOF 3
ENDMDL
MODEL 3
REMARK VINA RESULT: -3.244080311      2.828      7.533
REMARK  3 active torsions:
REMARK  status: ('A' for Active; 'I' for Inactive)
REMARK       I    between atoms: N1_2  and  C2_4 
REMARK       I    between atoms: C2_4  and  N3_8 
REMARK       I    between atoms: N4_11  and  C5_12 
REMARK       I    between atoms: C5_12  and  N5_14 
REMARK    1  A    between atoms: N5_14  and  C6_16 
REMARK    2  A    between atoms: C6_16  and  C8_18 
REMARK       I    between atoms: C8_18  and  N6_20 
REMARK    3  A    between atoms: N6_20  and  N7_21 
ROOT
HETATM    1  C1  UNL     1      33.997   3.252 104.577  1.00  0.00     0.165 C 
HETATM    2  N1  UNL     1      34.977   4.123 103.983  1.00  0.00    -0.231 N 
ATOM      3  H1  UNL     1      34.777   4.538 103.073  1.00  0.00     0.177 HD
HETATM    4  C2  UNL     1      36.203   4.424 104.613  1.00  0.00     0.669 C 
HETATM    5  N2  UNL     1      36.235   5.153 105.634  1.00  0.00    -0.235 N 
ATOM      6  H21 UNL     1      37.122   5.371 106.089  1.00  0.00     0.174 HD
ATOM      7  H22 UNL     1      35.386   5.546 106.042  1.00  0.00     0.174 HD
HETATM    8  N3  UNL     1      37.395   3.874 104.039  1.00  0.00    -0.215 N 
HETATM    9  C3  UNL     1      38.505   4.762 103.902  1.00  0.00     0.161 C 
HETATM   10  C4  UNL     1      39.680   4.289 103.148  1.00  0.00     0.148 C 
HETATM   11  N4  UNL     1      39.556   2.974 102.545  1.00  0.00    -0.331 N 
HETATM   12  C5  UNL     1      40.722   2.350 102.048  1.00  0.00     0.319 C 
HETATM   13  O1  UNL     1      41.813   3.013 102.201  1.00  0.00    -0.247 OA
HETATM   14  N5  UNL     1      40.794   1.090 101.410  1.00  0.00    -0.329 N 
ATOM     15  H5  UNL     1      39.957   0.524 101.269  1.00  0.00     0.165 HD
HETATM   16  C9  UNL     1      38.298   2.294 102.436  1.00  0.00     0.148 C 
HETATM   17  C10 UNL     1      37.425   2.515 103.649  1.00  0.00     0.161 C 
ENDROOT
BRANCH  14  18
HETATM   18  C6  UNL     1      42.099   0.623 100.960  1.00  0.00     0.191 C 
HETATM   19  C7  UNL     1      43.020   0.630 102.145  1.00  0.00     0.043 C 
BRANCH  18  20
HETATM   20  C8  UNL     1      41.953  -0.804 100.444  1.00  0.00     0.334 C 
HETATM   21  O2  UNL     1      40.762  -0.997 100.005  1.00  0.00    -0.253 OA
HETATM   22  N6  UNL     1      42.967  -1.676 100.472  1.00  0.00    -0.292 NA
BRANCH  22  23
HETATM   23  N7  UNL     1      43.975  -2.541 100.499  1.00  0.00    -0.277 N 
ATOM     24  H72 UNL     1      43.246  -1.830 100.436  1.00  0.00     0.191 HD
ATOM     25  H71 UNL     1      44.749  -3.205 100.520  1.00  0.00     0.191 HD
ENDBRANCH  22  23
ENDBRANCH  18  20
ENDBRANCH  14  18
TORSDOF 3
ENDMDL
MODEL 4
REMARK VINA RESULT: -3.207185024      3.337      8.035
REMARK  3 active torsions:
REMARK  status: ('A' for Active; 'I' for Inactive)
REMARK       I    between atoms: N1_2  and  C2_4 
REMARK       I    between atoms: C2_4  and  N3_8 
REMARK       I    between atoms: N4_11  and  C5_12 
REMARK       I    between atoms: C5_12  and  N5_14 
REMARK    1  A    between atoms: N5_14  and  C6_16 
REMARK    2  A    between atoms: C6_16  and  C8_18 
REMARK       I    between atoms: C8_18  and  N6_20 
REMARK    3  A    between atoms: N6_20  and  N7_21 
ROOT
HETATM    1  C1  UNL     1      38.525   7.005 103.886  1.00  0.00     0.165 C 
HETATM    2  N1  UNL     1      38.252   5.704 104.438  1.00  0.00    -0.231 N 
ATOM      3  H1  UNL     1      38.650   5.462 105.346  1.00  0.00     0.177 HD
HETATM    4  C2  UNL     1      37.455   4.750 103.770  1.00  0.00     0.669 C 
HETATM    5  N2  UNL     1      36.216   4.917 103.660  1.00  0.00    -0.235 N 
ATOM      6  H21 UNL     1      35.640   4.227 103.177  1.00  0.00     0.174 HD
ATOM      7  H22 UNL     1      35.748   5.739 104.041  1.00  0.00     0.174 HD
HETATM    8  N3  UNL     1      38.113   3.595 103.235  1.00  0.00    -0.215 N 
HETATM    9  C3  UNL     1      37.484   2.335 103.476  1.00  0.00     0.161 C 
HETATM   10  C4  UNL     1      38.220   1.112 103.107  1.00  0.00     0.148 C 
HETATM   11  N4  UNL     1      39.567   1.315 102.602  1.00  0.00    -0.331 N 
HETATM   12  C5  UNL     1      40.222   0.228 101.981  1.00  0.00     0.319 C 
HETATM   13  O1  UNL     1      39.538  -0.858 101.903  1.00  0.00    -0.247 OA
HETATM   14  N5  UNL     1      41.533   0.227 101.454  1.00  0.00    -0.329 N 
ATOM     15  H5  UNL     1      42.114   1.065 101.490  1.00  0.00     0.165 HD
HETATM   16  C9  UNL     1      40.249   2.571 102.712  1.00  0.00     0.148 C 
HETATM   17  C10 UNL     1      39.317   3.744 102.510  1.00  0.00     0.161 C 
ENDROOT
BRANCH  14  18
HETATM   18  C6  UNL     1      42.032  -1.005 100.858  1.00  0.00     0.191 C 
HETATM   19  C7  UNL     1      41.914  -0.872  99.368  1.00  0.00     0.043 C 
BRANCH  18  20
HETATM   20  C8  UNL     1      43.501  -1.167 101.234  1.00  0.00     0.334 C 
HETATM   21  O2  UNL     1      43.956  -0.073 101.729  1.00  0.00    -0.253 OA
HETATM   22  N6  UNL     1      44.158  -2.318 101.050  1.00  0.00    -0.292 NA
BRANCH  22  23
HETATM   23  N7  UNL     1      44.809  -3.462 100.868  1.00  0.00    -0.277 N 
ATOM     24  H72 UNL     1      44.377  -2.548 100.997  1.00  0.00     0.191 HD
ATOM     25  H71 UNL     1      45.308  -4.341 100.729  1.00  0.00     0.191 HD
ENDBRANCH  22  23
ENDBRANCH  18  20
ENDBRANCH  14  18
TORSDOF 3
ENDMDL
MODEL 5
REMARK VINA RESULT: -3.043705431      2.960      7.523
REMARK  3 active torsions:
REMARK  status: ('A' for Active; 'I' for Inactive)
REMARK       I    between atoms: N1_2  and  C2_4 
REMARK       I    between atoms: C2_4  and  N3_8 
REMARK       I    between atoms: N4_11  and  C5_12 
REMARK       I    between atoms: C5_12  and  N5_14 
REMARK    1  A    between atoms: N5_14  and  C6_16 
REMARK    2  A    between atoms: C6_16  and  C8_18 
REMARK       I    between atoms: C8_18  and  N6_20 
REMARK    3  A    between atoms: N6_20  and  N7_21 
ROOT
HETATM    1  C1  UNL     1      34.490   5.834 103.345  1.00  0.00     0.165 C 
HETATM    2  N1  UNL     1      35.654   5.485 104.116  1.00  0.00    -0.231 N 
ATOM      3  H1  UNL     1      36.437   6.138 104.146  1.00  0.00     0.177 HD
HETATM    4  C2  UNL     1      35.751   4.274 104.833  1.00  0.00     0.669 C 
HETATM    5  N2  UNL     1      35.062   4.084 105.865  1.00  0.00    -0.235 N 
ATOM      6  H21 UNL     1      35.133   3.208 106.383  1.00  0.00     0.174 HD
ATOM      7  H22 UNL     1      34.412   4.788 106.215  1.00  0.00     0.174 HD
HETATM    8  N3  UNL     1      36.665   3.285 104.342  1.00  0.00    -0.215 N 
HETATM    9  C3  UNL     1      37.502   2.653 105.311  1.00  0.00     0.161 C 
HETATM   10  C4  UNL     1      38.579   1.772 104.826  1.00  0.00     0.148 C 
HETATM   11  N4  UNL     1      38.732   1.698 103.383  1.00  0.00    -0.331 N 
HETATM   12  C5  UNL     1      39.550   0.679 102.846  1.00  0.00     0.319 C 
HETATM   13  O1  UNL     1      40.078  -0.118 103.706  1.00  0.00    -0.247 OA
HETATM   14  N5  UNL     1      39.837   0.465 101.479  1.00  0.00    -0.329 N 
ATOM     15  H5  UNL     1      39.439   1.068 100.758  1.00  0.00     0.165 HD
HETATM   16  C9  UNL     1      38.086   2.618 102.493  1.00  0.00     0.148 C 
HETATM   17  C10 UNL     1      36.696   2.981 102.961  1.00  0.00     0.161 C 
ENDROOT
BRANCH  14  18
HETATM   18  C6  UNL     1      40.716  -0.643 101.127  1.00  0.00     0.191 C 
HETATM   19  C7  UNL     1      40.406  -1.041  99.714  1.00  0.00     0.043 C 
BRANCH  18  20
HETATM   20  C8  UNL     1      42.160  -0.162 101.209  1.00  0.00     0.334 C 
HETATM   21  O2  UNL     1      42.196   1.083 101.522  1.00  0.00    -0.253 OA
HETATM   22  N6  UNL     1      43.194  -0.979 100.979  1.00  0.00    -0.292 NA
BRANCH  22  23
HETATM   23  N7  UNL     1      44.221  -1.791 100.751  1.00  0.00    -0.277 N 
ATOM     24  H72 UNL     1      43.439  -1.186 101.001  1.00  0.00     0.191 HD
ATOM     25  H71 UNL     1      45.008  -2.415 100.576  1.00  0.00     0.191 HD
ENDBRANCH  22  23
ENDBRANCH  18  20
ENDBRANCH  14  18
TORSDOF 3
ENDMDL
