MODEL 1
REMARK VINA RESULT: -10.593241328      0.000      0.000
REMARK  9 active torsions:
REMARK  status: ('A' for Active; 'I' for Inactive)
REMARK    1  A    between atoms: C5_5  and  C6_6 
REMARK    2  A    between atoms: C6_6  and  N1_7 
REMARK    3  A    between atoms: C7_8  and  S1_9 
REMARK    4  A    between atoms: S1_9  and  C8_10 
REMARK    5  A    between atoms: C14_21  and  S2_22 
REMARK    6  A    between atoms: S2_22  and  C15_23 
REMARK    7  A    between atoms: C15_23  and  C16_24 
REMARK       I    between atoms: C16_24  and  N4_26 
REMARK    8  A    between atoms: N4_26  and  C17_28 
REMARK    9  A    between atoms: C22_34  and  C23_35 
ROOT
HETATM    1  C17 UNL     1      18.758   5.235  17.219  1.00  0.00     0.035 A 
HETATM    2  C18 UNL     1      18.327   4.640  18.374  1.00  0.00     0.031 A 
HETATM    3  C19 UNL     1      18.611   5.175  19.643  1.00  0.00     0.026 A 
HETATM    4  C20 UNL     1      19.341   6.328  19.763  1.00  0.00     0.059 A 
HETATM    5  C21 UNL     1      19.617   6.855  21.078  1.00  0.00     0.100 C 
HETATM    6  N5  UNL     1      19.829   7.260  22.137  1.00  0.00    -0.191 NA
HETATM    7  C22 UNL     1      19.789   6.952  18.623  1.00  0.00     0.070 A 
HETATM    8  C24 UNL     1      19.502   6.415  17.397  1.00  0.00     0.047 A 
ENDROOT
BRANCH   7   9
HETATM    9  C23 UNL     1      20.582   8.206  18.762  1.00  0.00     0.419 C 
HETATM   10  F1  UNL     1      20.750   8.760  17.492  1.00  0.00    -0.166 F 
HETATM   11  F2  UNL     1      20.013   9.122  19.603  1.00  0.00    -0.166 F 
HETATM   12  F3  UNL     1      21.823   7.832  19.290  1.00  0.00    -0.166 F 
ENDBRANCH   7   9
BRANCH   1  13
HETATM   13  N4  UNL     1      18.501   4.770  15.911  1.00  0.00    -0.327 N 
HETATM   14  C16 UNL     1      17.288   4.755  15.223  1.00  0.00     0.231 C 
HETATM   15  O1  UNL     1      16.226   5.172  15.685  1.00  0.00    -0.272 OA
ATOM     16  H4  UNL     1      19.305   4.397  15.404  1.00  0.00     0.169 HD
BRANCH  14  17
HETATM   17  C15 UNL     1      17.228   4.203  13.809  1.00  0.00     0.185 C 
BRANCH  17  18
HETATM   18  S2  UNL     1      16.703   5.549  12.765  1.00  0.00    -0.083 SA
BRANCH  18  19
HETATM   19  C14 UNL     1      15.459   5.185  11.578  1.00  0.00     0.163 A 
HETATM   20  N1  UNL     1      14.090   5.132  11.634  1.00  0.00    -0.305 N 
HETATM   21  C7  UNL     1      13.612   4.816  10.423  1.00  0.00     0.167 A 
HETATM   22  N2  UNL     1      14.707   4.676   9.613  1.00  0.00    -0.277 N 
HETATM   23  N3  UNL     1      15.787   4.890  10.287  1.00  0.00    -0.278 N 
ATOM     24  H2  UNL     1      14.674   4.436   8.622  1.00  0.00     0.189 HD
ATOM     25  H3  UNL     1      16.735   4.847   9.913  1.00  0.00     0.189 HD
BRANCH  20  26
HETATM   26  C6  UNL     1      13.342   5.298  12.824  1.00  0.00     0.138 C 
BRANCH  26  27
HETATM   27  C5  UNL     1      12.663   4.159  13.478  1.00  0.00     0.004 C 
HETATM   28  C4  UNL     1      11.485   4.493  14.356  1.00  0.00     0.006 C 
HETATM   29  C3  UNL     1      10.689   3.199  14.501  1.00  0.00     0.005 C 
HETATM   30  C2  UNL     1      11.473   2.060  15.012  1.00  0.00    -0.019 C 
HETATM   31  C1  UNL     1      10.868   1.569  16.338  1.00  0.00     0.010 C 
HETATM   32  C26 UNL     1      12.934   2.261  15.104  1.00  0.00     0.005 C 
HETATM   33  C25 UNL     1      13.572   3.302  14.298  1.00  0.00     0.006 C 
ENDBRANCH  26  27
ENDBRANCH  20  26
BRANCH  21  34
HETATM   34  S1  UNL     1      11.955   4.506   9.827  1.00  0.00    -0.064 SA
BRANCH  34  35
HETATM   35  C8  UNL     1      10.770   5.579  10.587  1.00  0.00     0.057 C 
HETATM   36  C9  UNL     1       9.619   5.215  11.120  1.00  0.00    -0.055 C 
HETATM   37  C10 UNL     1       8.946   3.910  11.269  1.00  0.00     0.036 C 
HETATM   38  C13 UNL     1       8.679   6.225  11.745  1.00  0.00     0.111 C 
HETATM   39  C11 UNL     1       7.847   4.121  12.313  1.00  0.00     0.006 C 
HETATM   40  C12 UNL     1       8.185   5.460  12.951  1.00  0.00     0.025 C 
HETATM   41 CL1  UNL     1       7.336   6.573  10.654  1.00  0.00    -0.120 Cl
ENDBRANCH  34  35
ENDBRANCH  21  34
ENDBRANCH  18  19
ENDBRANCH  17  18
ENDBRANCH  14  17
ENDBRANCH   1  13
TORSDOF 9
ENDMDL
MODEL 2
REMARK VINA RESULT: -10.383016340      5.389      9.296
REMARK  9 active torsions:
REMARK  status: ('A' for Active; 'I' for Inactive)
REMARK    1  A    between atoms: C5_5  and  C6_6 
REMARK    2  A    between atoms: C6_6  and  N1_7 
REMARK    3  A    between atoms: C7_8  and  S1_9 
REMARK    4  A    between atoms: S1_9  and  C8_10 
REMARK    5  A    between atoms: C14_21  and  S2_22 
REMARK    6  A    between atoms: S2_22  and  C15_23 
REMARK    7  A    between atoms: C15_23  and  C16_24 
REMARK       I    between atoms: C16_24  and  N4_26 
REMARK    8  A    between atoms: N4_26  and  C17_28 
REMARK    9  A    between atoms: C22_34  and  C23_35 
ROOT
HETATM    1  C17 UNL     1       9.453   3.617  12.631  1.00  0.00     0.035 A 
HETATM    2  C18 UNL     1       8.243   3.458  13.252  1.00  0.00     0.031 A 
HETATM    3  C19 UNL     1       8.126   2.867  14.522  1.00  0.00     0.026 A 
HETATM    4  C20 UNL     1       9.239   2.425  15.188  1.00  0.00     0.059 A 
HETATM    5  C21 UNL     1       9.089   1.822  16.491  1.00  0.00     0.100 C 
HETATM    6  N5  UNL     1       8.950   1.342  17.530  1.00  0.00    -0.191 NA
HETATM    7  C22 UNL     1      10.470   2.570  14.593  1.00  0.00     0.070 A 
HETATM    8  C24 UNL     1      10.562   3.148  13.356  1.00  0.00     0.047 A 
ENDROOT
BRANCH   7   9
HETATM    9  C23 UNL     1      11.676   2.087  15.323  1.00  0.00     0.419 C 
HETATM   10  F1  UNL     1      12.094   3.096  16.192  1.00  0.00    -0.166 F 
HETATM   11  F2  UNL     1      11.467   0.926  16.015  1.00  0.00    -0.166 F 
HETATM   12  F3  UNL     1      12.658   1.852  14.353  1.00  0.00    -0.166 F 
ENDBRANCH   7   9
BRANCH   1  13
HETATM   13  N4  UNL     1       9.654   4.214  11.366  1.00  0.00    -0.327 N 
HETATM   14  C16 UNL     1       9.604   5.567  11.033  1.00  0.00     0.231 C 
HETATM   15  O1  UNL     1       9.371   6.469  11.837  1.00  0.00    -0.272 OA
ATOM     16  H4  UNL     1       9.862   3.573  10.599  1.00  0.00     0.169 HD
BRANCH  14  17
HETATM   17  C15 UNL     1       9.851   6.001   9.599  1.00  0.00     0.185 C 
BRANCH  17  18
HETATM   18  S2  UNL     1      11.325   7.003   9.622  1.00  0.00    -0.083 SA
BRANCH  18  19
HETATM   19  C14 UNL     1      12.851   6.152   9.810  1.00  0.00     0.163 A 
HETATM   20  N1  UNL     1      14.114   6.550  10.162  1.00  0.00    -0.305 N 
HETATM   21  C7  UNL     1      14.927   5.485  10.170  1.00  0.00     0.167 A 
HETATM   22  N2  UNL     1      14.145   4.416   9.818  1.00  0.00    -0.277 N 
HETATM   23  N3  UNL     1      12.933   4.805   9.607  1.00  0.00    -0.278 N 
ATOM     24  H2  UNL     1      14.474   3.454   9.735  1.00  0.00     0.189 HD
ATOM     25  H3  UNL     1      12.158   4.201   9.332  1.00  0.00     0.189 HD
BRANCH  20  26
HETATM   26  C6  UNL     1      14.484   7.899  10.384  1.00  0.00     0.138 C 
BRANCH  26  27
HETATM   27  C5  UNL     1      15.521   8.563   9.565  1.00  0.00     0.004 C 
HETATM   28  C4  UNL     1      16.788   8.959  10.278  1.00  0.00     0.006 C 
HETATM   29  C3  UNL     1      17.841   9.149   9.188  1.00  0.00     0.005 C 
HETATM   30  C2  UNL     1      17.457  10.108   8.137  1.00  0.00    -0.019 C 
HETATM   31  C1  UNL     1      18.460  11.273   8.108  1.00  0.00     0.010 C 
HETATM   32  C26 UNL     1      16.056  10.578   8.159  1.00  0.00     0.005 C 
HETATM   33  C25 UNL     1      15.039   9.783   8.850  1.00  0.00     0.006 C 
ENDBRANCH  26  27
ENDBRANCH  20  26
BRANCH  21  34
HETATM   34  S1  UNL     1      16.683   5.312  10.454  1.00  0.00    -0.064 SA
BRANCH  34  35
HETATM   35  C8  UNL     1      17.027   4.549  12.013  1.00  0.00     0.057 C 
HETATM   36  C9  UNL     1      16.351   4.723  13.132  1.00  0.00    -0.055 C 
HETATM   37  C10 UNL     1      15.171   5.539  13.479  1.00  0.00     0.036 C 
HETATM   38  C13 UNL     1      16.740   4.013  14.413  1.00  0.00     0.111 C 
HETATM   39  C11 UNL     1      14.660   4.991  14.814  1.00  0.00     0.006 C 
HETATM   40  C12 UNL     1      15.383   3.663  14.978  1.00  0.00     0.025 C 
HETATM   41 CL1  UNL     1      17.582   5.122  15.499  1.00  0.00    -0.120 Cl
ENDBRANCH  34  35
ENDBRANCH  21  34
ENDBRANCH  18  19
ENDBRANCH  17  18
ENDBRANCH  14  17
ENDBRANCH   1  13
TORSDOF 9
ENDMDL
MODEL 3
REMARK VINA RESULT: -10.305503452      2.185      4.133
REMARK  9 active torsions:
REMARK  status: ('A' for Active; 'I' for Inactive)
REMARK    1  A    between atoms: C5_5  and  C6_6 
REMARK    2  A    between atoms: C6_6  and  N1_7 
REMARK    3  A    between atoms: C7_8  and  S1_9 
REMARK    4  A    between atoms: S1_9  and  C8_10 
REMARK    5  A    between atoms: C14_21  and  S2_22 
REMARK    6  A    between atoms: S2_22  and  C15_23 
REMARK    7  A    between atoms: C15_23  and  C16_24 
REMARK       I    between atoms: C16_24  and  N4_26 
REMARK    8  A    between atoms: N4_26  and  C17_28 
REMARK    9  A    between atoms: C22_34  and  C23_35 
ROOT
HETATM    1  C17 UNL     1      18.885   5.151  17.394  1.00  0.00     0.035 A 
HETATM    2  C18 UNL     1      18.434   4.595  18.561  1.00  0.00     0.031 A 
HETATM    3  C19 UNL     1      18.666   5.191  19.813  1.00  0.00     0.026 A 
HETATM    4  C20 UNL     1      19.362   6.367  19.904  1.00  0.00     0.059 A 
HETATM    5  C21 UNL     1      19.585   6.956  21.202  1.00  0.00     0.100 C 
HETATM    6  N5  UNL     1      19.755   7.411  22.248  1.00  0.00    -0.191 NA
HETATM    7  C22 UNL     1      19.829   6.953  18.751  1.00  0.00     0.070 A 
HETATM    8  C24 UNL     1      19.593   6.356  17.542  1.00  0.00     0.047 A 
ENDROOT
BRANCH   7   9
HETATM    9  C23 UNL     1      20.586   8.232  18.858  1.00  0.00     0.419 C 
HETATM   10  F1  UNL     1      20.755   8.749  17.573  1.00  0.00    -0.166 F 
HETATM   11  F2  UNL     1      19.981   9.158  19.663  1.00  0.00    -0.166 F 
HETATM   12  F3  UNL     1      21.830   7.910  19.413  1.00  0.00    -0.166 F 
ENDBRANCH   7   9
BRANCH   1  13
HETATM   13  N4  UNL     1      18.680   4.623  16.100  1.00  0.00    -0.327 N 
HETATM   14  C16 UNL     1      17.508   4.625  15.343  1.00  0.00     0.231 C 
HETATM   15  O1  UNL     1      16.443   5.115  15.718  1.00  0.00    -0.272 OA
ATOM     16  H4  UNL     1      19.491   4.185  15.663  1.00  0.00     0.169 HD
BRANCH  14  17
HETATM   17  C15 UNL     1      17.501   3.996  13.961  1.00  0.00     0.185 C 
BRANCH  17  18
HETATM   18  S2  UNL     1      16.808   5.212  12.858  1.00  0.00    -0.083 SA
BRANCH  18  19
HETATM   19  C14 UNL     1      15.077   5.117  12.567  1.00  0.00     0.163 A 
HETATM   20  N1  UNL     1      14.280   5.455  11.505  1.00  0.00    -0.305 N 
HETATM   21  C7  UNL     1      13.007   5.159  11.797  1.00  0.00     0.167 A 
HETATM   22  N2  UNL     1      13.027   4.628  13.060  1.00  0.00    -0.277 N 
HETATM   23  N3  UNL     1      14.236   4.604  13.511  1.00  0.00    -0.278 N 
ATOM     24  H2  UNL     1      12.206   4.301  13.569  1.00  0.00     0.189 HD
ATOM     25  H3  UNL     1      14.518   4.256  14.428  1.00  0.00     0.189 HD
BRANCH  20  26
HETATM   26  C6  UNL     1      14.754   6.100  10.336  1.00  0.00     0.138 C 
BRANCH  26  27
HETATM   27  C5  UNL     1      15.130   7.530  10.339  1.00  0.00     0.004 C 
HETATM   28  C4  UNL     1      14.342   8.433   9.427  1.00  0.00     0.006 C 
HETATM   29  C3  UNL     1      14.558   9.851   9.951  1.00  0.00     0.005 C 
HETATM   30  C2  UNL     1      15.973  10.247  10.059  1.00  0.00    -0.019 C 
HETATM   31  C1  UNL     1      16.240  11.464   9.157  1.00  0.00     0.010 C 
HETATM   32  C26 UNL     1      16.970   9.175   9.860  1.00  0.00     0.005 C 
HETATM   33  C25 UNL     1      16.572   7.778  10.038  1.00  0.00     0.006 C 
ENDBRANCH  26  27
ENDBRANCH  20  26
BRANCH  21  34
HETATM   34  S1  UNL     1      11.477   5.414  10.908  1.00  0.00    -0.064 SA
BRANCH  34  35
HETATM   35  C8  UNL     1      10.085   5.490  11.999  1.00  0.00     0.057 C 
HETATM   36  C9  UNL     1       9.149   4.571  12.131  1.00  0.00    -0.055 C 
HETATM   37  C10 UNL     1       8.922   3.263  11.486  1.00  0.00     0.036 C 
HETATM   38  C13 UNL     1       7.997   4.745  13.102  1.00  0.00     0.111 C 
HETATM   39  C11 UNL     1       7.899   2.534  12.361  1.00  0.00     0.006 C 
HETATM   40  C12 UNL     1       7.860   3.343  13.648  1.00  0.00     0.025 C 
HETATM   41 CL1  UNL     1       6.529   5.205  12.236  1.00  0.00    -0.120 Cl
ENDBRANCH  34  35
ENDBRANCH  21  34
ENDBRANCH  18  19
ENDBRANCH  17  18
ENDBRANCH  14  17
ENDBRANCH   1  13
TORSDOF 9
ENDMDL
MODEL 4
REMARK VINA RESULT: -10.231958353      6.030      9.622
REMARK  9 active torsions:
REMARK  status: ('A' for Active; 'I' for Inactive)
REMARK    1  A    between atoms: C5_5  and  C6_6 
REMARK    2  A    between atoms: C6_6  and  N1_7 
REMARK    3  A    between atoms: C7_8  and  S1_9 
REMARK    4  A    between atoms: S1_9  and  C8_10 
REMARK    5  A    between atoms: C14_21  and  S2_22 
REMARK    6  A    between atoms: S2_22  and  C15_23 
REMARK    7  A    between atoms: C15_23  and  C16_24 
REMARK       I    between atoms: C16_24  and  N4_26 
REMARK    8  A    between atoms: N4_26  and  C17_28 
REMARK    9  A    between atoms: C22_34  and  C23_35 
ROOT
HETATM    1  C17 UNL     1      10.513   3.842  12.752  1.00  0.00     0.035 A 
HETATM    2  C18 UNL     1      11.628   3.651  13.523  1.00  0.00     0.031 A 
HETATM    3  C19 UNL     1      11.578   2.991  14.763  1.00  0.00     0.026 A 
HETATM    4  C20 UNL     1      10.390   2.509  15.245  1.00  0.00     0.059 A 
HETATM    5  C21 UNL     1      10.367   1.834  16.521  1.00  0.00     0.100 C 
HETATM    6  N5  UNL     1      10.369   1.300  17.543  1.00  0.00    -0.191 NA
HETATM    7  C22 UNL     1       9.250   2.683  14.496  1.00  0.00     0.070 A 
HETATM    8  C24 UNL     1       9.320   3.329  13.292  1.00  0.00     0.047 A 
ENDROOT
BRANCH   7   9
HETATM    9  C23 UNL     1       7.961   2.155  15.028  1.00  0.00     0.419 C 
HETATM   10  F1  UNL     1       7.970   0.766  14.897  1.00  0.00    -0.166 F 
HETATM   11  F2  UNL     1       7.723   2.505  16.328  1.00  0.00    -0.166 F 
HETATM   12  F3  UNL     1       6.951   2.706  14.230  1.00  0.00    -0.166 F 
ENDBRANCH   7   9
BRANCH   1  13
HETATM   13  N4  UNL     1      10.485   4.480  11.493  1.00  0.00    -0.327 N 
HETATM   14  C16 UNL     1       9.883   5.692  11.153  1.00  0.00     0.231 C 
HETATM   15  O1  UNL     1       9.270   6.406  11.946  1.00  0.00    -0.272 OA
ATOM     16  H4  UNL     1      10.965   3.993  10.735  1.00  0.00     0.169 HD
BRANCH  14  17
HETATM   17  C15 UNL     1       9.969   6.203   9.726  1.00  0.00     0.185 C 
BRANCH  17  18
HETATM   18  S2  UNL     1      11.471   7.157   9.621  1.00  0.00    -0.083 SA
BRANCH  18  19
HETATM   19  C14 UNL     1      12.979   6.273   9.814  1.00  0.00     0.163 A 
HETATM   20  N1  UNL     1      14.252   6.647  10.156  1.00  0.00    -0.305 N 
HETATM   21  C7  UNL     1      15.040   5.563  10.173  1.00  0.00     0.167 A 
HETATM   22  N2  UNL     1      14.232   4.509   9.838  1.00  0.00    -0.277 N 
HETATM   23  N3  UNL     1      13.028   4.923   9.627  1.00  0.00    -0.278 N 
ATOM     24  H2  UNL     1      14.538   3.538   9.766  1.00  0.00     0.189 HD
ATOM     25  H3  UNL     1      12.238   4.333   9.364  1.00  0.00     0.189 HD
BRANCH  20  26
HETATM   26  C6  UNL     1      14.653   7.990  10.359  1.00  0.00     0.138 C 
BRANCH  26  27
HETATM   27  C5  UNL     1      15.680   8.628   9.508  1.00  0.00     0.004 C 
HETATM   28  C4  UNL     1      16.979   8.990  10.181  1.00  0.00     0.006 C 
HETATM   29  C3  UNL     1      18.001   9.156   9.058  1.00  0.00     0.005 C 
HETATM   30  C2  UNL     1      17.609  10.126   8.021  1.00  0.00    -0.019 C 
HETATM   31  C1  UNL     1      18.641  11.266   7.962  1.00  0.00     0.010 C 
HETATM   32  C26 UNL     1      16.222  10.631   8.089  1.00  0.00     0.005 C 
HETATM   33  C25 UNL     1      15.208   9.861   8.810  1.00  0.00     0.006 C 
ENDBRANCH  26  27
ENDBRANCH  20  26
BRANCH  21  34
HETATM   34  S1  UNL     1      16.793   5.354  10.452  1.00  0.00    -0.064 SA
BRANCH  34  35
HETATM   35  C8  UNL     1      17.125   4.558  11.998  1.00  0.00     0.057 C 
HETATM   36  C9  UNL     1      16.500   4.779  13.137  1.00  0.00    -0.055 C 
HETATM   37  C10 UNL     1      15.399   5.684  13.524  1.00  0.00     0.036 C 
HETATM   38  C13 UNL     1      16.871   4.035  14.404  1.00  0.00     0.111 C 
HETATM   39  C11 UNL     1      14.889   5.171  14.873  1.00  0.00     0.006 C 
HETATM   40  C12 UNL     1      15.510   3.790  15.011  1.00  0.00     0.025 C 
HETATM   41 CL1  UNL     1      17.832   5.069  15.465  1.00  0.00    -0.120 Cl
ENDBRANCH  34  35
ENDBRANCH  21  34
ENDBRANCH  18  19
ENDBRANCH  17  18
ENDBRANCH  14  17
ENDBRANCH   1  13
TORSDOF 9
ENDMDL
MODEL 5
REMARK VINA RESULT: -10.040522809      2.630      4.601
REMARK  9 active torsions:
REMARK  status: ('A' for Active; 'I' for Inactive)
REMARK    1  A    between atoms: C5_5  and  C6_6 
REMARK    2  A    between atoms: C6_6  and  N1_7 
REMARK    3  A    between atoms: C7_8  and  S1_9 
REMARK    4  A    between atoms: S1_9  and  C8_10 
REMARK    5  A    between atoms: C14_21  and  S2_22 
REMARK    6  A    between atoms: S2_22  and  C15_23 
REMARK    7  A    between atoms: C15_23  and  C16_24 
REMARK       I    between atoms: C16_24  and  N4_26 
REMARK    8  A    between atoms: N4_26  and  C17_28 
REMARK    9  A    between atoms: C22_34  and  C23_35 
ROOT
HETATM    1  C17 UNL     1      19.492   6.742  17.610  1.00  0.00     0.035 A 
HETATM    2  C18 UNL     1      20.296   7.772  17.202  1.00  0.00     0.031 A 
HETATM    3  C19 UNL     1      20.895   8.661  18.111  1.00  0.00     0.026 A 
HETATM    4  C20 UNL     1      20.688   8.520  19.458  1.00  0.00     0.059 A 
HETATM    5  C21 UNL     1      21.316   9.448  20.369  1.00  0.00     0.100 C 
HETATM    6  N5  UNL     1      21.824  10.198  21.082  1.00  0.00    -0.191 NA
HETATM    7  C22 UNL     1      19.887   7.496  19.903  1.00  0.00     0.070 A 
HETATM    8  C24 UNL     1      19.313   6.641  19.002  1.00  0.00     0.047 A 
ENDROOT
BRANCH   7   9
HETATM    9  C23 UNL     1      19.667   7.349  21.370  1.00  0.00     0.419 C 
HETATM   10  F1  UNL     1      18.584   6.491  21.567  1.00  0.00    -0.166 F 
HETATM   11  F2  UNL     1      20.764   6.884  22.042  1.00  0.00    -0.166 F 
HETATM   12  F3  UNL     1      19.361   8.627  21.853  1.00  0.00    -0.166 F 
ENDBRANCH   7   9
BRANCH   1  13
HETATM   13  N4  UNL     1      18.869   5.800  16.762  1.00  0.00    -0.327 N 
HETATM   14  C16 UNL     1      19.170   4.447  16.607  1.00  0.00     0.231 C 
HETATM   15  O1  UNL     1      20.061   3.862  17.222  1.00  0.00    -0.272 OA
ATOM     16  H4  UNL     1      18.101   6.154  16.191  1.00  0.00     0.169 HD
BRANCH  14  17
HETATM   17  C15 UNL     1      18.371   3.603  15.629  1.00  0.00     0.185 C 
BRANCH  17  18
HETATM   18  S2  UNL     1      17.500   4.745  14.573  1.00  0.00    -0.083 SA
BRANCH  18  19
HETATM   19  C14 UNL     1      15.748   4.766  14.712  1.00  0.00     0.163 A 
HETATM   20  N1  UNL     1      14.731   4.774  13.793  1.00  0.00    -0.305 N 
HETATM   21  C7  UNL     1      13.556   4.774  14.437  1.00  0.00     0.167 A 
HETATM   22  N2  UNL     1      13.861   4.764  15.772  1.00  0.00    -0.277 N 
HETATM   23  N3  UNL     1      15.142   4.759  15.934  1.00  0.00    -0.278 N 
ATOM     24  H2  UNL     1      13.177   4.760  16.528  1.00  0.00     0.189 HD
ATOM     25  H3  UNL     1      15.624   4.752  16.833  1.00  0.00     0.189 HD
BRANCH  20  26
HETATM   26  C6  UNL     1      14.930   4.863  12.394  1.00  0.00     0.138 C 
BRANCH  26  27
HETATM   27  C5  UNL     1      14.834   6.153  11.679  1.00  0.00     0.004 C 
HETATM   28  C4  UNL     1      14.663   6.081  10.183  1.00  0.00     0.006 C 
HETATM   29  C3  UNL     1      14.109   7.438   9.757  1.00  0.00     0.005 C 
HETATM   30  C2  UNL     1      14.930   8.586  10.180  1.00  0.00    -0.019 C 
HETATM   31  C1  UNL     1      15.415   9.360   8.942  1.00  0.00     0.010 C 
HETATM   32  C26 UNL     1      16.031   8.293  11.121  1.00  0.00     0.005 C 
HETATM   33  C25 UNL     1      15.984   7.073  11.929  1.00  0.00     0.006 C 
ENDBRANCH  26  27
ENDBRANCH  20  26
BRANCH  21  34
HETATM   34  S1  UNL     1      11.867   4.865  13.860  1.00  0.00    -0.064 SA
BRANCH  34  35
HETATM   35  C8  UNL     1      10.965   3.385  14.221  1.00  0.00     0.057 C 
HETATM   36  C9  UNL     1       9.864   2.978  13.620  1.00  0.00    -0.055 C 
HETATM   37  C10 UNL     1       9.043   3.542  12.531  1.00  0.00     0.036 C 
HETATM   38  C13 UNL     1       9.175   1.687  14.016  1.00  0.00     0.111 C 
HETATM   39  C11 UNL     1       8.147   2.400  12.047  1.00  0.00     0.006 C 
HETATM   40  C12 UNL     1       8.757   1.152  12.666  1.00  0.00     0.025 C 
HETATM   41 CL1  UNL     1       7.751   2.028  15.001  1.00  0.00    -0.120 Cl
ENDBRANCH  34  35
ENDBRANCH  21  34
ENDBRANCH  18  19
ENDBRANCH  17  18
ENDBRANCH  14  17
ENDBRANCH   1  13
TORSDOF 9
ENDMDL
