MODEL 1
REMARK VINA RESULT: -8.994967533      0.000      0.000
REMARK  10 active torsions:
REMARK  status: ('A' for Active; 'I' for Inactive)
REMARK    1  A    between atoms: O1_2  and  C2_3 
REMARK    2  A    between atoms: C5_7  and  O2_8 
REMARK    3  A    between atoms: O2_8  and  C6_9 
REMARK    4  A    between atoms: N1_12  and  C9_13 
REMARK    5  A    between atoms: C9_13  and  C10_14 
REMARK    6  A    between atoms: C10_14  and  C11_15 
REMARK    7  A    between atoms: C11_15  and  S1_16 
REMARK    8  A    between atoms: S1_16  and  C12_17 
REMARK    9  A    between atoms: C13_20  and  C14_21 
REMARK   10  A    between atoms: C18_25  and  O3_26 
ROOT
HETATM    1  C9  UNL     1      16.995   5.249  14.160  1.00  0.00     0.273 C 
ENDROOT
BRANCH   1   2
HETATM    2  N1  UNL     1      15.643   5.349  14.601  1.00  0.00     0.088 N 
HETATM    3  C8  UNL     1      15.291   4.437  15.661  1.00  0.00     0.275 C 
HETATM    4  C7  UNL     1      13.866   4.726  16.072  1.00  0.00     0.062 C 
HETATM    5  C6  UNL     1      12.961   4.227  14.959  1.00  0.00     0.132 C 
HETATM    6  C22 UNL     1      13.653   4.302  13.614  1.00  0.00     0.062 C 
HETATM    7  C21 UNL     1      14.669   5.411  13.555  1.00  0.00     0.275 C 
BRANCH   5   8
HETATM    8  O2  UNL     1      11.795   4.983  15.007  1.00  0.00    -0.346 OA
BRANCH   8   9
HETATM    9  C5  UNL     1      10.638   4.665  14.355  1.00  0.00     0.072 A 
HETATM   10  C4  UNL     1      10.410   3.303  14.088  1.00  0.00     0.063 A 
HETATM   11  C3  UNL     1       9.288   2.858  13.441  1.00  0.00     0.071 A 
HETATM   12  C2  UNL     1       8.313   3.731  13.012  1.00  0.00     0.111 A 
HETATM   13 CL1  UNL     1       9.032   1.139  13.123  1.00  0.00    -0.081 Cl
HETATM   14  C24 UNL     1       8.506   5.067  13.257  1.00  0.00     0.071 A 
HETATM   15  C23 UNL     1       9.658   5.516  13.921  1.00  0.00     0.063 A 
HETATM   16 CL4  UNL     1       7.298   6.207  12.729  1.00  0.00    -0.081 Cl
BRANCH  12  17
HETATM   17  O1  UNL     1       7.184   3.280  12.360  1.00  0.00    -0.352 OA
HETATM   18  C1  UNL     1       6.053   2.912  13.115  1.00  0.00     0.210 C 
ENDBRANCH  12  17
ENDBRANCH   8   9
ENDBRANCH   5   8
ENDBRANCH   1   2
BRANCH   1  19
HETATM   19  C10 UNL     1      17.159   4.479  12.864  1.00  0.00     0.041 C 
BRANCH  19  20
HETATM   20  C11 UNL     1      17.238   5.449  11.734  1.00  0.00     0.082 C 
BRANCH  20  21
HETATM   21  S1  UNL     1      16.393   4.915  10.231  1.00  0.00    -0.111 SA
BRANCH  21  22
HETATM   22  C12 UNL     1      14.982   6.008   9.958  1.00  0.00     0.093 A 
HETATM   23  N2  UNL     1      13.728   5.509   9.908  1.00  0.00    -0.350 N 
HETATM   24  C13 UNL     1      12.633   6.268   9.715  1.00  0.00     0.053 A 
ATOM     25  H2  UNL     1      13.604   4.503  10.023  1.00  0.00     0.166 HD
HETATM   26  C18 UNL     1      12.782   7.629   9.557  1.00  0.00     0.112 A 
HETATM   27  C19 UNL     1      14.032   8.208   9.598  1.00  0.00     0.093 A 
HETATM   28 CL2  UNL     1      14.222   9.928   9.399  1.00  0.00    -0.079 Cl
HETATM   29  C20 UNL     1      15.133   7.368   9.801  1.00  0.00     0.092 A 
HETATM   30 CL3  UNL     1      16.721   8.089   9.870  1.00  0.00    -0.079 Cl
BRANCH  24  31
HETATM   31  C14 UNL     1      11.304   5.670   9.672  1.00  0.00    -0.006 C 
HETATM   32  C15 UNL     1      11.279   4.495  10.642  1.00  0.00     0.021 C 
HETATM   33  C16 UNL     1      10.933   5.125   8.311  1.00  0.00     0.021 C 
HETATM   34  C17 UNL     1      10.184   6.586  10.115  1.00  0.00     0.021 C 
ENDBRANCH  24  31
BRANCH  26  35
HETATM   35  O3  UNL     1      11.636   8.381   9.360  1.00  0.00    -0.357 OA
ATOM     36  H3  UNL     1      10.993   8.395  10.059  1.00  0.00     0.217 HD
ENDBRANCH  26  35
ENDBRANCH  21  22
ENDBRANCH  20  21
ENDBRANCH  19  20
ENDBRANCH   1  19
TORSDOF 10
ENDMDL
MODEL 2
REMARK VINA RESULT: -8.869825564      1.657      3.244
REMARK  10 active torsions:
REMARK  status: ('A' for Active; 'I' for Inactive)
REMARK    1  A    between atoms: O1_2  and  C2_3 
REMARK    2  A    between atoms: C5_7  and  O2_8 
REMARK    3  A    between atoms: O2_8  and  C6_9 
REMARK    4  A    between atoms: N1_12  and  C9_13 
REMARK    5  A    between atoms: C9_13  and  C10_14 
REMARK    6  A    between atoms: C10_14  and  C11_15 
REMARK    7  A    between atoms: C11_15  and  S1_16 
REMARK    8  A    between atoms: S1_16  and  C12_17 
REMARK    9  A    between atoms: C13_20  and  C14_21 
REMARK   10  A    between atoms: C18_25  and  O3_26 
ROOT
HETATM    1  C9  UNL     1      16.912   5.422  14.128  1.00  0.00     0.273 C 
ENDROOT
BRANCH   1   2
HETATM    2  N1  UNL     1      15.563   5.399  14.589  1.00  0.00     0.088 N 
HETATM    3  C8  UNL     1      15.323   4.502  15.692  1.00  0.00     0.275 C 
HETATM    4  C7  UNL     1      13.882   4.657  16.117  1.00  0.00     0.062 C 
HETATM    5  C6  UNL     1      13.020   4.018  15.042  1.00  0.00     0.132 C 
HETATM    6  C22 UNL     1      13.681   4.106  13.683  1.00  0.00     0.062 C 
HETATM    7  C21 UNL     1      14.574   5.312  13.559  1.00  0.00     0.275 C 
BRANCH   5   8
HETATM    8  O2  UNL     1      11.781   4.649  15.080  1.00  0.00    -0.346 OA
BRANCH   8   9
HETATM    9  C5  UNL     1      10.668   4.208  14.423  1.00  0.00     0.072 A 
HETATM   10  C4  UNL     1       9.705   5.174  14.078  1.00  0.00     0.063 A 
HETATM   11  C3  UNL     1       8.548   4.857  13.420  1.00  0.00     0.071 A 
HETATM   12  C2  UNL     1       8.262   3.560  13.055  1.00  0.00     0.111 A 
HETATM   13 CL1  UNL     1       7.360   6.096  13.000  1.00  0.00    -0.081 Cl
HETATM   14  C24 UNL     1       9.180   2.593  13.377  1.00  0.00     0.071 A 
HETATM   15  C23 UNL     1      10.365   2.926  14.053  1.00  0.00     0.063 A 
HETATM   16 CL4  UNL     1       8.857   0.938  12.937  1.00  0.00    -0.081 Cl
BRANCH  12  17
HETATM   17  O1  UNL     1       7.094   3.243  12.391  1.00  0.00    -0.352 OA
HETATM   18  C1  UNL     1       5.970   2.830  13.134  1.00  0.00     0.210 C 
ENDBRANCH  12  17
ENDBRANCH   8   9
ENDBRANCH   5   8
ENDBRANCH   1   2
BRANCH   1  19
HETATM   19  C10 UNL     1      17.185   4.459  12.990  1.00  0.00     0.041 C 
BRANCH  19  20
HETATM   20  C11 UNL     1      17.425   5.241  11.743  1.00  0.00     0.082 C 
BRANCH  20  21
HETATM   21  S1  UNL     1      16.319   4.830  10.377  1.00  0.00    -0.111 SA
BRANCH  21  22
HETATM   22  C12 UNL     1      15.265   6.260  10.055  1.00  0.00     0.093 A 
HETATM   23  N2  UNL     1      15.805   7.488   9.899  1.00  0.00    -0.350 N 
HETATM   24  C13 UNL     1      15.078   8.593   9.650  1.00  0.00     0.053 A 
ATOM     25  H2  UNL     1      16.817   7.583   9.974  1.00  0.00     0.166 HD
HETATM   26  C18 UNL     1      13.708   8.484   9.545  1.00  0.00     0.112 A 
HETATM   27  C19 UNL     1      13.089   7.262   9.692  1.00  0.00     0.093 A 
HETATM   28 CL2  UNL     1      11.357   7.122   9.560  1.00  0.00    -0.079 Cl
HETATM   29  C20 UNL     1      13.896   6.148   9.950  1.00  0.00     0.092 A 
HETATM   30 CL3  UNL     1      13.126   4.591  10.123  1.00  0.00    -0.079 Cl
BRANCH  24  31
HETATM   31  C14 UNL     1      15.720   9.893   9.489  1.00  0.00    -0.006 C 
HETATM   32  C15 UNL     1      17.180   9.758   9.905  1.00  0.00     0.021 C 
HETATM   33  C16 UNL     1      15.114  10.974  10.357  1.00  0.00     0.021 C 
HETATM   34  C17 UNL     1      15.748  10.413   8.069  1.00  0.00     0.021 C 
ENDBRANCH  24  31
BRANCH  26  35
HETATM   35  O3  UNL     1      12.990   9.641   9.289  1.00  0.00    -0.357 OA
ATOM     36  H3  UNL     1      13.425  10.329   8.800  1.00  0.00     0.217 HD
ENDBRANCH  26  35
ENDBRANCH  21  22
ENDBRANCH  20  21
ENDBRANCH  19  20
ENDBRANCH   1  19
TORSDOF 10
ENDMDL
MODEL 3
REMARK VINA RESULT: -8.855289361      1.654      2.858
REMARK  10 active torsions:
REMARK  status: ('A' for Active; 'I' for Inactive)
REMARK    1  A    between atoms: O1_2  and  C2_3 
REMARK    2  A    between atoms: C5_7  and  O2_8 
REMARK    3  A    between atoms: O2_8  and  C6_9 
REMARK    4  A    between atoms: N1_12  and  C9_13 
REMARK    5  A    between atoms: C9_13  and  C10_14 
REMARK    6  A    between atoms: C10_14  and  C11_15 
REMARK    7  A    between atoms: C11_15  and  S1_16 
REMARK    8  A    between atoms: S1_16  and  C12_17 
REMARK    9  A    between atoms: C13_20  and  C14_21 
REMARK   10  A    between atoms: C18_25  and  O3_26 
ROOT
HETATM    1  C9  UNL     1      16.961   5.288  14.269  1.00  0.00     0.273 C 
ENDROOT
BRANCH   1   2
HETATM    2  N1  UNL     1      15.599   5.378  14.679  1.00  0.00     0.088 N 
HETATM    3  C8  UNL     1      15.223   4.447  15.714  1.00  0.00     0.275 C 
HETATM    4  C7  UNL     1      13.788   4.726  16.096  1.00  0.00     0.062 C 
HETATM    5  C6  UNL     1      12.911   4.246  14.952  1.00  0.00     0.132 C 
HETATM    6  C22 UNL     1      13.635   4.345  13.625  1.00  0.00     0.062 C 
HETATM    7  C21 UNL     1      14.650   5.457  13.611  1.00  0.00     0.275 C 
BRANCH   5   8
HETATM    8  O2  UNL     1      11.743   4.999  14.985  1.00  0.00    -0.346 OA
BRANCH   8   9
HETATM    9  C5  UNL     1      10.582   4.655  14.353  1.00  0.00     0.072 A 
HETATM   10  C4  UNL     1      10.384   3.290  14.080  1.00  0.00     0.063 A 
HETATM   11  C3  UNL     1       9.262   2.821  13.451  1.00  0.00     0.071 A 
HETATM   12  C2  UNL     1       8.256   3.671  13.049  1.00  0.00     0.111 A 
HETATM   13 CL1  UNL     1       9.044   1.098  13.123  1.00  0.00    -0.081 Cl
HETATM   14  C24 UNL     1       8.419   5.011  13.301  1.00  0.00     0.071 A 
HETATM   15  C23 UNL     1       9.572   5.484  13.946  1.00  0.00     0.063 A 
HETATM   16 CL4  UNL     1       7.171   6.123  12.807  1.00  0.00    -0.081 Cl
BRANCH  12  17
HETATM   17  O1  UNL     1       7.126   3.196  12.415  1.00  0.00    -0.352 OA
HETATM   18  C1  UNL     1       6.019   2.795  13.189  1.00  0.00     0.210 C 
ENDBRANCH  12  17
ENDBRANCH   8   9
ENDBRANCH   5   8
ENDBRANCH   1   2
BRANCH   1  19
HETATM   19  C10 UNL     1      17.179   4.392  13.066  1.00  0.00     0.041 C 
BRANCH  19  20
HETATM   20  C11 UNL     1      17.433   5.246  11.869  1.00  0.00     0.082 C 
BRANCH  20  21
HETATM   21  S1  UNL     1      16.416   4.842  10.434  1.00  0.00    -0.111 SA
BRANCH  21  22
HETATM   22  C12 UNL     1      15.340   6.250  10.090  1.00  0.00     0.093 A 
HETATM   23  N2  UNL     1      15.859   7.487   9.933  1.00  0.00    -0.350 N 
HETATM   24  C13 UNL     1      15.116   8.578   9.669  1.00  0.00     0.053 A 
ATOM     25  H2  UNL     1      16.869   7.601  10.020  1.00  0.00     0.166 HD
HETATM   26  C18 UNL     1      13.749   8.443   9.549  1.00  0.00     0.112 A 
HETATM   27  C19 UNL     1      13.150   7.211   9.696  1.00  0.00     0.093 A 
HETATM   28 CL2  UNL     1      11.423   7.039   9.544  1.00  0.00    -0.079 Cl
HETATM   29  C20 UNL     1      13.975   6.113   9.970  1.00  0.00     0.092 A 
HETATM   30 CL3  UNL     1      13.231   4.543  10.143  1.00  0.00    -0.079 Cl
BRANCH  24  31
HETATM   31  C14 UNL     1      15.736   9.888   9.509  1.00  0.00    -0.006 C 
HETATM   32  C15 UNL     1      17.195   9.779   9.934  1.00  0.00     0.021 C 
HETATM   33  C16 UNL     1      15.106  10.961  10.369  1.00  0.00     0.021 C 
HETATM   34  C17 UNL     1      15.764  10.404   8.087  1.00  0.00     0.021 C 
ENDBRANCH  24  31
BRANCH  26  35
HETATM   35  O3  UNL     1      13.014   9.585   9.278  1.00  0.00    -0.357 OA
ATOM     36  H3  UNL     1      12.808  10.159  10.006  1.00  0.00     0.217 HD
ENDBRANCH  26  35
ENDBRANCH  21  22
ENDBRANCH  20  21
ENDBRANCH  19  20
ENDBRANCH   1  19
TORSDOF 10
ENDMDL
MODEL 4
REMARK VINA RESULT: -8.647769259      2.675      7.225
REMARK  10 active torsions:
REMARK  status: ('A' for Active; 'I' for Inactive)
REMARK    1  A    between atoms: O1_2  and  C2_3 
REMARK    2  A    between atoms: C5_7  and  O2_8 
REMARK    3  A    between atoms: O2_8  and  C6_9 
REMARK    4  A    between atoms: N1_12  and  C9_13 
REMARK    5  A    between atoms: C9_13  and  C10_14 
REMARK    6  A    between atoms: C10_14  and  C11_15 
REMARK    7  A    between atoms: C11_15  and  S1_16 
REMARK    8  A    between atoms: S1_16  and  C12_17 
REMARK    9  A    between atoms: C13_20  and  C14_21 
REMARK   10  A    between atoms: C18_25  and  O3_26 
ROOT
HETATM    1  C9  UNL     1      12.042   2.882  15.602  1.00  0.00     0.273 C 
ENDROOT
BRANCH   1   2
HETATM    2  N1  UNL     1      13.201   3.263  14.864  1.00  0.00     0.088 N 
HETATM    3  C8  UNL     1      13.961   4.336  15.457  1.00  0.00     0.275 C 
HETATM    4  C7  UNL     1      15.192   4.561  14.610  1.00  0.00     0.062 C 
HETATM    5  C6  UNL     1      14.741   5.216  13.316  1.00  0.00     0.132 C 
HETATM    6  C22 UNL     1      13.332   4.797  12.950  1.00  0.00     0.062 C 
HETATM    7  C21 UNL     1      12.997   3.419  13.457  1.00  0.00     0.275 C 
BRANCH   5   8
HETATM    8  O2  UNL     1      15.673   4.883  12.340  1.00  0.00    -0.346 OA
BRANCH   8   9
HETATM    9  C5  UNL     1      16.211   5.768  11.449  1.00  0.00     0.072 A 
HETATM   10  C4  UNL     1      15.675   7.068  11.437  1.00  0.00     0.063 A 
HETATM   11  C3  UNL     1      16.129   8.043  10.591  1.00  0.00     0.071 A 
HETATM   12  C2  UNL     1      17.147   7.800   9.696  1.00  0.00     0.111 A 
HETATM   13 CL1  UNL     1      15.433   9.668  10.603  1.00  0.00    -0.081 Cl
HETATM   14  C24 UNL     1      17.691   6.540   9.681  1.00  0.00     0.071 A 
HETATM   15  C23 UNL     1      17.221   5.545  10.553  1.00  0.00     0.063 A 
HETATM   16 CL4  UNL     1      18.980   6.188   8.562  1.00  0.00    -0.081 Cl
BRANCH  12  17
HETATM   17  O1  UNL     1      17.602   8.785   8.843  1.00  0.00    -0.352 OA
HETATM   18  C1  UNL     1      18.464   9.782   9.340  1.00  0.00     0.210 C 
ENDBRANCH  12  17
ENDBRANCH   8   9
ENDBRANCH   5   8
ENDBRANCH   1   2
BRANCH   1  19
HETATM   19  C10 UNL     1      11.086   1.999  14.824  1.00  0.00     0.041 C 
BRANCH  19  20
HETATM   20  C11 UNL     1       9.820   2.751  14.587  1.00  0.00     0.082 C 
BRANCH  20  21
HETATM   21  S1  UNL     1       9.018   2.386  13.013  1.00  0.00    -0.111 SA
BRANCH  21  22
HETATM   22  C12 UNL     1       8.991   3.900  12.029  1.00  0.00     0.093 A 
HETATM   23  N2  UNL     1      10.047   4.235  11.258  1.00  0.00    -0.350 N 
HETATM   24  C13 UNL     1      10.089   5.344  10.496  1.00  0.00     0.053 A 
ATOM     25  H2  UNL     1      10.857   3.615  11.252  1.00  0.00     0.166 HD
HETATM   26  C18 UNL     1       9.004   6.194  10.491  1.00  0.00     0.112 A 
HETATM   27  C19 UNL     1       7.891   5.915  11.253  1.00  0.00     0.093 A 
HETATM   28 CL2  UNL     1       6.518   6.988  11.247  1.00  0.00    -0.079 Cl
HETATM   29  C20 UNL     1       7.905   4.748  12.025  1.00  0.00     0.092 A 
HETATM   30 CL3  UNL     1       6.495   4.373  12.983  1.00  0.00    -0.079 Cl
BRANCH  24  31
HETATM   31  C14 UNL     1      11.260   5.651   9.682  1.00  0.00    -0.006 C 
HETATM   32  C15 UNL     1      10.909   5.386   8.223  1.00  0.00     0.021 C 
HETATM   33  C16 UNL     1      12.461   4.792  10.008  1.00  0.00     0.021 C 
HETATM   34  C17 UNL     1      11.707   7.095   9.737  1.00  0.00     0.021 C 
ENDBRANCH  24  31
BRANCH  26  35
HETATM   35  O3  UNL     1       9.081   7.326   9.697  1.00  0.00    -0.357 OA
ATOM     36  H3  UNL     1       9.603   7.274   8.905  1.00  0.00     0.217 HD
ENDBRANCH  26  35
ENDBRANCH  21  22
ENDBRANCH  20  21
ENDBRANCH  19  20
ENDBRANCH   1  19
TORSDOF 10
ENDMDL
MODEL 5
REMARK VINA RESULT: -8.552863465      2.263      3.638
REMARK  10 active torsions:
REMARK  status: ('A' for Active; 'I' for Inactive)
REMARK    1  A    between atoms: O1_2  and  C2_3 
REMARK    2  A    between atoms: C5_7  and  O2_8 
REMARK    3  A    between atoms: O2_8  and  C6_9 
REMARK    4  A    between atoms: N1_12  and  C9_13 
REMARK    5  A    between atoms: C9_13  and  C10_14 
REMARK    6  A    between atoms: C10_14  and  C11_15 
REMARK    7  A    between atoms: C11_15  and  S1_16 
REMARK    8  A    between atoms: S1_16  and  C12_17 
REMARK    9  A    between atoms: C13_20  and  C14_21 
REMARK   10  A    between atoms: C18_25  and  O3_26 
ROOT
HETATM    1  C9  UNL     1      15.614   4.253  15.664  1.00  0.00     0.273 C 
ENDROOT
BRANCH   1   2
HETATM    2  N1  UNL     1      14.416   4.170  14.896  1.00  0.00     0.088 N 
HETATM    3  C8  UNL     1      13.332   4.986  15.386  1.00  0.00     0.275 C 
HETATM    4  C7  UNL     1      12.175   4.856  14.424  1.00  0.00     0.062 C 
HETATM    5  C6  UNL     1      11.586   3.468  14.606  1.00  0.00     0.132 C 
HETATM    6  C22 UNL     1      12.643   2.476  15.046  1.00  0.00     0.062 C 
HETATM    7  C21 UNL     1      14.014   2.842  14.544  1.00  0.00     0.275 C 
BRANCH   5   8
HETATM    8  O2  UNL     1      10.986   3.115  13.403  1.00  0.00    -0.346 OA
BRANCH   8   9
HETATM    9  C5  UNL     1       9.827   3.658  12.927  1.00  0.00     0.072 A 
HETATM   10  C4  UNL     1       9.947   4.684  11.972  1.00  0.00     0.063 A 
HETATM   11  C3  UNL     1       8.859   5.307  11.421  1.00  0.00     0.071 A 
HETATM   12  C2  UNL     1       7.576   4.958  11.776  1.00  0.00     0.111 A 
HETATM   13 CL1  UNL     1       9.046   6.592  10.222  1.00  0.00    -0.081 Cl
HETATM   14  C24 UNL     1       7.424   3.960  12.707  1.00  0.00     0.071 A 
HETATM   15  C23 UNL     1       8.543   3.326  13.267  1.00  0.00     0.063 A 
HETATM   16 CL4  UNL     1       5.816   3.488  13.187  1.00  0.00    -0.081 Cl
BRANCH  12  17
HETATM   17  O1  UNL     1       6.481   5.588  11.220  1.00  0.00    -0.352 OA
HETATM   18  C1  UNL     1       6.174   6.907  11.608  1.00  0.00     0.210 C 
ENDBRANCH  12  17
ENDBRANCH   8   9
ENDBRANCH   5   8
ENDBRANCH   1   2
BRANCH   1  19
HETATM   19  C10 UNL     1      16.864   4.436  14.827  1.00  0.00     0.041 C 
BRANCH  19  20
HETATM   20  C11 UNL     1      16.670   5.606  13.921  1.00  0.00     0.082 C 
BRANCH  20  21
HETATM   21  S1  UNL     1      16.935   5.248  12.172  1.00  0.00    -0.111 SA
BRANCH  21  22
HETATM   22  C12 UNL     1      15.844   6.313  11.206  1.00  0.00     0.093 A 
HETATM   23  N2  UNL     1      16.240   7.552  10.843  1.00  0.00    -0.350 N 
HETATM   24  C13 UNL     1      15.479   8.393  10.119  1.00  0.00     0.053 A 
ATOM     25  H2  UNL     1      17.166   7.867  11.133  1.00  0.00     0.166 HD
HETATM   26  C18 UNL     1      14.225   7.985   9.718  1.00  0.00     0.112 A 
HETATM   27  C19 UNL     1      13.755   6.734  10.051  1.00  0.00     0.093 A 
HETATM   28 CL2  UNL     1      12.170   6.216   9.545  1.00  0.00    -0.079 Cl
HETATM   29  C20 UNL     1      14.591   5.903  10.806  1.00  0.00     0.092 A 
HETATM   30 CL3  UNL     1      14.014   4.309  11.223  1.00  0.00    -0.079 Cl
BRANCH  24  31
HETATM   31  C14 UNL     1      15.965   9.720   9.756  1.00  0.00    -0.006 C 
HETATM   32  C15 UNL     1      17.428   9.821  10.169  1.00  0.00     0.021 C 
HETATM   33  C16 UNL     1      15.231  10.842  10.457  1.00  0.00     0.021 C 
HETATM   34  C17 UNL     1      15.939  10.018   8.273  1.00  0.00     0.021 C 
ENDBRANCH  24  31
BRANCH  26  35
HETATM   35  O3  UNL     1      13.468   8.875   8.974  1.00  0.00    -0.357 OA
ATOM     36  H3  UNL     1      12.529   8.877   9.113  1.00  0.00     0.217 HD
ENDBRANCH  26  35
ENDBRANCH  21  22
ENDBRANCH  20  21
ENDBRANCH  19  20
ENDBRANCH   1  19
TORSDOF 10
ENDMDL
