MODEL 1
REMARK VINA RESULT: -10.490521447      0.000      0.000
REMARK  10 active torsions:
REMARK  status: ('A' for Active; 'I' for Inactive)
REMARK    1  A    between atoms: C2_2  and  N1_3 
REMARK       I    between atoms: N1_3  and  C3_5 
REMARK    2  A    between atoms: C3_5  and  O2_7 
REMARK    3  A    between atoms: O2_7  and  C4_8 
REMARK    4  A    between atoms: C6_11  and  C7_12 
REMARK    5  A    between atoms: C10_15  and  C11_16 
REMARK    6  A    between atoms: C11_16  and  C12_17 
REMARK    7  A    between atoms: C13_18  and  C14_19 
REMARK    8  A    between atoms: C14_19  and  S1_20 
REMARK    9  A    between atoms: S1_20  and  C15_21 
REMARK   10  A    between atoms: C18_26  and  C19_27 
ROOT
HETATM    1  C7  UNL     1      14.351   5.681  10.440  1.00  0.00     0.026 C 
HETATM    2  C8  UNL     1      13.881   5.287  11.596  1.00  0.00    -0.002 C 
HETATM    3  C9  UNL     1      14.678   5.010  12.789  1.00  0.00     0.075 C 
HETATM    4  C10 UNL     1      13.889   4.474  13.950  1.00  0.00     0.137 C 
HETATM    5  O5  UNL     1      12.785   3.669  13.579  1.00  0.00    -0.341 OA
HETATM    6  C17 UNL     1      11.842   4.229  12.743  1.00  0.00     0.120 C 
HETATM    7  C18 UNL     1      10.546   4.069  12.801  1.00  0.00     0.055 C 
HETATM    8  C25 UNL     1      12.410   5.094  11.683  1.00  0.00     0.211 C 
HETATM    9  O6  UNL     1      11.612   5.640  10.885  1.00  0.00    -0.285 OA
ENDROOT
BRANCH   1  10
HETATM   10  C6  UNL     1      15.733   5.928  10.079  1.00  0.00     0.013 A 
HETATM   11  C5  UNL     1      16.757   5.115   9.672  1.00  0.00     0.158 A 
HETATM   12  O3  UNL     1      17.859   5.819   9.449  1.00  0.00    -0.298 OA
HETATM   13  C4  UNL     1      17.643   7.084   9.683  1.00  0.00     0.217 A 
HETATM   14  C26 UNL     1      16.333   7.205  10.078  1.00  0.00     0.105 A 
HETATM   15 CL2  UNL     1      15.516   8.681  10.517  1.00  0.00    -0.078 Cl
BRANCH  13  16
HETATM   16  O2  UNL     1      18.559   8.110   9.559  1.00  0.00    -0.235 OA
BRANCH  16  17
HETATM   17  C3  UNL     1      18.314   9.301   8.935  1.00  0.00     0.367 C 
HETATM   18  N1  UNL     1      18.471  10.517   9.677  1.00  0.00    -0.337 N 
ATOM     19  H1  UNL     1      18.763  10.469  10.653  1.00  0.00     0.164 HD
HETATM   20  O1  UNL     1      17.958   9.322   7.738  1.00  0.00    -0.238 OA
BRANCH  18  21
HETATM   21  C2  UNL     1      18.229  11.808   9.083  1.00  0.00     0.120 C 
HETATM   22  C1  UNL     1      16.763  12.210   9.270  1.00  0.00     0.026 C 
ENDBRANCH  18  21
ENDBRANCH  16  17
ENDBRANCH  13  16
ENDBRANCH   1  10
BRANCH   4  23
HETATM   23  C11 UNL     1      14.776   3.697  14.903  1.00  0.00     0.059 C 
BRANCH  23  24
HETATM   24  C12 UNL     1      16.220   4.011  14.687  1.00  0.00    -0.027 C 
HETATM   25  C13 UNL     1      17.092   4.006  15.684  1.00  0.00    -0.020 C 
BRANCH  25  26
HETATM   26  C14 UNL     1      18.515   4.326  15.404  1.00  0.00     0.109 C 
BRANCH  26  27
HETATM   27  S1  UNL     1      19.566   4.010  16.846  1.00  0.00    -0.089 SA
BRANCH  27  28
HETATM   28  C15 UNL     1      19.349   5.313  18.026  1.00  0.00     0.182 C 
HETATM   29  C16 UNL     1      19.665   6.746  17.715  1.00  0.00     0.104 C 
HETATM   30  O4  UNL     1      18.930   5.057  19.138  1.00  0.00    -0.286 OA
ENDBRANCH  27  28
ENDBRANCH  26  27
ENDBRANCH  25  26
ENDBRANCH  23  24
ENDBRANCH   4  23
BRANCH   7  31
HETATM   31  C19 UNL     1       9.800   3.270  13.751  1.00  0.00     0.007 A 
HETATM   32  C20 UNL     1      10.406   2.815  14.931  1.00  0.00     0.041 A 
HETATM   33  C21 UNL     1       9.722   2.074  15.862  1.00  0.00     0.073 A 
HETATM   34 CL1  UNL     1      10.522   1.527  17.324  1.00  0.00    -0.081 Cl
HETATM   35  C22 UNL     1       8.403   1.743  15.673  1.00  0.00     0.141 A 
HETATM   36  F1  UNL     1       7.709   1.002  16.594  1.00  0.00    -0.204 F 
HETATM   37  C23 UNL     1       7.787   2.181  14.519  1.00  0.00     0.087 A 
HETATM   38  C24 UNL     1       8.483   2.937  13.568  1.00  0.00     0.129 A 
HETATM   39  F2  UNL     1       7.759   3.321  12.490  1.00  0.00    -0.205 F 
ENDBRANCH   7  31
TORSDOF 10
ENDMDL
MODEL 2
REMARK VINA RESULT: -10.130984339      4.280      9.171
REMARK  10 active torsions:
REMARK  status: ('A' for Active; 'I' for Inactive)
REMARK    1  A    between atoms: C2_2  and  N1_3 
REMARK       I    between atoms: N1_3  and  C3_5 
REMARK    2  A    between atoms: C3_5  and  O2_7 
REMARK    3  A    between atoms: O2_7  and  C4_8 
REMARK    4  A    between atoms: C6_11  and  C7_12 
REMARK    5  A    between atoms: C10_15  and  C11_16 
REMARK    6  A    between atoms: C11_16  and  C12_17 
REMARK    7  A    between atoms: C13_18  and  C14_19 
REMARK    8  A    between atoms: C14_19  and  S1_20 
REMARK    9  A    between atoms: S1_20  and  C15_21 
REMARK   10  A    between atoms: C18_26  and  C19_27 
ROOT
HETATM    1  C7  UNL     1      10.471   6.194  10.672  1.00  0.00     0.026 C 
HETATM    2  C8  UNL     1      11.719   6.262  10.284  1.00  0.00    -0.002 C 
HETATM    3  C9  UNL     1      12.687   5.169  10.336  1.00  0.00     0.075 C 
HETATM    4  C10 UNL     1      14.079   5.554   9.920  1.00  0.00     0.137 C 
HETATM    5  O5  UNL     1      14.432   6.886  10.239  1.00  0.00    -0.341 OA
HETATM    6  C17 UNL     1      13.628   7.893   9.746  1.00  0.00     0.120 C 
HETATM    7  C18 UNL     1      14.014   9.054   9.286  1.00  0.00     0.055 C 
HETATM    8  C25 UNL     1      12.182   7.574   9.762  1.00  0.00     0.211 C 
HETATM    9  O6  UNL     1      11.388   8.442   9.327  1.00  0.00    -0.285 OA
ENDROOT
BRANCH   1  10
HETATM   10  C6  UNL     1       9.774   5.052  11.231  1.00  0.00     0.013 A 
HETATM   11  C5  UNL     1       9.060   4.024  10.676  1.00  0.00     0.158 A 
HETATM   12  O3  UNL     1       8.609   3.202  11.614  1.00  0.00    -0.298 OA
HETATM   13  C4  UNL     1       8.979   3.616  12.795  1.00  0.00     0.217 A 
HETATM   14  C26 UNL     1       9.708   4.766  12.612  1.00  0.00     0.105 A 
HETATM   15 CL2  UNL     1      10.442   5.737  13.859  1.00  0.00    -0.078 Cl
BRANCH  13  16
HETATM   16  O2  UNL     1       8.691   3.014  14.004  1.00  0.00    -0.235 OA
BRANCH  16  17
HETATM   17  C3  UNL     1       9.621   2.460  14.839  1.00  0.00     0.367 C 
HETATM   18  N1  UNL     1      10.953   2.254  14.353  1.00  0.00    -0.337 N 
ATOM     19  H1  UNL     1      11.179   2.525  13.396  1.00  0.00     0.164 HD
HETATM   20  O1  UNL     1       9.307   2.140  16.005  1.00  0.00    -0.238 OA
BRANCH  18  21
HETATM   21  C2  UNL     1      11.984   1.674  15.177  1.00  0.00     0.120 C 
HETATM   22  C1  UNL     1      13.318   2.386  14.934  1.00  0.00     0.026 C 
ENDBRANCH  18  21
ENDBRANCH  16  17
ENDBRANCH  13  16
ENDBRANCH   1  10
BRANCH   4  23
HETATM   23  C11 UNL     1      15.107   4.609  10.511  1.00  0.00     0.059 C 
BRANCH  23  24
HETATM   24  C12 UNL     1      15.825   5.230  11.664  1.00  0.00    -0.027 C 
HETATM   25  C13 UNL     1      15.619   4.832  12.910  1.00  0.00    -0.020 C 
BRANCH  25  26
HETATM   26  C14 UNL     1      16.365   5.489  14.013  1.00  0.00     0.109 C 
BRANCH  26  27
HETATM   27  S1  UNL     1      16.617   4.365  15.412  1.00  0.00    -0.089 SA
BRANCH  27  28
HETATM   28  C15 UNL     1      18.247   4.599  16.065  1.00  0.00     0.182 C 
HETATM   29  C16 UNL     1      19.283   3.514  16.063  1.00  0.00     0.104 C 
HETATM   30  O4  UNL     1      18.558   5.675  16.540  1.00  0.00    -0.286 OA
ENDBRANCH  27  28
ENDBRANCH  26  27
ENDBRANCH  25  26
ENDBRANCH  23  24
ENDBRANCH   4  23
BRANCH   7  31
HETATM   31  C19 UNL     1      15.369   9.554   9.189  1.00  0.00     0.007 A 
HETATM   32  C20 UNL     1      15.789  10.259   8.051  1.00  0.00     0.041 A 
HETATM   33  C21 UNL     1      17.060  10.765   7.935  1.00  0.00     0.073 A 
HETATM   34 CL1  UNL     1      17.540  11.640   6.493  1.00  0.00    -0.081 Cl
HETATM   35  C22 UNL     1      17.982  10.598   8.939  1.00  0.00     0.141 A 
HETATM   36  F1  UNL     1      19.255  11.097   8.835  1.00  0.00    -0.204 F 
HETATM   37  C23 UNL     1      17.590   9.909  10.067  1.00  0.00     0.087 A 
HETATM   38  C24 UNL     1      16.294   9.393  10.187  1.00  0.00     0.129 A 
HETATM   39  F2  UNL     1      16.030   8.754  11.352  1.00  0.00    -0.205 F 
ENDBRANCH   7  31
TORSDOF 10
ENDMDL
MODEL 3
REMARK VINA RESULT: -10.049411548      1.159      1.285
REMARK  10 active torsions:
REMARK  status: ('A' for Active; 'I' for Inactive)
REMARK    1  A    between atoms: C2_2  and  N1_3 
REMARK       I    between atoms: N1_3  and  C3_5 
REMARK    2  A    between atoms: C3_5  and  O2_7 
REMARK    3  A    between atoms: O2_7  and  C4_8 
REMARK    4  A    between atoms: C6_11  and  C7_12 
REMARK    5  A    between atoms: C10_15  and  C11_16 
REMARK    6  A    between atoms: C11_16  and  C12_17 
REMARK    7  A    between atoms: C13_18  and  C14_19 
REMARK    8  A    between atoms: C14_19  and  S1_20 
REMARK    9  A    between atoms: S1_20  and  C15_21 
REMARK   10  A    between atoms: C18_26  and  C19_27 
ROOT
HETATM    1  C7  UNL     1      14.420   5.886  10.257  1.00  0.00     0.026 C 
HETATM    2  C8  UNL     1      13.896   5.480  11.386  1.00  0.00    -0.002 C 
HETATM    3  C9  UNL     1      14.636   5.189  12.612  1.00  0.00     0.075 C 
HETATM    4  C10 UNL     1      13.794   4.642  13.729  1.00  0.00     0.137 C 
HETATM    5  O5  UNL     1      12.709   3.842  13.298  1.00  0.00    -0.341 OA
HETATM    6  C17 UNL     1      11.805   4.412  12.426  1.00  0.00     0.120 C 
HETATM    7  C18 UNL     1      10.508   4.253  12.421  1.00  0.00     0.055 C 
HETATM    8  C25 UNL     1      12.423   5.288  11.403  1.00  0.00     0.211 C 
HETATM    9  O6  UNL     1      11.663   5.843  10.575  1.00  0.00    -0.285 OA
ENDROOT
BRANCH   1  10
HETATM   10  C6  UNL     1      15.817   6.135   9.964  1.00  0.00     0.013 A 
HETATM   11  C5  UNL     1      16.867   5.321   9.634  1.00  0.00     0.158 A 
HETATM   12  O3  UNL     1      17.974   6.028   9.450  1.00  0.00    -0.298 OA
HETATM   13  C4  UNL     1      17.737   7.297   9.639  1.00  0.00     0.217 A 
HETATM   14  C26 UNL     1      16.407   7.418   9.961  1.00  0.00     0.105 A 
HETATM   15 CL2  UNL     1      15.558   8.897  10.317  1.00  0.00    -0.078 Cl
BRANCH  13  16
HETATM   16  O2  UNL     1      18.651   8.328   9.537  1.00  0.00    -0.235 OA
BRANCH  16  17
HETATM   17  C3  UNL     1      18.419   9.514   8.899  1.00  0.00     0.367 C 
HETATM   18  N1  UNL     1      18.545  10.735   9.638  1.00  0.00    -0.337 N 
ATOM     19  H1  UNL     1      18.805  10.694  10.623  1.00  0.00     0.164 HD
HETATM   20  O1  UNL     1      18.101   9.526   7.691  1.00  0.00    -0.238 OA
BRANCH  18  21
HETATM   21  C2  UNL     1      18.314  12.022   9.029  1.00  0.00     0.120 C 
HETATM   22  C1  UNL     1      16.829  12.386   9.111  1.00  0.00     0.026 C 
ENDBRANCH  18  21
ENDBRANCH  16  17
ENDBRANCH  13  16
ENDBRANCH   1  10
BRANCH   4  23
HETATM   23  C11 UNL     1      14.636   3.854  14.713  1.00  0.00     0.059 C 
BRANCH  23  24
HETATM   24  C12 UNL     1      16.092   4.128  14.533  1.00  0.00    -0.027 C 
HETATM   25  C13 UNL     1      16.929   4.163  15.559  1.00  0.00    -0.020 C 
BRANCH  25  26
HETATM   26  C14 UNL     1      18.367   4.440  15.313  1.00  0.00     0.109 C 
BRANCH  26  27
HETATM   27  S1  UNL     1      19.385   4.012  16.750  1.00  0.00    -0.089 SA
BRANCH  27  28
HETATM   28  C15 UNL     1      19.281   5.312  17.949  1.00  0.00     0.182 C 
HETATM   29  C16 UNL     1      19.629   6.736  17.630  1.00  0.00     0.104 C 
HETATM   30  O4  UNL     1      18.917   5.061  19.082  1.00  0.00    -0.286 OA
ENDBRANCH  27  28
ENDBRANCH  26  27
ENDBRANCH  25  26
ENDBRANCH  23  24
ENDBRANCH   4  23
BRANCH   7  31
HETATM   31  C19 UNL     1       9.719   3.444  13.327  1.00  0.00     0.007 A 
HETATM   32  C20 UNL     1       9.191   2.214  12.908  1.00  0.00     0.041 A 
HETATM   33  C21 UNL     1       8.457   1.413  13.747  1.00  0.00     0.073 A 
HETATM   34 CL1  UNL     1       7.817  -0.119  13.180  1.00  0.00    -0.081 Cl
HETATM   35  C22 UNL     1       8.205   1.789  15.044  1.00  0.00     0.141 A 
HETATM   36  F1  UNL     1       7.472   0.999  15.891  1.00  0.00    -0.204 F 
HETATM   37  C23 UNL     1       8.715   2.995  15.476  1.00  0.00     0.087 A 
HETATM   38  C24 UNL     1       9.465   3.813  14.622  1.00  0.00     0.129 A 
HETATM   39  F2  UNL     1       9.924   4.961  15.174  1.00  0.00    -0.205 F 
ENDBRANCH   7  31
TORSDOF 10
ENDMDL
MODEL 4
REMARK VINA RESULT: -9.956030883      4.354      9.070
REMARK  10 active torsions:
REMARK  status: ('A' for Active; 'I' for Inactive)
REMARK    1  A    between atoms: C2_2  and  N1_3 
REMARK       I    between atoms: N1_3  and  C3_5 
REMARK    2  A    between atoms: C3_5  and  O2_7 
REMARK    3  A    between atoms: O2_7  and  C4_8 
REMARK    4  A    between atoms: C6_11  and  C7_12 
REMARK    5  A    between atoms: C10_15  and  C11_16 
REMARK    6  A    between atoms: C11_16  and  C12_17 
REMARK    7  A    between atoms: C13_18  and  C14_19 
REMARK    8  A    between atoms: C14_19  and  S1_20 
REMARK    9  A    between atoms: S1_20  and  C15_21 
REMARK   10  A    between atoms: C18_26  and  C19_27 
ROOT
HETATM    1  C7  UNL     1      10.300   6.116  10.738  1.00  0.00     0.026 C 
HETATM    2  C8  UNL     1      11.566   6.174  10.408  1.00  0.00    -0.002 C 
HETATM    3  C9  UNL     1      12.539   5.097  10.574  1.00  0.00     0.075 C 
HETATM    4  C10 UNL     1      13.946   5.471  10.205  1.00  0.00     0.137 C 
HETATM    5  O5  UNL     1      14.272   6.825  10.459  1.00  0.00    -0.341 OA
HETATM    6  C17 UNL     1      13.486   7.791   9.867  1.00  0.00     0.120 C 
HETATM    7  C18 UNL     1      13.885   8.926   9.357  1.00  0.00     0.055 C 
HETATM    8  C25 UNL     1      12.043   7.458   9.831  1.00  0.00     0.211 C 
HETATM    9  O6  UNL     1      11.266   8.289   9.305  1.00  0.00    -0.285 OA
ENDROOT
BRANCH   1  10
HETATM   10  C6  UNL     1       9.585   5.003  11.329  1.00  0.00     0.013 A 
HETATM   11  C5  UNL     1       8.884   3.951  10.804  1.00  0.00     0.158 A 
HETATM   12  O3  UNL     1       8.405   3.174  11.766  1.00  0.00    -0.298 OA
HETATM   13  C4  UNL     1       8.744   3.642  12.936  1.00  0.00     0.217 A 
HETATM   14  C26 UNL     1       9.481   4.781  12.719  1.00  0.00     0.105 A 
HETATM   15 CL2  UNL     1      10.184   5.807  13.940  1.00  0.00    -0.078 Cl
BRANCH  13  16
HETATM   16  O2  UNL     1       8.422   3.096  14.164  1.00  0.00    -0.235 OA
BRANCH  16  17
HETATM   17  C3  UNL     1       9.319   2.514  15.016  1.00  0.00     0.367 C 
HETATM   18  N1  UNL     1      10.689   2.402  14.610  1.00  0.00    -0.337 N 
ATOM     19  H1  UNL     1      10.966   2.758  13.696  1.00  0.00     0.164 HD
HETATM   20  O1  UNL     1       8.942   2.089  16.129  1.00  0.00    -0.238 OA
BRANCH  18  21
HETATM   21  C2  UNL     1      11.687   1.799  15.458  1.00  0.00     0.120 C 
HETATM   22  C1  UNL     1      13.089   2.185  14.979  1.00  0.00     0.026 C 
ENDBRANCH  18  21
ENDBRANCH  16  17
ENDBRANCH  13  16
ENDBRANCH   1  10
BRANCH   4  23
HETATM   23  C11 UNL     1      14.951   4.576  10.902  1.00  0.00     0.059 C 
BRANCH  23  24
HETATM   24  C12 UNL     1      15.232   5.043  12.292  1.00  0.00    -0.027 C 
HETATM   25  C13 UNL     1      16.443   4.964  12.824  1.00  0.00    -0.020 C 
BRANCH  25  26
HETATM   26  C14 UNL     1      16.657   5.447  14.211  1.00  0.00     0.109 C 
BRANCH  26  27
HETATM   27  S1  UNL     1      16.245   4.174  15.433  1.00  0.00    -0.089 SA
BRANCH  27  28
HETATM   28  C15 UNL     1      17.675   3.820  16.416  1.00  0.00     0.182 C 
HETATM   29  C16 UNL     1      18.936   3.252  15.833  1.00  0.00     0.104 C 
HETATM   30  O4  UNL     1      17.655   4.037  17.612  1.00  0.00    -0.286 OA
ENDBRANCH  27  28
ENDBRANCH  26  27
ENDBRANCH  25  26
ENDBRANCH  23  24
ENDBRANCH   4  23
BRANCH   7  31
HETATM   31  C19 UNL     1      15.240   9.435   9.296  1.00  0.00     0.007 A 
HETATM   32  C20 UNL     1      16.320   8.563   9.094  1.00  0.00     0.041 A 
HETATM   33  C21 UNL     1      17.614   9.014   9.010  1.00  0.00     0.073 A 
HETATM   34 CL1  UNL     1      18.933   7.887   8.757  1.00  0.00    -0.081 Cl
HETATM   35  C22 UNL     1      17.906  10.351   9.123  1.00  0.00     0.141 A 
HETATM   36  F1  UNL     1      19.194  10.814   9.042  1.00  0.00    -0.204 F 
HETATM   37  C23 UNL     1      16.858  11.226   9.321  1.00  0.00     0.087 A 
HETATM   38  C24 UNL     1      15.538  10.768   9.407  1.00  0.00     0.129 A 
HETATM   39  F2  UNL     1      14.601  11.730   9.583  1.00  0.00    -0.205 F 
ENDBRANCH   7  31
TORSDOF 10
ENDMDL
MODEL 5
REMARK VINA RESULT: -9.946431485      4.506      9.609
REMARK  10 active torsions:
REMARK  status: ('A' for Active; 'I' for Inactive)
REMARK    1  A    between atoms: C2_2  and  N1_3 
REMARK       I    between atoms: N1_3  and  C3_5 
REMARK    2  A    between atoms: C3_5  and  O2_7 
REMARK    3  A    between atoms: O2_7  and  C4_8 
REMARK    4  A    between atoms: C6_11  and  C7_12 
REMARK    5  A    between atoms: C10_15  and  C11_16 
REMARK    6  A    between atoms: C11_16  and  C12_17 
REMARK    7  A    between atoms: C13_18  and  C14_19 
REMARK    8  A    between atoms: C14_19  and  S1_20 
REMARK    9  A    between atoms: S1_20  and  C15_21 
REMARK   10  A    between atoms: C18_26  and  C19_27 
ROOT
HETATM    1  C7  UNL     1      10.129   5.990  10.698  1.00  0.00     0.026 C 
HETATM    2  C8  UNL     1      11.382   6.055  10.325  1.00  0.00    -0.002 C 
HETATM    3  C9  UNL     1      12.341   4.954  10.367  1.00  0.00     0.075 C 
HETATM    4  C10 UNL     1      13.740   5.335   9.974  1.00  0.00     0.137 C 
HETATM    5  O5  UNL     1      14.100   6.659  10.322  1.00  0.00    -0.341 OA
HETATM    6  C17 UNL     1      13.310   7.681   9.838  1.00  0.00     0.120 C 
HETATM    7  C18 UNL     1      13.710   8.847   9.405  1.00  0.00     0.055 C 
HETATM    8  C25 UNL     1      11.861   7.373   9.833  1.00  0.00     0.211 C 
HETATM    9  O6  UNL     1      11.079   8.256   9.405  1.00  0.00    -0.285 OA
ENDROOT
BRANCH   1  10
HETATM   10  C6  UNL     1       9.417   4.844  11.227  1.00  0.00     0.013 A 
HETATM   11  C5  UNL     1       9.179   3.584  10.750  1.00  0.00     0.158 A 
HETATM   12  O3  UNL     1       8.468   2.876  11.617  1.00  0.00    -0.298 OA
HETATM   13  C4  UNL     1       8.202   3.591  12.675  1.00  0.00     0.217 A 
HETATM   14  C26 UNL     1       8.772   4.827  12.483  1.00  0.00     0.105 A 
HETATM   15 CL2  UNL     1       8.721   6.174  13.587  1.00  0.00    -0.078 Cl
BRANCH  13  16
HETATM   16  O2  UNL     1       7.483   3.185  13.782  1.00  0.00    -0.235 OA
BRANCH  16  17
HETATM   17  C3  UNL     1       7.902   2.246  14.682  1.00  0.00     0.367 C 
HETATM   18  N1  UNL     1       8.181   2.651  16.028  1.00  0.00    -0.337 N 
ATOM     19  H1  UNL     1       8.061   3.631  16.286  1.00  0.00     0.164 HD
HETATM   20  O1  UNL     1       8.039   1.056  14.330  1.00  0.00    -0.238 OA
BRANCH  18  21
HETATM   21  C2  UNL     1       8.628   1.714  17.028  1.00  0.00     0.120 C 
HETATM   22  C1  UNL     1      10.158   1.658  17.054  1.00  0.00     0.026 C 
ENDBRANCH  18  21
ENDBRANCH  16  17
ENDBRANCH  13  16
ENDBRANCH   1  10
BRANCH   4  23
HETATM   23  C11 UNL     1      14.755   4.372  10.558  1.00  0.00     0.059 C 
BRANCH  23  24
HETATM   24  C12 UNL     1      15.494   4.981  11.703  1.00  0.00    -0.027 C 
HETATM   25  C13 UNL     1      16.604   4.441  12.184  1.00  0.00    -0.020 C 
BRANCH  25  26
HETATM   26  C14 UNL     1      17.294   5.096  13.324  1.00  0.00     0.109 C 
BRANCH  26  27
HETATM   27  S1  UNL     1      16.898   4.288  14.897  1.00  0.00    -0.089 SA
BRANCH  27  28
HETATM   28  C15 UNL     1      15.172   4.491  15.242  1.00  0.00     0.182 C 
HETATM   29  C16 UNL     1      14.143   3.475  14.843  1.00  0.00     0.104 C 
HETATM   30  O4  UNL     1      14.786   5.486  15.824  1.00  0.00    -0.286 OA
ENDBRANCH  27  28
ENDBRANCH  26  27
ENDBRANCH  25  26
ENDBRANCH  23  24
ENDBRANCH   4  23
BRANCH   7  31
HETATM   31  C19 UNL     1      15.070   9.338   9.332  1.00  0.00     0.007 A 
HETATM   32  C20 UNL     1      15.510  10.054   8.209  1.00  0.00     0.041 A 
HETATM   33  C21 UNL     1      16.786  10.552   8.116  1.00  0.00     0.073 A 
HETATM   34 CL1  UNL     1      17.292  11.441   6.692  1.00  0.00    -0.081 Cl
HETATM   35  C22 UNL     1      17.694  10.365   9.130  1.00  0.00     0.141 A 
HETATM   36  F1  UNL     1      18.972  10.856   9.049  1.00  0.00    -0.204 F 
HETATM   37  C23 UNL     1      17.282   9.665  10.244  1.00  0.00     0.087 A 
HETATM   38  C24 UNL     1      15.981   9.157  10.341  1.00  0.00     0.129 A 
HETATM   39  F2  UNL     1      15.696   8.505  11.493  1.00  0.00    -0.205 F 
ENDBRANCH   7  31
TORSDOF 10
ENDMDL
