MODEL 1
REMARK VINA RESULT: -9.150568134      0.000      0.000
REMARK  8 active torsions:
REMARK  status: ('A' for Active; 'I' for Inactive)
REMARK    1  A    between atoms: C2_2  and  N1_3 
REMARK    2  A    between atoms: C3_4  and  S1_5 
REMARK    3  A    between atoms: S1_5  and  C4_6 
REMARK    4  A    between atoms: C4_6  and  C5_7 
REMARK    5  A    between atoms: C12_17  and  C13_18 
REMARK    6  A    between atoms: C13_18  and  C14_19 
REMARK    7  A    between atoms: C14_19  and  N3_20 
REMARK       I    between atoms: N3_20  and  C15_22 
REMARK    8  A    between atoms: C15_22  and  C16_24 
ROOT
HETATM    1  C14 UNL     1      16.211   6.417  11.699  1.00  0.00     0.070 C 
ENDROOT
BRANCH   1   2
HETATM    2  C13 UNL     1      16.329   6.909  10.305  1.00  0.00     0.104 C 
BRANCH   2   3
HETATM    3  C12 UNL     1      15.533   8.090   9.935  1.00  0.00     0.040 A 
HETATM    4  N1  UNL     1      16.099   9.349   9.777  1.00  0.00    -0.329 N 
HETATM    5  C3  UNL     1      15.128  10.174   9.393  1.00  0.00     0.147 A 
HETATM    6  N2  UNL     1      13.958   9.451   9.312  1.00  0.00    -0.339 N 
HETATM    7  C10 UNL     1      14.209   8.177   9.645  1.00  0.00     0.030 A 
ATOM      8  H2  UNL     1      13.047   9.825   9.043  1.00  0.00     0.168 HD
HETATM    9  C11 UNL     1      13.138   7.121   9.713  1.00  0.00     0.070 C 
BRANCH   4  10
HETATM   10  C2  UNL     1      17.493   9.581  10.051  1.00  0.00     0.126 C 
HETATM   11  C1  UNL     1      18.304   9.635   8.755  1.00  0.00     0.027 C 
ENDBRANCH   4  10
BRANCH   5  12
HETATM   12  S1  UNL     1      15.178  11.895   8.980  1.00  0.00    -0.091 SA
BRANCH  12  13
HETATM   13  C4  UNL     1      13.658  12.788   9.124  1.00  0.00     0.114 C 
BRANCH  13  14
HETATM   14  C5  UNL     1      13.387  13.071  10.622  1.00  0.00     0.131 C 
HETATM   15  C6  UNL     1      14.384  14.057  11.110  1.00  0.00     0.033 C 
HETATM   16  C7  UNL     1      13.793  15.210  11.866  1.00  0.00     0.004 C 
HETATM   17  C8  UNL     1      12.430  15.627  11.432  1.00  0.00     0.026 C 
HETATM   18  C9  UNL     1      11.811  14.736  10.398  1.00  0.00     0.168 C 
HETATM   19  O1  UNL     1      12.070  13.427  10.726  1.00  0.00    -0.385 OA
ENDBRANCH  13  14
ENDBRANCH  12  13
ENDBRANCH   5  12
ENDBRANCH   2   3
ENDBRANCH   1   2
BRANCH   1  20
HETATM   20  N3  UNL     1      15.069   5.763  12.174  1.00  0.00    -0.335 N 
HETATM   21  C15 UNL     1      14.909   5.078  13.389  1.00  0.00     0.279 C 
HETATM   22  O2  UNL     1      15.866   5.008  14.194  1.00  0.00    -0.265 OA
ATOM     23  H3  UNL     1      14.252   5.787  11.562  1.00  0.00     0.168 HD
BRANCH  21  24
HETATM   24  C16 UNL     1      13.622   4.433  13.744  1.00  0.00     0.144 A 
HETATM   25  N4  UNL     1      12.511   4.518  13.032  1.00  0.00    -0.344 N 
HETATM   26  C17 UNL     1      11.435   3.908  13.435  1.00  0.00     0.076 A 
ATOM     27  H4  UNL     1      12.497   5.061  12.169  1.00  0.00     0.167 HD
HETATM   28  C18 UNL     1      10.177   3.904  12.787  1.00  0.00     0.085 A 
HETATM   29  C22 UNL     1      11.512   3.196  14.603  1.00  0.00     0.059 A 
HETATM   30 CL1  UNL     1       9.922   4.767  11.286  1.00  0.00    -0.080 Cl
HETATM   31  C19 UNL     1       9.146   3.218  13.335  1.00  0.00     0.081 A 
HETATM   32 CL2  UNL     1       7.575   3.218  12.515  1.00  0.00    -0.081 Cl
HETATM   33  C20 UNL     1       9.198   2.497  14.502  1.00  0.00     0.080 A 
HETATM   34 CL3  UNL     1       7.878   1.621  15.199  1.00  0.00    -0.081 Cl
HETATM   35  C21 UNL     1      10.427   2.493  15.148  1.00  0.00     0.077 A 
HETATM   36 CL4  UNL     1      10.726   1.650  16.639  1.00  0.00    -0.081 Cl
HETATM   37  S2  UNL     1      13.154   3.454  15.050  1.00  0.00    -0.063 SA
ENDBRANCH  21  24
ENDBRANCH   1  20
TORSDOF 8
ENDMDL
MODEL 2
REMARK VINA RESULT: -9.053580248      1.362      2.364
REMARK  8 active torsions:
REMARK  status: ('A' for Active; 'I' for Inactive)
REMARK    1  A    between atoms: C2_2  and  N1_3 
REMARK    2  A    between atoms: C3_4  and  S1_5 
REMARK    3  A    between atoms: S1_5  and  C4_6 
REMARK    4  A    between atoms: C4_6  and  C5_7 
REMARK    5  A    between atoms: C12_17  and  C13_18 
REMARK    6  A    between atoms: C13_18  and  C14_19 
REMARK    7  A    between atoms: C14_19  and  N3_20 
REMARK       I    between atoms: N3_20  and  C15_22 
REMARK    8  A    between atoms: C15_22  and  C16_24 
ROOT
HETATM    1  C14 UNL     1      16.724   5.173  11.631  1.00  0.00     0.070 C 
ENDROOT
BRANCH   1   2
HETATM    2  C13 UNL     1      16.972   5.360  10.180  1.00  0.00     0.104 C 
BRANCH   2   3
HETATM    3  C12 UNL     1      17.388   6.698   9.732  1.00  0.00     0.040 A 
HETATM    4  N1  UNL     1      16.647   7.840  10.012  1.00  0.00    -0.329 N 
HETATM    5  C3  UNL     1      17.319   8.878   9.519  1.00  0.00     0.147 A 
HETATM    6  N2  UNL     1      18.470   8.403   8.929  1.00  0.00    -0.339 N 
HETATM    7  C10 UNL     1      18.509   7.070   9.061  1.00  0.00     0.030 A 
ATOM      8  H2  UNL     1      19.178   8.973   8.467  1.00  0.00     0.168 HD
HETATM    9  C11 UNL     1      19.610   6.220   8.482  1.00  0.00     0.070 C 
BRANCH   4  10
HETATM   10  C2  UNL     1      15.380   7.760  10.688  1.00  0.00     0.126 C 
HETATM   11  C1  UNL     1      14.235   7.591   9.687  1.00  0.00     0.027 C 
ENDBRANCH   4  10
BRANCH   5  12
HETATM   12  S1  UNL     1      16.957  10.610   9.569  1.00  0.00    -0.091 SA
BRANCH  12  13
HETATM   13  C4  UNL     1      15.426  11.120   8.845  1.00  0.00     0.114 C 
BRANCH  13  14
HETATM   14  C5  UNL     1      14.357  11.222   9.961  1.00  0.00     0.131 C 
HETATM   15  C6  UNL     1      14.505  12.531  10.646  1.00  0.00     0.033 C 
HETATM   16  C7  UNL     1      13.223  13.294  10.800  1.00  0.00     0.004 C 
HETATM   17  C8  UNL     1      12.223  13.089   9.714  1.00  0.00     0.026 C 
HETATM   18  C9  UNL     1      12.605  12.043   8.712  1.00  0.00     0.168 C 
HETATM   19  O1  UNL     1      13.147  10.968   9.375  1.00  0.00    -0.385 OA
ENDBRANCH  13  14
ENDBRANCH  12  13
ENDBRANCH   5  12
ENDBRANCH   2   3
ENDBRANCH   1   2
BRANCH   1  20
HETATM   20  N3  UNL     1      15.516   4.677  12.132  1.00  0.00    -0.335 N 
HETATM   21  C15 UNL     1      14.911   4.965  13.365  1.00  0.00     0.279 C 
HETATM   22  O2  UNL     1      15.465   5.758  14.161  1.00  0.00    -0.265 OA
ATOM     23  H3  UNL     1      15.014   4.026  11.527  1.00  0.00     0.168 HD
BRANCH  21  24
HETATM   24  C16 UNL     1      13.618   4.349  13.749  1.00  0.00     0.144 A 
HETATM   25  N4  UNL     1      12.491   4.464  13.066  1.00  0.00    -0.344 N 
HETATM   26  C17 UNL     1      11.412   3.877  13.492  1.00  0.00     0.076 A 
ATOM     27  H4  UNL     1      12.469   5.013  12.207  1.00  0.00     0.167 HD
HETATM   28  C18 UNL     1      10.138   3.908  12.877  1.00  0.00     0.085 A 
HETATM   29  C22 UNL     1      11.501   3.156  14.654  1.00  0.00     0.059 A 
HETATM   30 CL1  UNL     1       9.867   4.787  11.388  1.00  0.00    -0.080 Cl
HETATM   31  C19 UNL     1       9.105   3.244  13.446  1.00  0.00     0.081 A 
HETATM   32 CL2  UNL     1       7.514   3.287  12.666  1.00  0.00    -0.081 Cl
HETATM   33  C20 UNL     1       9.169   2.514  14.608  1.00  0.00     0.080 A 
HETATM   34 CL3  UNL     1       7.846   1.666  15.332  1.00  0.00    -0.081 Cl
HETATM   35  C21 UNL     1      10.413   2.477  15.223  1.00  0.00     0.077 A 
HETATM   36 CL4  UNL     1      10.729   1.617  16.701  1.00  0.00    -0.081 Cl
HETATM   37  S2  UNL     1      13.159   3.372  15.061  1.00  0.00    -0.063 SA
ENDBRANCH  21  24
ENDBRANCH   1  20
TORSDOF 8
ENDMDL
MODEL 3
REMARK VINA RESULT: -9.018194732      4.754      9.996
REMARK  8 active torsions:
REMARK  status: ('A' for Active; 'I' for Inactive)
REMARK    1  A    between atoms: C2_2  and  N1_3 
REMARK    2  A    between atoms: C3_4  and  S1_5 
REMARK    3  A    between atoms: S1_5  and  C4_6 
REMARK    4  A    between atoms: C4_6  and  C5_7 
REMARK    5  A    between atoms: C12_17  and  C13_18 
REMARK    6  A    between atoms: C13_18  and  C14_19 
REMARK    7  A    between atoms: C14_19  and  N3_20 
REMARK       I    between atoms: N3_20  and  C15_22 
REMARK    8  A    between atoms: C15_22  and  C16_24 
ROOT
HETATM    1  C14 UNL     1      15.898   5.921  12.578  1.00  0.00     0.070 C 
ENDROOT
BRANCH   1   2
HETATM    2  C13 UNL     1      15.027   4.761  12.264  1.00  0.00     0.104 C 
BRANCH   2   3
HETATM    3  C12 UNL     1      13.590   4.901  12.545  1.00  0.00     0.040 A 
HETATM    4  N1  UNL     1      12.651   5.101  11.540  1.00  0.00    -0.329 N 
HETATM    5  C3  UNL     1      11.452   5.129  12.118  1.00  0.00     0.147 A 
HETATM    6  N2  UNL     1      11.625   4.955  13.473  1.00  0.00    -0.339 N 
HETATM    7  C10 UNL     1      12.933   4.816  13.731  1.00  0.00     0.030 A 
ATOM      8  H2  UNL     1      10.879   4.935  14.169  1.00  0.00     0.168 HD
HETATM    9  C11 UNL     1      13.482   4.658  15.125  1.00  0.00     0.070 C 
BRANCH   4  10
HETATM   10  C2  UNL     1      13.051   5.267  10.168  1.00  0.00     0.126 C 
HETATM   11  C1  UNL     1      12.956   6.733   9.743  1.00  0.00     0.027 C 
ENDBRANCH   4  10
BRANCH   5  12
HETATM   12  S1  UNL     1       9.839   5.305  11.410  1.00  0.00    -0.091 SA
BRANCH  12  13
HETATM   13  C4  UNL     1       8.772   3.899  11.511  1.00  0.00     0.114 C 
BRANCH  13  14
HETATM   14  C5  UNL     1       8.053   3.918  12.882  1.00  0.00     0.131 C 
HETATM   15  C6  UNL     1       6.782   3.160  12.765  1.00  0.00     0.033 C 
HETATM   16  C7  UNL     1       6.567   2.145  13.848  1.00  0.00     0.004 C 
HETATM   17  C8  UNL     1       7.806   1.515  14.388  1.00  0.00     0.026 C 
HETATM   18  C9  UNL     1       9.078   2.100  13.856  1.00  0.00     0.168 C 
HETATM   19  O1  UNL     1       8.953   3.467  13.808  1.00  0.00    -0.385 OA
ENDBRANCH  13  14
ENDBRANCH  12  13
ENDBRANCH   5  12
ENDBRANCH   2   3
ENDBRANCH   1   2
BRANCH   1  20
HETATM   20  N3  UNL     1      16.031   7.018  11.719  1.00  0.00    -0.335 N 
HETATM   21  C15 UNL     1      16.707   7.073  10.490  1.00  0.00     0.279 C 
HETATM   22  O2  UNL     1      17.280   6.051  10.048  1.00  0.00    -0.265 OA
ATOM     23  H3  UNL     1      15.582   7.882  12.023  1.00  0.00     0.168 HD
BRANCH  21  24
HETATM   24  C16 UNL     1      16.756   8.324   9.695  1.00  0.00     0.144 A 
HETATM   25  N4  UNL     1      15.718   9.107   9.451  1.00  0.00    -0.344 N 
HETATM   26  C17 UNL     1      15.874  10.186   8.743  1.00  0.00     0.076 A 
ATOM     27  H4  UNL     1      14.798   8.864   9.817  1.00  0.00     0.167 HD
HETATM   28  C18 UNL     1      14.867  11.119   8.398  1.00  0.00     0.085 A 
HETATM   29  C22 UNL     1      17.132  10.461   8.276  1.00  0.00     0.059 A 
HETATM   30 CL1  UNL     1      13.210  10.906   8.921  1.00  0.00    -0.080 Cl
HETATM   31  C19 UNL     1      15.186  12.200   7.649  1.00  0.00     0.081 A 
HETATM   32 CL2  UNL     1      13.918  13.363   7.223  1.00  0.00    -0.081 Cl
HETATM   33  C20 UNL     1      16.438  12.497   7.170  1.00  0.00     0.080 A 
HETATM   34 CL3  UNL     1      16.843  13.881   6.213  1.00  0.00    -0.081 Cl
HETATM   35  C21 UNL     1      17.436  11.590   7.501  1.00  0.00     0.077 A 
HETATM   36 CL4  UNL     1      19.093  11.761   7.004  1.00  0.00    -0.081 Cl
HETATM   37  S2  UNL     1      18.023   9.126   8.898  1.00  0.00    -0.063 SA
ENDBRANCH  21  24
ENDBRANCH   1  20
TORSDOF 8
ENDMDL
MODEL 4
REMARK VINA RESULT: -8.992160979      1.990      3.273
REMARK  8 active torsions:
REMARK  status: ('A' for Active; 'I' for Inactive)
REMARK    1  A    between atoms: C2_2  and  N1_3 
REMARK    2  A    between atoms: C3_4  and  S1_5 
REMARK    3  A    between atoms: S1_5  and  C4_6 
REMARK    4  A    between atoms: C4_6  and  C5_7 
REMARK    5  A    between atoms: C12_17  and  C13_18 
REMARK    6  A    between atoms: C13_18  and  C14_19 
REMARK    7  A    between atoms: C14_19  and  N3_20 
REMARK       I    between atoms: N3_20  and  C15_22 
REMARK    8  A    between atoms: C15_22  and  C16_24 
ROOT
HETATM    1  C14 UNL     1      15.644   6.230  10.087  1.00  0.00     0.070 C 
ENDROOT
BRANCH   1   2
HETATM    2  C13 UNL     1      16.586   7.252  10.610  1.00  0.00     0.104 C 
BRANCH   2   3
HETATM    3  C12 UNL     1      17.037   8.295   9.676  1.00  0.00     0.040 A 
HETATM    4  N1  UNL     1      16.364   9.502   9.527  1.00  0.00    -0.329 N 
HETATM    5  C3  UNL     1      17.055  10.235   8.657  1.00  0.00     0.147 A 
HETATM    6  N2  UNL     1      18.150   9.503   8.253  1.00  0.00    -0.339 N 
HETATM    7  C10 UNL     1      18.136   8.317   8.878  1.00  0.00     0.030 A 
ATOM      8  H2  UNL     1      18.858   9.813   7.586  1.00  0.00     0.168 HD
HETATM    9  C11 UNL     1      19.165   7.246   8.628  1.00  0.00     0.070 C 
BRANCH   4  10
HETATM   10  C2  UNL     1      15.133   9.761  10.224  1.00  0.00     0.126 C 
HETATM   11  C1  UNL     1      13.926   9.496   9.321  1.00  0.00     0.027 C 
ENDBRANCH   4  10
BRANCH   5  12
HETATM   12  S1  UNL     1      16.775  11.878   8.060  1.00  0.00    -0.091 SA
BRANCH  12  13
HETATM   13  C4  UNL     1      16.780  13.171   9.268  1.00  0.00     0.114 C 
BRANCH  13  14
HETATM   14  C5  UNL     1      15.455  13.963   9.153  1.00  0.00     0.131 C 
HETATM   15  C6  UNL     1      14.465  13.135   8.419  1.00  0.00     0.033 C 
HETATM   16  C7  UNL     1      13.126  13.036   9.089  1.00  0.00     0.004 C 
HETATM   17  C8  UNL     1      13.152  13.087  10.578  1.00  0.00     0.026 C 
HETATM   18  C9  UNL     1      14.502  13.368  11.164  1.00  0.00     0.168 C 
HETATM   19  O1  UNL     1      15.113  14.349  10.420  1.00  0.00    -0.385 OA
ENDBRANCH  13  14
ENDBRANCH  12  13
ENDBRANCH   5  12
ENDBRANCH   2   3
ENDBRANCH   1   2
BRANCH   1  20
HETATM   20  N3  UNL     1      14.609   5.694  10.860  1.00  0.00    -0.335 N 
HETATM   21  C15 UNL     1      13.238   5.660  10.560  1.00  0.00     0.279 C 
HETATM   22  O2  UNL     1      12.824   6.147   9.483  1.00  0.00    -0.265 OA
ATOM     23  H3  UNL     1      14.883   5.279  11.751  1.00  0.00     0.168 HD
BRANCH  21  24
HETATM   24  C16 UNL     1      12.261   5.050  11.495  1.00  0.00     0.144 A 
HETATM   25  N4  UNL     1      12.577   4.300  12.537  1.00  0.00    -0.344 N 
HETATM   26  C17 UNL     1      11.639   3.817  13.296  1.00  0.00     0.076 A 
ATOM     27  H4  UNL     1      13.556   4.100  12.744  1.00  0.00     0.167 HD
HETATM   28  C18 UNL     1      11.817   3.002  14.439  1.00  0.00     0.085 A 
HETATM   29  C22 UNL     1      10.343   4.117  12.968  1.00  0.00     0.059 A 
HETATM   30 CL1  UNL     1      13.412   2.534  14.985  1.00  0.00    -0.080 Cl
HETATM   31  C19 UNL     1      10.733   2.575  15.130  1.00  0.00     0.081 A 
HETATM   32 CL2  UNL     1      10.967   1.555  16.561  1.00  0.00    -0.081 Cl
HETATM   33  C20 UNL     1       9.427   2.862  14.822  1.00  0.00     0.080 A 
HETATM   34 CL3  UNL     1       8.044   2.314  15.707  1.00  0.00    -0.081 Cl
HETATM   35  C21 UNL     1       9.238   3.660  13.702  1.00  0.00     0.077 A 
HETATM   36 CL4  UNL     1       7.673   4.150  13.124  1.00  0.00    -0.081 Cl
HETATM   37  S2  UNL     1      10.565   5.091  11.566  1.00  0.00    -0.063 SA
ENDBRANCH  21  24
ENDBRANCH   1  20
TORSDOF 8
ENDMDL
MODEL 5
REMARK VINA RESULT: -8.970736598      2.248      2.786
REMARK  8 active torsions:
REMARK  status: ('A' for Active; 'I' for Inactive)
REMARK    1  A    between atoms: C2_2  and  N1_3 
REMARK    2  A    between atoms: C3_4  and  S1_5 
REMARK    3  A    between atoms: S1_5  and  C4_6 
REMARK    4  A    between atoms: C4_6  and  C5_7 
REMARK    5  A    between atoms: C12_17  and  C13_18 
REMARK    6  A    between atoms: C13_18  and  C14_19 
REMARK    7  A    between atoms: C14_19  and  N3_20 
REMARK       I    between atoms: N3_20  and  C15_22 
REMARK    8  A    between atoms: C15_22  and  C16_24 
ROOT
HETATM    1  C14 UNL     1      16.157   6.379  11.677  1.00  0.00     0.070 C 
ENDROOT
BRANCH   1   2
HETATM    2  C13 UNL     1      16.257   6.889  10.288  1.00  0.00     0.104 C 
BRANCH   2   3
HETATM    3  C12 UNL     1      15.439   8.061   9.938  1.00  0.00     0.040 A 
HETATM    4  N1  UNL     1      15.984   9.332   9.796  1.00  0.00    -0.329 N 
HETATM    5  C3  UNL     1      14.997  10.146   9.427  1.00  0.00     0.147 A 
HETATM    6  N2  UNL     1      13.839   9.404   9.340  1.00  0.00    -0.339 N 
HETATM    7  C10 UNL     1      14.113   8.131   9.654  1.00  0.00     0.030 A 
ATOM      8  H2  UNL     1      12.921   9.766   9.080  1.00  0.00     0.168 HD
HETATM    9  C11 UNL     1      13.060   7.055   9.711  1.00  0.00     0.070 C 
BRANCH   4  10
HETATM   10  C2  UNL     1      17.374   9.583  10.068  1.00  0.00     0.126 C 
HETATM   11  C1  UNL     1      18.191   9.595   8.775  1.00  0.00     0.027 C 
ENDBRANCH   4  10
BRANCH   5  12
HETATM   12  S1  UNL     1      15.016  11.873   9.039  1.00  0.00    -0.091 SA
BRANCH  12  13
HETATM   13  C4  UNL     1      15.531  12.312   7.404  1.00  0.00     0.114 C 
BRANCH  13  14
HETATM   14  C5  UNL     1      16.575  13.451   7.501  1.00  0.00     0.131 C 
HETATM   15  C6  UNL     1      17.331  13.300   8.769  1.00  0.00     0.033 C 
HETATM   16  C7  UNL     1      18.821  13.369   8.611  1.00  0.00     0.004 C 
HETATM   17  C8  UNL     1      19.351  12.849   7.318  1.00  0.00     0.026 C 
HETATM   18  C9  UNL     1      18.295  12.468   6.326  1.00  0.00     0.168 C 
HETATM   19  O1  UNL     1      17.304  13.420   6.344  1.00  0.00    -0.385 OA
ENDBRANCH  13  14
ENDBRANCH  12  13
ENDBRANCH   5  12
ENDBRANCH   2   3
ENDBRANCH   1   2
BRANCH   1  20
HETATM   20  N3  UNL     1      15.020   5.723  12.160  1.00  0.00    -0.335 N 
HETATM   21  C15 UNL     1      14.856   5.077  13.396  1.00  0.00     0.279 C 
HETATM   22  O2  UNL     1      15.804   5.049  14.214  1.00  0.00    -0.265 OA
ATOM     23  H3  UNL     1      14.210   5.713  11.539  1.00  0.00     0.168 HD
BRANCH  21  24
HETATM   24  C16 UNL     1      13.575   4.423  13.757  1.00  0.00     0.144 A 
HETATM   25  N4  UNL     1      12.460   4.498  13.050  1.00  0.00    -0.344 N 
HETATM   26  C17 UNL     1      11.391   3.881  13.458  1.00  0.00     0.076 A 
ATOM     27  H4  UNL     1      12.439   5.040  12.186  1.00  0.00     0.167 HD
HETATM   28  C18 UNL     1      10.130   3.868  12.816  1.00  0.00     0.085 A 
HETATM   29  C22 UNL     1      11.478   3.171  14.627  1.00  0.00     0.059 A 
HETATM   30 CL1  UNL     1       9.863   4.727  11.316  1.00  0.00    -0.080 Cl
HETATM   31  C19 UNL     1       9.107   3.176  13.369  1.00  0.00     0.081 A 
HETATM   32 CL2  UNL     1       7.531   3.163  12.556  1.00  0.00    -0.081 Cl
HETATM   33  C20 UNL     1       9.168   2.456  14.537  1.00  0.00     0.080 A 
HETATM   34 CL3  UNL     1       7.858   1.572  15.241  1.00  0.00    -0.081 Cl
HETATM   35  C21 UNL     1      10.400   2.462  15.178  1.00  0.00     0.077 A 
HETATM   36 CL4  UNL     1      10.712   1.623  16.669  1.00  0.00    -0.081 Cl
HETATM   37  S2  UNL     1      13.120   3.442  15.067  1.00  0.00    -0.063 SA
ENDBRANCH  21  24
ENDBRANCH   1  20
TORSDOF 8
ENDMDL
