MODEL 1
REMARK VINA RESULT: -7.438232787      0.000      0.000
REMARK  10 active torsions:
REMARK  status: ('A' for Active; 'I' for Inactive)
REMARK    1  A    between atoms: N1_1  and  C1_4 
REMARK    2  A    between atoms: C2_7  and  C3_8 
REMARK    3  A    between atoms: C3_8  and  O1_9 
REMARK    4  A    between atoms: C3_8  and  O2_11 
REMARK    5  A    between atoms: C4_13  and  C5_14 
REMARK    6  A    between atoms: C5_14  and  C6_16 
REMARK    7  A    between atoms: C6_16  and  O4_17 
REMARK    8  A    between atoms: C6_16  and  C7_19 
REMARK    9  A    between atoms: C7_19  and  N3_20 
REMARK   10  A    between atoms: C8_23  and  N5_24 
ROOT
HETATM    1  C5  UNL     1     -31.817  18.796 -14.396  1.00  0.00     0.209 C 
HETATM    2  O3  UNL     1     -32.267  18.700 -15.534  1.00  0.00    -0.288 OA
ENDROOT
BRANCH   1   3
HETATM    3  C4  UNL     1     -32.589  18.484 -13.213  1.00  0.00     0.125 A 
HETATM    4  C2  UNL     1     -33.557  19.312 -12.745  1.00  0.00     0.112 A 
HETATM    5  N2  UNL     1     -34.254  18.896 -11.620  1.00  0.00    -0.187 N 
HETATM    6  C1  UNL     1     -33.977  17.736 -11.031  1.00  0.00     0.690 A 
ATOM      7  H2  UNL     1     -34.990  19.489 -11.239  1.00  0.00     0.184 HD
HETATM    8  N10 UNL     1     -33.013  16.916 -11.498  1.00  0.00    -0.132 N 
HETATM    9  N9  UNL     1     -32.362  17.311 -12.555  1.00  0.00    -0.281 N 
ATOM     10  H10 UNL     1     -32.804  16.027 -11.044  1.00  0.00     0.205 HD
ATOM     11  H9  UNL     1     -31.630  16.699 -12.917  1.00  0.00     0.187 HD
BRANCH   4  12
HETATM   12  C3  UNL     1     -33.917  20.646 -13.284  1.00  0.00     0.308 C 
BRANCH  12  13
HETATM   13  O1  UNL     1     -34.830  21.198 -12.331  1.00  0.00    -0.366 OA
ATOM     14  H1  UNL     1     -34.287  21.683 -11.721  1.00  0.00     0.213 HD
ENDBRANCH  12  13
BRANCH  12  15
HETATM   15  O2  UNL     1     -34.543  20.504 -14.519  1.00  0.00    -0.366 OA
ATOM     16  H2  UNL     1     -34.765  21.359 -14.868  1.00  0.00     0.213 HD
ENDBRANCH  12  15
ENDBRANCH   4  12
BRANCH   6  17
HETATM   17  N1  UNL     1     -34.639  17.368  -9.982  1.00  0.00    -0.233 N 
ATOM     18  H12 UNL     1     -35.144  18.080  -9.456  1.00  0.00     0.174 HD
ATOM     19  H11 UNL     1     -34.646  16.388  -9.701  1.00  0.00     0.174 HD
ENDBRANCH   6  17
ENDBRANCH   1   3
BRANCH   1  20
HETATM   20  C6  UNL     1     -30.390  19.268 -14.295  1.00  0.00     0.214 C 
BRANCH  20  21
HETATM   21  O4  UNL     1     -30.171  19.674 -12.961  1.00  0.00    -0.386 OA
ATOM     22  H4  UNL     1     -29.345  20.143 -12.936  1.00  0.00     0.210 HD
ENDBRANCH  20  21
BRANCH  20  23
HETATM   23  C7  UNL     1     -30.296  20.498 -15.178  1.00  0.00     0.191 C 
BRANCH  23  24
HETATM   24  N3  UNL     1     -29.196  20.359 -16.138  1.00  0.00    -0.269 N 
HETATM   25  N4  UNL     1     -28.612  19.280 -16.572  1.00  0.00    -0.280 N 
HETATM   26  C8  UNL     1     -27.637  19.561 -17.453  1.00  0.00     0.146 A 
ATOM     27  H4  UNL     1     -28.864  18.336 -16.278  1.00  0.00     0.189 HD
HETATM   28  C9  UNL     1     -27.611  20.932 -17.580  1.00  0.00     0.138 A 
HETATM   29  N6  UNL     1     -27.022  21.999 -18.180  1.00  0.00    -0.277 N 
HETATM   30  C10 UNL     1     -28.606  21.417 -16.739  1.00  0.00     0.167 A 
HETATM   31  N7  UNL     1     -27.622  23.096 -17.733  1.00  0.00    -0.020 NA
ATOM     32  H6  UNL     1     -26.257  21.964 -18.853  1.00  0.00     0.184 HD
HETATM   33  N8  UNL     1     -28.576  22.757 -16.866  1.00  0.00    -0.266 N 
ATOM     34  H8  UNL     1     -29.186  23.411 -16.376  1.00  0.00     0.186 HD
BRANCH  26  35
HETATM   35  N5  UNL     1     -26.848  18.739 -18.087  1.00  0.00    -0.382 N 
ATOM     36  H52 UNL     1     -25.836  18.842 -18.160  1.00  0.00     0.157 HD
ATOM     37  H51 UNL     1     -27.089  17.891 -18.599  1.00  0.00     0.157 HD
ENDBRANCH  26  35
ENDBRANCH  23  24
ENDBRANCH  20  23
ENDBRANCH   1  20
TORSDOF 10
ENDMDL
MODEL 2
REMARK VINA RESULT: -7.402649618      1.932      7.543
REMARK  10 active torsions:
REMARK  status: ('A' for Active; 'I' for Inactive)
REMARK    1  A    between atoms: N1_1  and  C1_4 
REMARK    2  A    between atoms: C2_7  and  C3_8 
REMARK    3  A    between atoms: C3_8  and  O1_9 
REMARK    4  A    between atoms: C3_8  and  O2_11 
REMARK    5  A    between atoms: C4_13  and  C5_14 
REMARK    6  A    between atoms: C5_14  and  C6_16 
REMARK    7  A    between atoms: C6_16  and  O4_17 
REMARK    8  A    between atoms: C6_16  and  C7_19 
REMARK    9  A    between atoms: C7_19  and  N3_20 
REMARK   10  A    between atoms: C8_23  and  N5_24 
ROOT
HETATM    1  C5  UNL     1     -31.910  20.213 -13.900  1.00  0.00     0.209 C 
HETATM    2  O3  UNL     1     -32.715  21.111 -14.138  1.00  0.00    -0.288 OA
ENDROOT
BRANCH   1   3
HETATM    3  C4  UNL     1     -30.740  19.968 -14.714  1.00  0.00     0.125 A 
HETATM    4  C2  UNL     1     -29.531  20.512 -14.420  1.00  0.00     0.112 A 
HETATM    5  N2  UNL     1     -28.472  20.183 -15.252  1.00  0.00    -0.187 N 
HETATM    6  C1  UNL     1     -28.643  19.371 -16.292  1.00  0.00     0.690 A 
ATOM      7  H2  UNL     1     -27.548  20.570 -15.065  1.00  0.00     0.184 HD
HETATM    8  N10 UNL     1     -29.844  18.833 -16.581  1.00  0.00    -0.132 N 
HETATM    9  N9  UNL     1     -30.837  19.144 -15.796  1.00  0.00    -0.281 N 
ATOM     10  H10 UNL     1     -29.971  18.209 -17.379  1.00  0.00     0.205 HD
ATOM     11  H9  UNL     1     -31.750  18.743 -16.006  1.00  0.00     0.187 HD
BRANCH   4  12
HETATM   12  C3  UNL     1     -29.233  21.467 -13.325  1.00  0.00     0.308 C 
BRANCH  12  13
HETATM   13  O1  UNL     1     -28.100  22.212 -13.779  1.00  0.00    -0.366 OA
ATOM     14  H1  UNL     1     -27.518  22.258 -13.030  1.00  0.00     0.213 HD
ENDBRANCH  12  13
BRANCH  12  15
HETATM   15  O2  UNL     1     -28.914  20.770 -12.163  1.00  0.00    -0.366 OA
ATOM     16  H2  UNL     1     -28.003  20.502 -12.188  1.00  0.00     0.213 HD
ENDBRANCH  12  15
ENDBRANCH   4  12
BRANCH   6  17
HETATM   17  N1  UNL     1     -27.640  19.078 -17.056  1.00  0.00    -0.233 N 
ATOM     18  H12 UNL     1     -26.899  19.769 -17.166  1.00  0.00     0.174 HD
ATOM     19  H11 UNL     1     -27.606  18.175 -17.529  1.00  0.00     0.174 HD
ENDBRANCH   6  17
ENDBRANCH   1   3
BRANCH   1  20
HETATM   20  C6  UNL     1     -32.216  19.364 -12.694  1.00  0.00     0.214 C 
BRANCH  20  21
HETATM   21  O4  UNL     1     -31.549  18.132 -12.863  1.00  0.00    -0.386 OA
ATOM     22  H4  UNL     1     -32.138  17.549 -13.328  1.00  0.00     0.210 HD
ENDBRANCH  20  21
BRANCH  20  23
HETATM   23  C7  UNL     1     -33.708  19.097 -12.741  1.00  0.00     0.191 C 
BRANCH  23  24
HETATM   24  N3  UNL     1     -33.991  17.699 -12.399  1.00  0.00    -0.269 N 
HETATM   25  N4  UNL     1     -33.993  16.647 -13.164  1.00  0.00    -0.280 N 
HETATM   26  C8  UNL     1     -34.304  15.533 -12.480  1.00  0.00     0.146 A 
ATOM     27  H4  UNL     1     -33.783  16.666 -14.163  1.00  0.00     0.189 HD
HETATM   28  C9  UNL     1     -34.515  15.924 -11.177  1.00  0.00     0.138 A 
HETATM   29  N6  UNL     1     -34.836  15.528  -9.917  1.00  0.00    -0.277 N 
HETATM   30  C10 UNL     1     -34.312  17.299 -11.148  1.00  0.00     0.167 A 
HETATM   31  N7  UNL     1     -34.833  16.605  -9.142  1.00  0.00    -0.020 NA
ATOM     32  H6  UNL     1     -35.042  14.574  -9.621  1.00  0.00     0.184 HD
HETATM   33  N8  UNL     1     -34.519  17.675  -9.871  1.00  0.00    -0.266 N 
ATOM     34  H8  UNL     1     -34.448  18.630  -9.518  1.00  0.00     0.186 HD
BRANCH  26  35
HETATM   35  N5  UNL     1     -34.400  14.307 -12.915  1.00  0.00    -0.382 N 
ATOM     36  H52 UNL     1     -34.505  14.043 -13.894  1.00  0.00     0.157 HD
ATOM     37  H51 UNL     1     -34.389  13.438 -12.382  1.00  0.00     0.157 HD
ENDBRANCH  26  35
ENDBRANCH  23  24
ENDBRANCH  20  23
ENDBRANCH   1  20
TORSDOF 10
ENDMDL
MODEL 3
REMARK VINA RESULT: -7.398251966      0.808      1.713
REMARK  10 active torsions:
REMARK  status: ('A' for Active; 'I' for Inactive)
REMARK    1  A    between atoms: N1_1  and  C1_4 
REMARK    2  A    between atoms: C2_7  and  C3_8 
REMARK    3  A    between atoms: C3_8  and  O1_9 
REMARK    4  A    between atoms: C3_8  and  O2_11 
REMARK    5  A    between atoms: C4_13  and  C5_14 
REMARK    6  A    between atoms: C5_14  and  C6_16 
REMARK    7  A    between atoms: C6_16  and  O4_17 
REMARK    8  A    between atoms: C6_16  and  C7_19 
REMARK    9  A    between atoms: C7_19  and  N3_20 
REMARK   10  A    between atoms: C8_23  and  N5_24 
ROOT
HETATM    1  C5  UNL     1     -31.800  18.714 -14.394  1.00  0.00     0.209 C 
HETATM    2  O3  UNL     1     -32.220  18.454 -15.519  1.00  0.00    -0.288 OA
ENDROOT
BRANCH   1   3
HETATM    3  C4  UNL     1     -32.551  18.441 -13.189  1.00  0.00     0.125 A 
HETATM    4  C2  UNL     1     -33.540  19.263 -12.754  1.00  0.00     0.112 A 
HETATM    5  N2  UNL     1     -34.213  18.885 -11.602  1.00  0.00    -0.187 N 
HETATM    6  C1  UNL     1     -33.895  17.766 -10.956  1.00  0.00     0.690 A 
ATOM      7  H2  UNL     1     -34.964  19.475 -11.244  1.00  0.00     0.184 HD
HETATM    8  N10 UNL     1     -32.912  16.953 -11.390  1.00  0.00    -0.132 N 
HETATM    9  N9  UNL     1     -32.282  17.311 -12.473  1.00  0.00    -0.281 N 
ATOM     10  H10 UNL     1     -32.671  16.096 -10.892  1.00  0.00     0.205 HD
ATOM     11  H9  UNL     1     -31.536  16.704 -12.810  1.00  0.00     0.187 HD
BRANCH   4  12
HETATM   12  C3  UNL     1     -33.946  20.555 -13.358  1.00  0.00     0.308 C 
BRANCH  12  13
HETATM   13  O1  UNL     1     -34.907  21.103 -12.451  1.00  0.00    -0.366 OA
ATOM     14  H1  UNL     1     -35.094  21.973 -12.785  1.00  0.00     0.213 HD
ENDBRANCH  12  13
BRANCH  12  15
HETATM   15  O2  UNL     1     -34.533  20.334 -14.600  1.00  0.00    -0.366 OA
ATOM     16  H2  UNL     1     -35.476  20.269 -14.505  1.00  0.00     0.213 HD
ENDBRANCH  12  15
ENDBRANCH   4  12
BRANCH   6  17
HETATM   17  N1  UNL     1     -34.537  17.435  -9.883  1.00  0.00    -0.233 N 
ATOM     18  H12 UNL     1     -35.556  17.431  -9.910  1.00  0.00     0.174 HD
ATOM     19  H11 UNL     1     -34.022  17.186  -9.037  1.00  0.00     0.174 HD
ENDBRANCH   6  17
ENDBRANCH   1   3
BRANCH   1  20
HETATM   20  C6  UNL     1     -30.435  19.347 -14.336  1.00  0.00     0.214 C 
BRANCH  20  21
HETATM   21  O4  UNL     1     -30.130  19.577 -12.978  1.00  0.00    -0.386 OA
ATOM     22  H4  UNL     1     -29.474  20.264 -12.943  1.00  0.00     0.210 HD
ENDBRANCH  20  21
BRANCH  20  23
HETATM   23  C7  UNL     1     -30.572  20.696 -15.018  1.00  0.00     0.191 C 
BRANCH  23  24
HETATM   24  N3  UNL     1     -29.347  21.029 -15.752  1.00  0.00    -0.269 N 
HETATM   25  N4  UNL     1     -28.525  22.022 -15.577  1.00  0.00    -0.280 N 
HETATM   26  C8  UNL     1     -27.508  21.989 -16.456  1.00  0.00     0.146 A 
ATOM     27  H4  UNL     1     -28.640  22.740 -14.861  1.00  0.00     0.189 HD
HETATM   28  C9  UNL     1     -27.713  20.879 -17.244  1.00  0.00     0.138 A 
HETATM   29  N6  UNL     1     -27.251  20.128 -18.278  1.00  0.00    -0.277 N 
HETATM   30  C10 UNL     1     -28.882  20.286 -16.782  1.00  0.00     0.167 A 
HETATM   31  N7  UNL     1     -28.093  19.117 -18.451  1.00  0.00    -0.020 NA
ATOM     32  H6  UNL     1     -26.409  20.310 -18.824  1.00  0.00     0.184 HD
HETATM   33  N8  UNL     1     -29.077  19.202 -17.557  1.00  0.00    -0.266 N 
ATOM     34  H8  UNL     1     -29.857  18.549 -17.473  1.00  0.00     0.186 HD
BRANCH  26  35
HETATM   35  N5  UNL     1     -26.506  22.814 -16.577  1.00  0.00    -0.382 N 
ATOM     36  H52 UNL     1     -25.688  22.831 -15.969  1.00  0.00     0.157 HD
ATOM     37  H51 UNL     1     -26.369  23.554 -17.265  1.00  0.00     0.157 HD
ENDBRANCH  26  35
ENDBRANCH  23  24
ENDBRANCH  20  23
ENDBRANCH   1  20
TORSDOF 10
ENDMDL
MODEL 4
REMARK VINA RESULT: -7.324860683      1.867      7.689
REMARK  10 active torsions:
REMARK  status: ('A' for Active; 'I' for Inactive)
REMARK    1  A    between atoms: N1_1  and  C1_4 
REMARK    2  A    between atoms: C2_7  and  C3_8 
REMARK    3  A    between atoms: C3_8  and  O1_9 
REMARK    4  A    between atoms: C3_8  and  O2_11 
REMARK    5  A    between atoms: C4_13  and  C5_14 
REMARK    6  A    between atoms: C5_14  and  C6_16 
REMARK    7  A    between atoms: C6_16  and  O4_17 
REMARK    8  A    between atoms: C6_16  and  C7_19 
REMARK    9  A    between atoms: C7_19  and  N3_20 
REMARK   10  A    between atoms: C8_23  and  N5_24 
ROOT
HETATM    1  C5  UNL     1     -31.986  19.707 -14.321  1.00  0.00     0.209 C 
HETATM    2  O3  UNL     1     -32.499  20.774 -13.995  1.00  0.00    -0.288 OA
ENDROOT
BRANCH   1   3
HETATM    3  C4  UNL     1     -30.720  19.619 -15.015  1.00  0.00     0.125 A 
HETATM    4  C2  UNL     1     -29.569  20.096 -14.476  1.00  0.00     0.112 A 
HETATM    5  N2  UNL     1     -28.410  19.930 -15.218  1.00  0.00    -0.187 N 
HETATM    6  C1  UNL     1     -28.434  19.332 -16.407  1.00  0.00     0.690 A 
ATOM      7  H2  UNL     1     -27.523  20.272 -14.848  1.00  0.00     0.184 HD
HETATM    8  N10 UNL     1     -29.580  18.862 -16.939  1.00  0.00    -0.132 N 
HETATM    9  N9  UNL     1     -30.667  19.018 -16.238  1.00  0.00    -0.281 N 
ATOM     10  H10 UNL     1     -29.595  18.403 -17.851  1.00  0.00     0.205 HD
ATOM     11  H9  UNL     1     -31.539  18.667 -16.631  1.00  0.00     0.187 HD
BRANCH   4  12
HETATM   12  C3  UNL     1     -29.427  20.823 -13.191  1.00  0.00     0.308 C 
BRANCH  12  13
HETATM   13  O1  UNL     1     -28.221  21.580 -13.324  1.00  0.00    -0.366 OA
ATOM     14  H1  UNL     1     -27.645  21.247 -12.646  1.00  0.00     0.213 HD
ENDBRANCH  12  13
BRANCH  12  15
HETATM   15  O2  UNL     1     -29.309  19.914 -12.144  1.00  0.00    -0.366 OA
ATOM     16  H2  UNL     1     -28.975  19.086 -12.470  1.00  0.00     0.213 HD
ENDBRANCH  12  15
ENDBRANCH   4  12
BRANCH   6  17
HETATM   17  N1  UNL     1     -27.340  19.189 -17.082  1.00  0.00    -0.233 N 
ATOM     18  H12 UNL     1     -27.404  19.121 -18.097  1.00  0.00     0.174 HD
ATOM     19  H11 UNL     1     -26.443  19.146 -16.597  1.00  0.00     0.174 HD
ENDBRANCH   6  17
ENDBRANCH   1   3
BRANCH   1  20
HETATM   20  C6  UNL     1     -32.762  18.470 -13.953  1.00  0.00     0.214 C 
BRANCH  20  21
HETATM   21  O4  UNL     1     -33.429  18.025 -15.115  1.00  0.00    -0.386 OA
ATOM     22  H4  UNL     1     -33.034  18.467 -15.858  1.00  0.00     0.210 HD
ENDBRANCH  20  21
BRANCH  20  23
HETATM   23  C7  UNL     1     -33.813  18.919 -12.955  1.00  0.00     0.191 C 
BRANCH  23  24
HETATM   24  N3  UNL     1     -33.994  17.909 -11.908  1.00  0.00    -0.269 N 
HETATM   25  N4  UNL     1     -34.014  18.056 -10.615  1.00  0.00    -0.280 N 
HETATM   26  C8  UNL     1     -34.204  16.885  -9.983  1.00  0.00     0.146 A 
ATOM     27  H4  UNL     1     -33.900  18.951 -10.139  1.00  0.00     0.189 HD
HETATM   28  C9  UNL     1     -34.311  15.926 -10.965  1.00  0.00     0.138 A 
HETATM   29  N6  UNL     1     -34.494  14.608 -11.241  1.00  0.00    -0.277 N 
HETATM   30  C10 UNL     1     -34.176  16.596 -12.176  1.00  0.00     0.167 A 
HETATM   31  N7  UNL     1     -34.472  14.465 -12.561  1.00  0.00    -0.020 NA
ATOM     32  H6  UNL     1     -34.624  13.863 -10.557  1.00  0.00     0.184 HD
HETATM   33  N8  UNL     1     -34.281  15.654 -13.132  1.00  0.00    -0.266 N 
ATOM     34  H8  UNL     1     -34.224  15.823 -14.137  1.00  0.00     0.186 HD
BRANCH  26  35
HETATM   35  N5  UNL     1     -34.279  16.651  -8.702  1.00  0.00    -0.382 N 
ATOM     36  H52 UNL     1     -34.589  17.326  -8.004  1.00  0.00     0.157 HD
ATOM     37  H51 UNL     1     -34.052  15.796  -8.195  1.00  0.00     0.157 HD
ENDBRANCH  26  35
ENDBRANCH  23  24
ENDBRANCH  20  23
ENDBRANCH   1  20
TORSDOF 10
ENDMDL
MODEL 5
REMARK VINA RESULT: -7.278213956      1.208      1.551
REMARK  10 active torsions:
REMARK  status: ('A' for Active; 'I' for Inactive)
REMARK    1  A    between atoms: N1_1  and  C1_4 
REMARK    2  A    between atoms: C2_7  and  C3_8 
REMARK    3  A    between atoms: C3_8  and  O1_9 
REMARK    4  A    between atoms: C3_8  and  O2_11 
REMARK    5  A    between atoms: C4_13  and  C5_14 
REMARK    6  A    between atoms: C5_14  and  C6_16 
REMARK    7  A    between atoms: C6_16  and  O4_17 
REMARK    8  A    between atoms: C6_16  and  C7_19 
REMARK    9  A    between atoms: C7_19  and  N3_20 
REMARK   10  A    between atoms: C8_23  and  N5_24 
ROOT
HETATM    1  C5  UNL     1     -31.895  18.921 -14.444  1.00  0.00     0.209 C 
HETATM    2  O3  UNL     1     -32.277  18.594 -15.565  1.00  0.00    -0.288 OA
ENDROOT
BRANCH   1   3
HETATM    3  C4  UNL     1     -32.619  18.590 -13.236  1.00  0.00     0.125 A 
HETATM    4  C2  UNL     1     -33.565  19.412 -12.714  1.00  0.00     0.112 A 
HETATM    5  N2  UNL     1     -34.215  18.979 -11.570  1.00  0.00    -0.187 N 
HETATM    6  C1  UNL     1     -33.918  17.808 -11.011  1.00  0.00     0.690 A 
ATOM      7  H2  UNL     1     -34.934  19.567 -11.148  1.00  0.00     0.184 HD
HETATM    8  N10 UNL     1     -32.977  16.995 -11.531  1.00  0.00    -0.132 N 
HETATM    9  N9  UNL     1     -32.368  17.405 -12.608  1.00  0.00    -0.281 N 
ATOM     10  H10 UNL     1     -32.751  16.097 -11.101  1.00  0.00     0.205 HD
ATOM     11  H9  UNL     1     -31.654  16.799 -13.009  1.00  0.00     0.187 HD
BRANCH   4  12
HETATM   12  C3  UNL     1     -33.943  20.756 -13.216  1.00  0.00     0.308 C 
BRANCH  12  13
HETATM   13  O1  UNL     1     -34.895  21.251 -12.270  1.00  0.00    -0.366 OA
ATOM     14  H1  UNL     1     -35.529  21.734 -12.788  1.00  0.00     0.213 HD
ENDBRANCH  12  13
BRANCH  12  15
HETATM   15  O2  UNL     1     -34.530  20.644 -14.473  1.00  0.00    -0.366 OA
ATOM     16  H2  UNL     1     -34.561  21.496 -14.892  1.00  0.00     0.213 HD
ENDBRANCH  12  15
ENDBRANCH   4  12
BRANCH   6  17
HETATM   17  N1  UNL     1     -34.537  17.424  -9.943  1.00  0.00    -0.233 N 
ATOM     18  H12 UNL     1     -34.474  16.443  -9.673  1.00  0.00     0.174 HD
ATOM     19  H11 UNL     1     -35.073  18.098  -9.395  1.00  0.00     0.174 HD
ENDBRANCH   6  17
ENDBRANCH   1   3
BRANCH   1  20
HETATM   20  C6  UNL     1     -30.608  19.702 -14.394  1.00  0.00     0.214 C 
BRANCH  20  21
HETATM   21  O4  UNL     1     -30.872  20.988 -14.911  1.00  0.00    -0.386 OA
ATOM     22  H4  UNL     1     -30.338  21.606 -14.426  1.00  0.00     0.210 HD
ENDBRANCH  20  21
BRANCH  20  23
HETATM   23  C7  UNL     1     -29.660  19.002 -15.349  1.00  0.00     0.191 C 
BRANCH  23  24
HETATM   24  N3  UNL     1     -29.431  19.824 -16.541  1.00  0.00    -0.269 N 
HETATM   25  N4  UNL     1     -30.272  20.193 -17.463  1.00  0.00    -0.280 N 
HETATM   26  C8  UNL     1     -29.681  20.949 -18.404  1.00  0.00     0.146 A 
ATOM     27  H4  UNL     1     -31.260  19.939 -17.470  1.00  0.00     0.189 HD
HETATM   28  C9  UNL     1     -28.359  21.062 -18.038  1.00  0.00     0.138 A 
HETATM   29  N6  UNL     1     -27.142  21.579 -18.349  1.00  0.00    -0.277 N 
HETATM   30  C10 UNL     1     -28.222  20.342 -16.856  1.00  0.00     0.167 A 
HETATM   31  N7  UNL     1     -26.288  21.200 -17.405  1.00  0.00    -0.020 NA
ATOM     32  H6  UNL     1     -26.923  22.156 -19.161  1.00  0.00     0.184 HD
HETATM   33  N8  UNL     1     -26.927  20.456 -16.503  1.00  0.00    -0.266 N 
ATOM     34  H8  UNL     1     -26.502  20.037 -15.676  1.00  0.00     0.186 HD
BRANCH  26  35
HETATM   35  N5  UNL     1     -30.209  21.490 -19.467  1.00  0.00    -0.382 N 
ATOM     36  H52 UNL     1     -29.968  21.244 -20.427  1.00  0.00     0.157 HD
ATOM     37  H51 UNL     1     -30.920  22.219 -19.526  1.00  0.00     0.157 HD
ENDBRANCH  26  35
ENDBRANCH  23  24
ENDBRANCH  20  23
ENDBRANCH   1  20
TORSDOF 10
ENDMDL
