MODEL 1
REMARK VINA RESULT: -5.574876999      0.000      0.000
REMARK  1 active torsions:
REMARK  status: ('A' for Active; 'I' for Inactive)
REMARK    1  A    between atoms: C1_4  and  N2_5 
ROOT
HETATM    1  N2  UNL     1      48.210 -27.040 -95.404  1.00  0.00    -0.372 N 
HETATM    2  C2  UNL     1      49.678 -27.124 -95.315  1.00  0.00     0.128 C 
HETATM    3  C3  UNL     1      50.047 -28.433 -95.956  1.00  0.00     0.005 C 
HETATM    4  C4  UNL     1      49.717 -29.544 -94.995  1.00  0.00     0.008 C 
HETATM    5  C5  UNL     1      48.218 -29.338 -94.808  1.00  0.00     0.026 C 
HETATM    6  C6  UNL     1      47.794 -28.334 -95.864  1.00  0.00     0.085 C 
HETATM    7  C7  UNL     1      48.869 -28.607 -96.932  1.00  0.00     0.031 C 
ENDROOT
BRANCH   1   8
HETATM    8  C1  UNL     1      47.426 -25.915 -95.095  1.00  0.00     0.171 C 
HETATM    9  N1  UNL     1      47.487 -25.291 -93.995  1.00  0.00    -0.395 N 
ATOM     10  H12 UNL     1      48.151 -25.638 -93.303  1.00  0.00     0.156 HD
ATOM     11  H11 UNL     1      46.918 -24.474 -93.772  1.00  0.00     0.156 HD
ENDBRANCH   1   8
TORSDOF 1
ENDMDL
MODEL 2
REMARK VINA RESULT: -5.311387854      1.154      1.356
REMARK  1 active torsions:
REMARK  status: ('A' for Active; 'I' for Inactive)
REMARK    1  A    between atoms: C1_4  and  N2_5 
ROOT
HETATM    1  N2  UNL     1      47.922 -27.237 -95.998  1.00  0.00    -0.372 N 
HETATM    2  C2  UNL     1      49.185 -26.987 -95.282  1.00  0.00     0.128 C 
HETATM    3  C3  UNL     1      50.097 -28.119 -95.667  1.00  0.00     0.005 C 
HETATM    4  C4  UNL     1      49.672 -29.352 -94.915  1.00  0.00     0.008 C 
HETATM    5  C5  UNL     1      48.235 -29.512 -95.398  1.00  0.00     0.026 C 
HETATM    6  C6  UNL     1      48.069 -28.549 -96.559  1.00  0.00     0.085 C 
HETATM    7  C7  UNL     1      49.526 -28.479 -97.051  1.00  0.00     0.031 C 
ENDROOT
BRANCH   1   8
HETATM    8  C1  UNL     1      46.833 -26.352 -96.087  1.00  0.00     0.171 C 
HETATM    9  N1  UNL     1      46.001 -26.349 -97.042  1.00  0.00    -0.395 N 
ATOM     10  H12 UNL     1      46.143 -27.036 -97.782  1.00  0.00     0.156 HD
ATOM     11  H11 UNL     1      45.211 -25.706 -97.106  1.00  0.00     0.156 HD
ENDBRANCH   1   8
TORSDOF 1
ENDMDL
MODEL 3
REMARK VINA RESULT: -5.260403400      0.970      1.874
REMARK  1 active torsions:
REMARK  status: ('A' for Active; 'I' for Inactive)
REMARK    1  A    between atoms: C1_4  and  N2_5 
ROOT
HETATM    1  N2  UNL     1      47.515 -26.670 -95.707  1.00  0.00    -0.372 N 
HETATM    2  C2  UNL     1      47.408 -27.552 -96.883  1.00  0.00     0.128 C 
HETATM    3  C3  UNL     1      48.138 -28.812 -96.511  1.00  0.00     0.005 C 
HETATM    4  C4  UNL     1      49.618 -28.546 -96.585  1.00  0.00     0.008 C 
HETATM    5  C5  UNL     1      49.766 -27.413 -95.575  1.00  0.00     0.026 C 
HETATM    6  C6  UNL     1      48.444 -27.331 -94.835  1.00  0.00     0.085 C 
HETATM    7  C7  UNL     1      47.971 -28.788 -94.979  1.00  0.00     0.031 C 
ENDROOT
BRANCH   1   8
HETATM    8  C1  UNL     1      46.836 -25.454 -95.521  1.00  0.00     0.171 C 
HETATM    9  N1  UNL     1      47.046 -24.668 -94.550  1.00  0.00    -0.395 N 
ATOM     10  H12 UNL     1      47.753 -24.950 -93.872  1.00  0.00     0.156 HD
ATOM     11  H11 UNL     1      46.553 -23.785 -94.415  1.00  0.00     0.156 HD
ENDBRANCH   1   8
TORSDOF 1
ENDMDL
MODEL 4
REMARK VINA RESULT: -5.179014969      1.055      2.193
REMARK  1 active torsions:
REMARK  status: ('A' for Active; 'I' for Inactive)
REMARK    1  A    between atoms: C1_4  and  N2_5 
ROOT
HETATM    1  N2  UNL     1      49.170 -27.047 -95.234  1.00  0.00    -0.372 N 
HETATM    2  C2  UNL     1      47.836 -27.084 -95.859  1.00  0.00     0.128 C 
HETATM    3  C3  UNL     1      47.654 -28.498 -96.339  1.00  0.00     0.005 C 
HETATM    4  C4  UNL     1      48.473 -28.687 -97.588  1.00  0.00     0.008 C 
HETATM    5  C5  UNL     1      49.874 -28.375 -97.072  1.00  0.00     0.026 C 
HETATM    6  C6  UNL     1      49.764 -28.312 -95.560  1.00  0.00     0.085 C 
HETATM    7  C7  UNL     1      48.561 -29.248 -95.346  1.00  0.00     0.031 C 
ENDROOT
BRANCH   1   8
HETATM    8  C1  UNL     1      49.705 -25.983 -94.488  1.00  0.00     0.171 C 
HETATM    9  N1  UNL     1      49.012 -25.211 -93.762  1.00  0.00    -0.395 N 
ATOM     10  H12 UNL     1      48.008 -25.386 -93.727  1.00  0.00     0.156 HD
ATOM     11  H11 UNL     1      49.400 -24.438 -93.220  1.00  0.00     0.156 HD
ENDBRANCH   1   8
TORSDOF 1
ENDMDL
MODEL 5
REMARK VINA RESULT: -5.091204073      1.687      2.483
REMARK  1 active torsions:
REMARK  status: ('A' for Active; 'I' for Inactive)
REMARK    1  A    between atoms: C1_4  and  N2_5 
ROOT
HETATM    1  N2  UNL     1      47.189 -27.290 -96.455  1.00  0.00    -0.372 N 
HETATM    2  C2  UNL     1      47.883 -28.402 -97.129  1.00  0.00     0.128 C 
HETATM    3  C3  UNL     1      48.652 -29.112 -96.050  1.00  0.00     0.005 C 
HETATM    4  C4  UNL     1      49.864 -28.289 -95.708  1.00  0.00     0.008 C 
HETATM    5  C5  UNL     1      49.218 -26.982 -95.261  1.00  0.00     0.026 C 
HETATM    6  C6  UNL     1      47.734 -27.268 -95.127  1.00  0.00     0.085 C 
HETATM    7  C7  UNL     1      47.784 -28.776 -94.823  1.00  0.00     0.031 C 
ENDROOT
BRANCH   1   8
HETATM    8  C1  UNL     1      46.212 -26.457 -97.026  1.00  0.00     0.171 C 
HETATM    9  N1  UNL     1      46.116 -26.228 -98.268  1.00  0.00    -0.395 N 
ATOM     10  H12 UNL     1      46.797 -26.683 -98.876  1.00  0.00     0.156 HD
ATOM     11  H11 UNL     1      45.407 -25.623 -98.682  1.00  0.00     0.156 HD
ENDBRANCH   1   8
TORSDOF 1
ENDMDL
