MODEL 1
REMARK VINA RESULT: -7.887069561      0.000      0.000
REMARK  3 active torsions:
REMARK  status: ('A' for Active; 'I' for Inactive)
REMARK    1  A    between atoms: C2_2  and  C3_3 
REMARK    2  A    between atoms: C9_9  and  C10_10 
REMARK    3  A    between atoms: C10_10  and  C11_11 
ROOT
HETATM    1  C3  UNL     1      47.515 -28.600 -94.957  1.00  0.00    -0.006 C 
HETATM    2  C4  UNL     1      47.813 -27.428 -94.068  1.00  0.00     0.038 C 
HETATM    3  C5  UNL     1      48.876 -26.532 -94.490  1.00  0.00    -0.087 C 
HETATM    4  C6  UNL     1      48.822 -25.066 -94.144  1.00  0.00     0.043 C 
HETATM    5  C7  UNL     1      49.909 -26.997 -95.187  1.00  0.00    -0.024 C 
HETATM    6  C8  UNL     1      49.891 -28.436 -95.485  1.00  0.00     0.033 C 
HETATM    7  C9  UNL     1      48.552 -28.955 -95.945  1.00  0.00     0.003 C 
ENDROOT
BRANCH   7   8
HETATM    8  C10 UNL     1      48.222 -28.729 -97.377  1.00  0.00    -0.011 C 
HETATM    9  C13 UNL     1      47.524 -30.013 -97.863  1.00  0.00     0.039 C 
HETATM   10  C14 UNL     1      46.363 -29.569 -98.712  1.00  0.00     0.233 C 
HETATM   11  N1  UNL     1      46.443 -28.160 -98.832  1.00  0.00    -0.074 N 
HETATM   12  C15 UNL     1      47.285 -27.673 -97.747  1.00  0.00     0.242 C 
ATOM     13  H12 UNL     1      46.765 -27.857 -99.751  1.00  0.00     0.277 HD
ATOM     14  H11 UNL     1      45.527 -27.711 -98.855  1.00  0.00     0.277 HD
BRANCH   8  15
HETATM   15  C11 UNL     1      49.497 -28.658 -98.193  1.00  0.00     0.007 C 
HETATM   16  C12 UNL     1      49.502 -29.616 -99.360  1.00  0.00     0.006 C 
ENDBRANCH   8  15
ENDBRANCH   7   8
BRANCH   1  17
HETATM   17  C2  UNL     1      47.268 -29.771 -93.993  1.00  0.00     0.001 C 
HETATM   18  C1  UNL     1      47.869 -31.045 -94.498  1.00  0.00     0.005 C 
ENDBRANCH   1  17
TORSDOF 3
ENDMDL
MODEL 2
REMARK VINA RESULT: -7.754643261      1.915      4.571
REMARK  3 active torsions:
REMARK  status: ('A' for Active; 'I' for Inactive)
REMARK    1  A    between atoms: C2_2  and  C3_3 
REMARK    2  A    between atoms: C9_9  and  C10_10 
REMARK    3  A    between atoms: C10_10  and  C11_11 
ROOT
HETATM    1  C3  UNL     1      46.982 -27.848 -96.928  1.00  0.00    -0.006 C 
HETATM    2  C4  UNL     1      46.727 -28.611 -98.195  1.00  0.00     0.038 C 
HETATM    3  C5  UNL     1      47.777 -29.504 -98.652  1.00  0.00    -0.087 C 
HETATM    4  C6  UNL     1      47.435 -30.760 -99.415  1.00  0.00     0.043 C 
HETATM    5  C7  UNL     1      49.053 -29.224 -98.403  1.00  0.00    -0.024 C 
HETATM    6  C8  UNL     1      49.307 -27.984 -97.656  1.00  0.00     0.033 C 
HETATM    7  C9  UNL     1      48.386 -27.772 -96.481  1.00  0.00     0.003 C 
ENDROOT
BRANCH   7   8
HETATM    8  C10 UNL     1      48.737 -28.506 -95.236  1.00  0.00    -0.011 C 
HETATM    9  C13 UNL     1      47.530 -29.406 -94.914  1.00  0.00     0.039 C 
HETATM   10  C14 UNL     1      48.093 -30.737 -94.494  1.00  0.00     0.233 C 
HETATM   11  N1  UNL     1      49.503 -30.600 -94.439  1.00  0.00    -0.074 N 
HETATM   12  C15 UNL     1      49.863 -29.435 -95.237  1.00  0.00     0.242 C 
ATOM     13  H12 UNL     1      49.860 -30.553 -93.484  1.00  0.00     0.277 HD
ATOM     14  H11 UNL     1      49.995 -31.445 -94.726  1.00  0.00     0.277 HD
BRANCH   8  15
HETATM   15  C11 UNL     1      48.811 -27.538 -94.072  1.00  0.00     0.007 C 
HETATM   16  C12 UNL     1      49.688 -26.342 -94.358  1.00  0.00     0.006 C 
ENDBRANCH   8  15
ENDBRANCH   7   8
BRANCH   1  17
HETATM   17  C2  UNL     1      46.426 -26.442 -97.197  1.00  0.00     0.001 C 
HETATM   18  C1  UNL     1      46.555 -25.553 -96.000  1.00  0.00     0.005 C 
ENDBRANCH   1  17
TORSDOF 3
ENDMDL
MODEL 3
REMARK VINA RESULT: -7.701011693      0.685      1.745
REMARK  3 active torsions:
REMARK  status: ('A' for Active; 'I' for Inactive)
REMARK    1  A    between atoms: C2_2  and  C3_3 
REMARK    2  A    between atoms: C9_9  and  C10_10 
REMARK    3  A    between atoms: C10_10  and  C11_11 
ROOT
HETATM    1  C3  UNL     1      47.508 -28.658 -94.962  1.00  0.00    -0.006 C 
HETATM    2  C4  UNL     1      47.834 -27.492 -94.076  1.00  0.00     0.038 C 
HETATM    3  C5  UNL     1      48.902 -26.608 -94.511  1.00  0.00    -0.087 C 
HETATM    4  C6  UNL     1      48.871 -25.141 -94.162  1.00  0.00     0.043 C 
HETATM    5  C7  UNL     1      49.919 -27.084 -95.222  1.00  0.00    -0.024 C 
HETATM    6  C8  UNL     1      49.879 -28.522 -95.523  1.00  0.00     0.033 C 
HETATM    7  C9  UNL     1      48.527 -29.024 -95.965  1.00  0.00     0.003 C 
ENDROOT
BRANCH   7   8
HETATM    8  C10 UNL     1      48.180 -28.792 -97.392  1.00  0.00    -0.011 C 
HETATM    9  C13 UNL     1      49.514 -28.782 -98.161  1.00  0.00     0.039 C 
HETATM   10  C14 UNL     1      49.282 -29.569 -99.423  1.00  0.00     0.233 C 
HETATM   11  N1  UNL     1      47.905 -29.900 -99.466  1.00  0.00    -0.074 N 
HETATM   12  C15 UNL     1      47.380 -29.777 -98.112  1.00  0.00     0.242 C 
ATOM     13  H12 UNL     1      47.385 -29.344-100.145  1.00  0.00     0.277 HD
ATOM     14  H11 UNL     1      47.729 -30.816 -99.878  1.00  0.00     0.277 HD
BRANCH   8  15
HETATM   15  C11 UNL     1      47.631 -27.390 -97.566  1.00  0.00     0.007 C 
HETATM   16  C12 UNL     1      46.152 -27.373 -97.873  1.00  0.00     0.006 C 
ENDBRANCH   8  15
ENDBRANCH   7   8
BRANCH   1  17
HETATM   17  C2  UNL     1      47.260 -29.827 -93.997  1.00  0.00     0.001 C 
HETATM   18  C1  UNL     1      47.809 -31.115 -94.527  1.00  0.00     0.005 C 
ENDBRANCH   1  17
TORSDOF 3
ENDMDL
MODEL 4
REMARK VINA RESULT: -7.673889712      1.343      3.378
REMARK  3 active torsions:
REMARK  status: ('A' for Active; 'I' for Inactive)
REMARK    1  A    between atoms: C2_2  and  C3_3 
REMARK    2  A    between atoms: C9_9  and  C10_10 
REMARK    3  A    between atoms: C10_10  and  C11_11 
ROOT
HETATM    1  C3  UNL     1      48.677 -27.289 -95.413  1.00  0.00    -0.006 C 
HETATM    2  C4  UNL     1      49.548 -28.118 -94.515  1.00  0.00     0.038 C 
HETATM    3  C5  UNL     1      49.272 -29.543 -94.457  1.00  0.00    -0.087 C 
HETATM    4  C6  UNL     1      50.387 -30.528 -94.209  1.00  0.00     0.043 C 
HETATM    5  C7  UNL     1      48.033 -29.994 -94.622  1.00  0.00    -0.024 C 
HETATM    6  C8  UNL     1      47.001 -28.974 -94.859  1.00  0.00     0.033 C 
HETATM    7  C9  UNL     1      47.405 -27.904 -95.841  1.00  0.00     0.003 C 
ENDROOT
BRANCH   7   8
HETATM    8  C10 UNL     1      47.280 -28.258 -97.280  1.00  0.00    -0.011 C 
HETATM    9  C13 UNL     1      48.714 -28.285 -97.841  1.00  0.00     0.039 C 
HETATM   10  C14 UNL     1      48.799 -29.495 -98.731  1.00  0.00     0.233 C 
HETATM   11  N1  UNL     1      47.501 -30.059 -98.801  1.00  0.00    -0.074 N 
HETATM   12  C15 UNL     1      46.742 -29.560 -97.661  1.00  0.00     0.242 C 
ATOM     13  H12 UNL     1      47.039 -29.882 -99.693  1.00  0.00     0.277 HD
ATOM     14  H11 UNL     1      47.513 -31.077 -98.854  1.00  0.00     0.277 HD
BRANCH   8  15
HETATM   15  C11 UNL     1      46.599 -27.131 -98.030  1.00  0.00     0.007 C 
HETATM   16  C12 UNL     1      46.029 -26.075 -97.112  1.00  0.00     0.006 C 
ENDBRANCH   8  15
ENDBRANCH   7   8
BRANCH   1  17
HETATM   17  C2  UNL     1      48.411 -26.000 -94.621  1.00  0.00     0.001 C 
HETATM   18  C1  UNL     1      49.608 -25.575 -93.829  1.00  0.00     0.005 C 
ENDBRANCH   1  17
TORSDOF 3
ENDMDL
MODEL 5
REMARK VINA RESULT: -7.671897403      1.962      4.422
REMARK  3 active torsions:
REMARK  status: ('A' for Active; 'I' for Inactive)
REMARK    1  A    between atoms: C2_2  and  C3_3 
REMARK    2  A    between atoms: C9_9  and  C10_10 
REMARK    3  A    between atoms: C10_10  and  C11_11 
ROOT
HETATM    1  C3  UNL     1      47.189 -28.152 -97.258  1.00  0.00    -0.006 C 
HETATM    2  C4  UNL     1      47.453 -28.620 -98.659  1.00  0.00     0.038 C 
HETATM    3  C5  UNL     1      48.738 -29.246 -98.917  1.00  0.00    -0.087 C 
HETATM    4  C6  UNL     1      48.869 -30.319 -99.968  1.00  0.00     0.043 C 
HETATM    5  C7  UNL     1      49.814 -28.879 -98.227  1.00  0.00    -0.024 C 
HETATM    6  C8  UNL     1      49.607 -27.828 -97.220  1.00  0.00     0.033 C 
HETATM    7  C9  UNL     1      48.368 -28.012 -96.381  1.00  0.00     0.003 C 
ENDROOT
BRANCH   7   8
HETATM    8  C10 UNL     1      48.483 -28.969 -95.250  1.00  0.00    -0.011 C 
HETATM    9  C13 UNL     1      47.522 -28.461 -94.158  1.00  0.00     0.039 C 
HETATM   10  C14 UNL     1      46.819 -29.674 -93.613  1.00  0.00     0.233 C 
HETATM   11  N1  UNL     1      47.403 -30.811 -94.225  1.00  0.00    -0.074 N 
HETATM   12  C15 UNL     1      48.080 -30.360 -95.434  1.00  0.00     0.242 C 
ATOM     13  H12 UNL     1      48.016 -31.329 -93.596  1.00  0.00     0.277 HD
ATOM     14  H11 UNL     1      46.730 -31.556 -94.402  1.00  0.00     0.277 HD
BRANCH   8  15
HETATM   15  C11 UNL     1      49.859 -28.864 -94.625  1.00  0.00     0.007 C 
HETATM   16  C12 UNL     1      50.543 -30.203 -94.482  1.00  0.00     0.006 C 
ENDBRANCH   8  15
ENDBRANCH   7   8
BRANCH   1  17
HETATM   17  C2  UNL     1      46.478 -26.800 -97.423  1.00  0.00     0.001 C 
HETATM   18  C1  UNL     1      46.494 -26.003 -96.155  1.00  0.00     0.005 C 
ENDBRANCH   1  17
TORSDOF 3
ENDMDL
