MODEL 1
REMARK VINA RESULT: -6.939256765      0.000      0.000
REMARK  4 active torsions:
REMARK  status: ('A' for Active; 'I' for Inactive)
REMARK    1  A    between atoms: C1_2  and  N1_3 
REMARK    2  A    between atoms: C1_2  and  N2_10 
REMARK    3  A    between atoms: N1_3  and  C2_5 
REMARK    4  A    between atoms: N2_10  and  C6_12 
ROOT
HETATM    1  S1  UNL     1      49.992 -30.155 -94.433  1.00  0.00    -0.041 SA
HETATM    2  C1  UNL     1      50.029 -28.707 -95.266  1.00  0.00     0.172 C 
ENDROOT
BRANCH   2   3
HETATM    3  N1  UNL     1      50.282 -28.780 -96.605  1.00  0.00    -0.328 N 
ATOM      4  H1  UNL     1      51.246 -28.606 -96.886  1.00  0.00     0.169 HD
BRANCH   3   5
HETATM    5  C2  UNL     1      49.380 -29.067 -97.648  1.00  0.00     0.075 A 
HETATM    6  C3  UNL     1      49.691 -29.285 -98.993  1.00  0.00     0.038 A 
HETATM    7  C4  UNL     1      48.663 -29.542 -99.816  1.00  0.00     0.010 A 
HETATM    8  C5  UNL     1      47.410 -29.574 -99.305  1.00  0.00     0.052 A 
HETATM    9  S2  UNL     1      47.682 -29.242 -97.665  1.00  0.00    -0.084 SA
ENDBRANCH   3   5
ENDBRANCH   2   3
BRANCH   2  10
HETATM   10  N2  UNL     1      49.786 -27.564 -94.510  1.00  0.00    -0.362 N 
ATOM     11  H2  UNL     1      50.268 -27.520 -93.613  1.00  0.00     0.162 HD
BRANCH  10  12
HETATM   12  C6  UNL     1      48.952 -26.442 -94.820  1.00  0.00     0.083 C 
HETATM   13  C7  UNL     1      49.236 -25.232 -94.006  1.00  0.00     0.025 C 
HETATM   14  C8  UNL     1      48.426 -24.049 -94.507  1.00  0.00     0.002 C 
HETATM   15  C9  UNL     1      47.000 -24.370 -94.793  1.00  0.00     0.000 C 
HETATM   16  C10 UNL     1      46.788 -25.662 -95.552  1.00  0.00     0.002 C 
HETATM   17  C11 UNL     1      47.465 -26.759 -94.711  1.00  0.00     0.025 C 
ENDBRANCH  10  12
ENDBRANCH   2  10
TORSDOF 4
ENDMDL
MODEL 2
REMARK VINA RESULT: -6.869285565      1.852      5.501
REMARK  4 active torsions:
REMARK  status: ('A' for Active; 'I' for Inactive)
REMARK    1  A    between atoms: C1_2  and  N1_3 
REMARK    2  A    between atoms: C1_2  and  N2_10 
REMARK    3  A    between atoms: N1_3  and  C2_5 
REMARK    4  A    between atoms: N2_10  and  C6_12 
ROOT
HETATM    1  S1  UNL     1      48.195 -30.476 -94.643  1.00  0.00    -0.041 SA
HETATM    2  C1  UNL     1      47.565 -28.999 -95.104  1.00  0.00     0.172 C 
ENDROOT
BRANCH   2   3
HETATM    3  N1  UNL     1      47.571 -28.013 -94.162  1.00  0.00    -0.328 N 
ATOM      4  H1  UNL     1      47.385 -28.310 -93.204  1.00  0.00     0.169 HD
BRANCH   3   5
HETATM    5  C2  UNL     1      47.801 -26.635 -94.343  1.00  0.00     0.075 A 
HETATM    6  C3  UNL     1      46.907 -25.693 -94.860  1.00  0.00     0.038 A 
HETATM    7  C4  UNL     1      47.345 -24.427 -94.943  1.00  0.00     0.010 A 
HETATM    8  C5  UNL     1      48.602 -24.143 -94.529  1.00  0.00     0.052 A 
HETATM    9  S2  UNL     1      49.166 -25.660 -94.023  1.00  0.00    -0.084 SA
ENDBRANCH   3   5
ENDBRANCH   2   3
BRANCH   2  10
HETATM   10  N2  UNL     1      47.104 -28.917 -96.414  1.00  0.00    -0.362 N 
ATOM     11  H2  UNL     1      46.220 -28.426 -96.539  1.00  0.00     0.162 HD
BRANCH  10  12
HETATM   12  C6  UNL     1      47.701 -29.429 -97.611  1.00  0.00     0.083 C 
HETATM   13  C7  UNL     1      48.932 -28.710 -98.030  1.00  0.00     0.025 C 
HETATM   14  C8  UNL     1      49.588 -29.415 -99.205  1.00  0.00     0.002 C 
HETATM   15  C9  UNL     1      48.634 -29.831-100.271  1.00  0.00     0.000 C 
HETATM   16  C10 UNL     1      47.366 -30.479 -99.758  1.00  0.00     0.002 C 
HETATM   17  C11 UNL     1      46.737 -29.463 -98.790  1.00  0.00     0.025 C 
ENDBRANCH  10  12
ENDBRANCH   2  10
TORSDOF 4
ENDMDL
MODEL 3
REMARK VINA RESULT: -6.825037537      1.564      5.269
REMARK  4 active torsions:
REMARK  status: ('A' for Active; 'I' for Inactive)
REMARK    1  A    between atoms: C1_2  and  N1_3 
REMARK    2  A    between atoms: C1_2  and  N2_10 
REMARK    3  A    between atoms: N1_3  and  C2_5 
REMARK    4  A    between atoms: N2_10  and  C6_12 
ROOT
HETATM    1  S1  UNL     1      49.835 -30.023 -94.376  1.00  0.00    -0.041 SA
HETATM    2  C1  UNL     1      49.008 -28.892 -95.286  1.00  0.00     0.172 C 
ENDROOT
BRANCH   2   3
HETATM    3  N1  UNL     1      48.005 -28.217 -94.655  1.00  0.00    -0.328 N 
ATOM      4  H1  UNL     1      47.425 -28.769 -94.024  1.00  0.00     0.169 HD
BRANCH   3   5
HETATM    5  C2  UNL     1      47.669 -26.853 -94.765  1.00  0.00     0.075 A 
HETATM    6  C3  UNL     1      46.859 -26.262 -95.739  1.00  0.00     0.038 A 
HETATM    7  C4  UNL     1      46.675 -24.936 -95.647  1.00  0.00     0.010 A 
HETATM    8  C5  UNL     1      47.273 -24.263 -94.636  1.00  0.00     0.052 A 
HETATM    9  S2  UNL     1      48.094 -25.499 -93.816  1.00  0.00    -0.084 SA
ENDBRANCH   3   5
ENDBRANCH   2   3
BRANCH   2  10
HETATM   10  N2  UNL     1      49.434 -28.743 -96.602  1.00  0.00    -0.362 N 
ATOM     11  H2  UNL     1      50.221 -28.110 -96.740  1.00  0.00     0.162 HD
BRANCH  10  12
HETATM   12  C6  UNL     1      48.919 -29.357 -97.789  1.00  0.00     0.083 C 
HETATM   13  C7  UNL     1      49.765 -29.154 -98.993  1.00  0.00     0.025 C 
HETATM   14  C8  UNL     1      49.236 -29.969-100.160  1.00  0.00     0.002 C 
HETATM   15  C9  UNL     1      47.759 -29.891-100.334  1.00  0.00     0.000 C 
HETATM   16  C10 UNL     1      46.970 -30.021 -99.048  1.00  0.00     0.002 C 
HETATM   17  C11 UNL     1      47.498 -28.916 -98.117  1.00  0.00     0.025 C 
ENDBRANCH  10  12
ENDBRANCH   2  10
TORSDOF 4
ENDMDL
MODEL 4
REMARK VINA RESULT: -6.809446141      1.546      2.194
REMARK  4 active torsions:
REMARK  status: ('A' for Active; 'I' for Inactive)
REMARK    1  A    between atoms: C1_2  and  N1_3 
REMARK    2  A    between atoms: C1_2  and  N2_10 
REMARK    3  A    between atoms: N1_3  and  C2_5 
REMARK    4  A    between atoms: N2_10  and  C6_12 
ROOT
HETATM    1  S1  UNL     1      48.285 -30.502 -94.646  1.00  0.00    -0.041 SA
HETATM    2  C1  UNL     1      47.452 -29.231 -95.339  1.00  0.00     0.172 C 
ENDROOT
BRANCH   2   3
HETATM    3  N1  UNL     1      47.270 -29.284 -96.689  1.00  0.00    -0.328 N 
ATOM      4  H1  UNL     1      46.306 -29.379 -97.005  1.00  0.00     0.169 HD
BRANCH   3   5
HETATM    5  C2  UNL     1      48.246 -29.224 -97.703  1.00  0.00     0.075 A 
HETATM    6  C3  UNL     1      49.548 -28.727 -97.591  1.00  0.00     0.038 A 
HETATM    7  C4  UNL     1      50.308 -28.769 -98.696  1.00  0.00     0.010 A 
HETATM    8  C5  UNL     1      49.779 -29.281 -99.831  1.00  0.00     0.052 A 
HETATM    9  S2  UNL     1      48.212 -29.702 -99.342  1.00  0.00    -0.084 SA
ENDBRANCH   3   5
ENDBRANCH   2   3
BRANCH   2  10
HETATM   10  N2  UNL     1      47.014 -28.242 -94.462  1.00  0.00    -0.362 N 
ATOM     11  H2  UNL     1      46.230 -28.500 -93.865  1.00  0.00     0.162 HD
BRANCH  10  12
HETATM   12  C6  UNL     1      47.516 -26.912 -94.284  1.00  0.00     0.083 C 
HETATM   13  C7  UNL     1      46.859 -25.897 -95.147  1.00  0.00     0.025 C 
HETATM   14  C8  UNL     1      47.331 -24.500 -94.781  1.00  0.00     0.002 C 
HETATM   15  C9  UNL     1      48.803 -24.390 -94.583  1.00  0.00     0.000 C 
HETATM   16  C10 UNL     1      49.410 -25.509 -93.764  1.00  0.00     0.002 C 
HETATM   17  C11 UNL     1      49.023 -26.814 -94.484  1.00  0.00     0.025 C 
ENDBRANCH  10  12
ENDBRANCH   2  10
TORSDOF 4
ENDMDL
MODEL 5
REMARK VINA RESULT: -6.717674417      1.566      2.224
REMARK  4 active torsions:
REMARK  status: ('A' for Active; 'I' for Inactive)
REMARK    1  A    between atoms: C1_2  and  N1_3 
REMARK    2  A    between atoms: C1_2  and  N2_10 
REMARK    3  A    between atoms: N1_3  and  C2_5 
REMARK    4  A    between atoms: N2_10  and  C6_12 
ROOT
HETATM    1  S1  UNL     1      48.208 -30.451 -94.937  1.00  0.00    -0.041 SA
HETATM    2  C1  UNL     1      47.331 -29.115 -95.423  1.00  0.00     0.172 C 
ENDROOT
BRANCH   2   3
HETATM    3  N1  UNL     1      46.978 -29.063 -96.739  1.00  0.00    -0.328 N 
ATOM      4  H1  UNL     1      46.008 -28.814 -96.931  1.00  0.00     0.169 HD
BRANCH   3   5
HETATM    5  C2  UNL     1      47.785 -29.308 -97.868  1.00  0.00     0.075 A 
HETATM    6  C3  UNL     1      47.430 -30.023 -99.016  1.00  0.00     0.038 A 
HETATM    7  C4  UNL     1      48.365 -30.132 -99.972  1.00  0.00     0.010 A 
HETATM    8  C5  UNL     1      49.573 -29.555 -99.772  1.00  0.00     0.052 A 
HETATM    9  S2  UNL     1      49.390 -28.859 -98.237  1.00  0.00    -0.084 SA
ENDBRANCH   3   5
ENDBRANCH   2   3
BRANCH   2  10
HETATM   10  N2  UNL     1      47.036 -28.187 -94.428  1.00  0.00    -0.362 N 
ATOM     11  H2  UNL     1      46.374 -28.499 -93.719  1.00  0.00     0.162 HD
BRANCH  10  12
HETATM   12  C6  UNL     1      47.536 -26.855 -94.266  1.00  0.00     0.083 C 
HETATM   13  C7  UNL     1      46.861 -25.846 -95.122  1.00  0.00     0.025 C 
HETATM   14  C8  UNL     1      47.334 -24.446 -94.770  1.00  0.00     0.002 C 
HETATM   15  C9  UNL     1      48.809 -24.330 -94.599  1.00  0.00     0.000 C 
HETATM   16  C10 UNL     1      49.434 -25.443 -93.786  1.00  0.00     0.002 C 
HETATM   17  C11 UNL     1      49.039 -26.752 -94.492  1.00  0.00     0.025 C 
ENDBRANCH  10  12
ENDBRANCH   2  10
TORSDOF 4
ENDMDL
