MODEL 1
REMARK VINA RESULT: -8.459085908      0.000      0.000
REMARK  1 active torsions:
REMARK  status: ('A' for Active; 'I' for Inactive)
REMARK    1  A    between atoms: C2_3  and  C3_4 
ROOT
HETATM    1  C1  UNL     1      49.108 -26.728 -94.204  1.00  0.00     0.175 C 
HETATM    2  N1  UNL     1      47.965 -26.502 -95.104  1.00  0.00    -0.186 N 
HETATM    3  C2  UNL     1      47.648 -27.342 -96.109  1.00  0.00     0.069 A 
HETATM    4  C12 UNL     1      46.532 -26.789 -96.710  1.00  0.00     0.136 A 
HETATM    5  N2  UNL     1      46.256 -25.664 -96.034  1.00  0.00    -0.200 N 
ATOM      6  H2  UNL     1      45.479 -25.038 -96.249  1.00  0.00     0.183 HD
HETATM    7  C13 UNL     1      47.131 -25.470 -95.037  1.00  0.00     0.678 A 
HETATM    8  N3  UNL     1      47.185 -24.509 -94.181  1.00  0.00    -0.234 N 
ATOM      9  H31 UNL     1      46.544 -23.717 -94.130  1.00  0.00     0.174 HD
ATOM     10  H32 UNL     1      47.851 -24.361 -93.423  1.00  0.00     0.174 HD
ENDROOT
BRANCH   3  11
HETATM   11  C3  UNL     1      48.350 -28.615 -96.520  1.00  0.00    -0.051 C 
HETATM   12  C4  UNL     1      47.333 -29.579 -96.979  1.00  0.00     0.036 C 
HETATM   13  C5  UNL     1      46.603 -29.341 -98.242  1.00  0.00     0.004 C 
HETATM   14  C6  UNL     1      47.014 -30.412 -99.248  1.00  0.00     0.000 C 
HETATM   15  C7  UNL     1      47.727 -29.852-100.432  1.00  0.00     0.000 C 
HETATM   16  C8  UNL     1      49.188 -30.150-100.456  1.00  0.00     0.000 C 
HETATM   17  C9  UNL     1      49.893 -29.933 -99.159  1.00  0.00     0.000 C 
HETATM   18  C10 UNL     1      49.676 -28.495 -98.700  1.00  0.00     0.004 C 
HETATM   19  C11 UNL     1      49.590 -28.374 -97.225  1.00  0.00     0.036 C 
ENDBRANCH   3  11
TORSDOF 1
ENDMDL
MODEL 2
REMARK VINA RESULT: -8.190050227      2.756      5.705
REMARK  1 active torsions:
REMARK  status: ('A' for Active; 'I' for Inactive)
REMARK    1  A    between atoms: C2_3  and  C3_4 
ROOT
HETATM    1  C1  UNL     1      46.938 -30.180 -99.335  1.00  0.00     0.175 C 
HETATM    2  N1  UNL     1      48.266 -29.563 -99.193  1.00  0.00    -0.186 N 
HETATM    3  C2  UNL     1      48.687 -28.988 -98.049  1.00  0.00     0.069 A 
HETATM    4  C12 UNL     1      49.967 -28.534 -98.317  1.00  0.00     0.136 A 
HETATM    5  N2  UNL     1      50.227 -28.864 -99.591  1.00  0.00    -0.200 N 
ATOM      6  H2  UNL     1      51.102 -28.657-100.073  1.00  0.00     0.183 HD
HETATM    7  C13 UNL     1      49.187 -29.501-100.149  1.00  0.00     0.678 A 
HETATM    8  N3  UNL     1      49.068 -29.965-101.345  1.00  0.00    -0.234 N 
ATOM      9  H31 UNL     1      49.775 -29.917-102.079  1.00  0.00     0.174 HD
ATOM     10  H32 UNL     1      48.277 -30.449-101.769  1.00  0.00     0.174 HD
ENDROOT
BRANCH   3  11
HETATM   11  C3  UNL     1      47.940 -28.844 -96.744  1.00  0.00    -0.051 C 
HETATM   12  C4  UNL     1      48.925 -28.781 -95.649  1.00  0.00     0.036 C 
HETATM   13  C5  UNL     1      49.799 -27.596 -95.506  1.00  0.00     0.004 C 
HETATM   14  C6  UNL     1      49.417 -26.866 -94.223  1.00  0.00     0.000 C 
HETATM   15  C7  UNL     1      48.874 -25.499 -94.473  1.00  0.00     0.000 C 
HETATM   16  C8  UNL     1      47.406 -25.379 -94.244  1.00  0.00     0.000 C 
HETATM   17  C9  UNL     1      46.587 -26.479 -94.832  1.00  0.00     0.000 C 
HETATM   18  C10 UNL     1      46.861 -26.567 -96.330  1.00  0.00     0.004 C 
HETATM   19  C11 UNL     1      46.802 -27.957 -96.840  1.00  0.00     0.036 C 
ENDBRANCH   3  11
TORSDOF 1
ENDMDL
MODEL 3
REMARK VINA RESULT: -6.961248142      2.729      5.263
REMARK  1 active torsions:
REMARK  status: ('A' for Active; 'I' for Inactive)
REMARK    1  A    between atoms: C2_3  and  C3_4 
ROOT
HETATM    1  C1  UNL     1      49.516 -28.502 -98.204  1.00  0.00     0.175 C 
HETATM    2  N1  UNL     1      48.381 -29.236 -98.786  1.00  0.00    -0.186 N 
HETATM    3  C2  UNL     1      47.231 -29.454 -98.118  1.00  0.00     0.069 A 
HETATM    4  C12 UNL     1      46.429 -30.166 -98.992  1.00  0.00     0.136 A 
HETATM    5  N2  UNL     1      47.143 -30.325-100.116  1.00  0.00    -0.200 N 
ATOM      6  H2  UNL     1      46.809 -30.815-100.947  1.00  0.00     0.183 HD
HETATM    7  C13 UNL     1      48.352 -29.757-100.008  1.00  0.00     0.678 A 
HETATM    8  N3  UNL     1      49.305 -29.705-100.874  1.00  0.00    -0.234 N 
ATOM      9  H31 UNL     1      49.283 -30.105-101.812  1.00  0.00     0.174 HD
ATOM     10  H32 UNL     1      50.225 -29.273-100.791  1.00  0.00     0.174 HD
ENDROOT
BRANCH   3  11
HETATM   11  C3  UNL     1      46.873 -29.036 -96.711  1.00  0.00    -0.051 C 
HETATM   12  C4  UNL     1      47.820 -29.676 -95.780  1.00  0.00     0.036 C 
HETATM   13  C5  UNL     1      49.235 -29.250 -95.755  1.00  0.00     0.004 C 
HETATM   14  C6  UNL     1      49.514 -28.572 -94.417  1.00  0.00     0.000 C 
HETATM   15  C7  UNL     1      49.866 -27.130 -94.561  1.00  0.00     0.000 C 
HETATM   16  C8  UNL     1      48.795 -26.196 -94.107  1.00  0.00     0.000 C 
HETATM   17  C9  UNL     1      47.422 -26.540 -94.578  1.00  0.00     0.000 C 
HETATM   18  C10 UNL     1      47.416 -26.616 -96.102  1.00  0.00     0.004 C 
HETATM   19  C11 UNL     1      46.484 -27.646 -96.617  1.00  0.00     0.036 C 
ENDBRANCH   3  11
TORSDOF 1
ENDMDL
MODEL 4
REMARK VINA RESULT: -6.908240425      0.811      1.703
REMARK  1 active torsions:
REMARK  status: ('A' for Active; 'I' for Inactive)
REMARK    1  A    between atoms: C2_3  and  C3_4 
ROOT
HETATM    1  C1  UNL     1      46.937 -26.876 -97.031  1.00  0.00     0.175 C 
HETATM    2  N1  UNL     1      47.744 -26.703 -95.812  1.00  0.00    -0.186 N 
HETATM    3  C2  UNL     1      48.749 -27.535 -95.477  1.00  0.00     0.069 A 
HETATM    4  C12 UNL     1      49.250 -27.042 -94.285  1.00  0.00     0.136 A 
HETATM    5  N2  UNL     1      48.520 -25.958 -93.987  1.00  0.00    -0.200 N 
ATOM      6  H2  UNL     1      48.658 -25.379 -93.158  1.00  0.00     0.183 HD
HETATM    7  C13 UNL     1      47.583 -25.732 -94.919  1.00  0.00     0.678 A 
HETATM    8  N3  UNL     1      46.703 -24.793 -94.974  1.00  0.00    -0.234 N 
ATOM      9  H31 UNL     1      46.580 -24.048 -94.289  1.00  0.00     0.174 HD
ATOM     10  H32 UNL     1      45.991 -24.622 -95.684  1.00  0.00     0.174 HD
ENDROOT
BRANCH   3  11
HETATM   11  C3  UNL     1      49.239 -28.757 -96.217  1.00  0.00    -0.051 C 
HETATM   12  C4  UNL     1      48.153 -29.755 -96.238  1.00  0.00     0.036 C 
HETATM   13  C5  UNL     1      46.939 -29.510 -97.045  1.00  0.00     0.004 C 
HETATM   14  C6  UNL     1      46.901 -30.525 -98.183  1.00  0.00     0.000 C 
HETATM   15  C7  UNL     1      47.011 -29.892 -99.529  1.00  0.00     0.000 C 
HETATM   16  C8  UNL     1      48.324 -30.116-100.199  1.00  0.00     0.000 C 
HETATM   17  C9  UNL     1      49.517 -29.909 -99.328  1.00  0.00     0.000 C 
HETATM   18  C10 UNL     1      49.479 -28.499 -98.746  1.00  0.00     0.004 C 
HETATM   19  C11 UNL     1      50.040 -28.432 -97.377  1.00  0.00     0.036 C 
ENDBRANCH   3  11
TORSDOF 1
ENDMDL
MODEL 5
REMARK VINA RESULT: -6.669571531      1.495      1.829
REMARK  1 active torsions:
REMARK  status: ('A' for Active; 'I' for Inactive)
REMARK    1  A    between atoms: C2_3  and  C3_4 
ROOT
HETATM    1  C1  UNL     1      47.433 -28.597 -94.017  1.00  0.00     0.175 C 
HETATM    2  N1  UNL     1      48.420 -27.599 -94.460  1.00  0.00    -0.186 N 
HETATM    3  C2  UNL     1      49.298 -27.830 -95.455  1.00  0.00     0.069 A 
HETATM    4  C12 UNL     1      50.040 -26.667 -95.566  1.00  0.00     0.136 A 
HETATM    5  N2  UNL     1      49.563 -25.824 -94.639  1.00  0.00    -0.200 N 
ATOM      6  H2  UNL     1      49.916 -24.880 -94.483  1.00  0.00     0.183 HD
HETATM    7  C13 UNL     1      48.561 -26.382 -93.945  1.00  0.00     0.678 A 
HETATM    8  N3  UNL     1      47.863 -25.882 -92.984  1.00  0.00    -0.234 N 
ATOM      9  H31 UNL     1      47.972 -24.948 -92.589  1.00  0.00     0.174 HD
ATOM     10  H32 UNL     1      47.102 -26.308 -92.456  1.00  0.00     0.174 HD
ENDROOT
BRANCH   3  11
HETATM   11  C3  UNL     1      49.467 -29.083 -96.282  1.00  0.00    -0.051 C 
HETATM   12  C4  UNL     1      48.148 -29.725 -96.428  1.00  0.00     0.036 C 
HETATM   13  C5  UNL     1      47.101 -29.086 -97.254  1.00  0.00     0.004 C 
HETATM   14  C6  UNL     1      46.847 -29.962 -98.477  1.00  0.00     0.000 C 
HETATM   15  C7  UNL     1      47.209 -29.288 -99.758  1.00  0.00     0.000 C 
HETATM   16  C8  UNL     1      48.444 -29.828-100.398  1.00  0.00     0.000 C 
HETATM   17  C9  UNL     1      49.593 -30.034 -99.469  1.00  0.00     0.000 C 
HETATM   18  C10 UNL     1      49.919 -28.718 -98.769  1.00  0.00     0.004 C 
HETATM   19  C11 UNL     1      50.394 -28.915 -97.379  1.00  0.00     0.036 C 
ENDBRANCH   3  11
TORSDOF 1
ENDMDL
