MODEL 1
REMARK VINA RESULT: -9.127115451      0.000      0.000
REMARK  8 active torsions:
REMARK  status: ('A' for Active; 'I' for Inactive)
REMARK    1  A    between atoms: N1_4  and  C4_5 
REMARK    2  A    between atoms: C4_5  and  C5_6 
REMARK    3  A    between atoms: C5_6  and  C6_7 
REMARK    4  A    between atoms: C13_15  and  C14_16 
REMARK    5  A    between atoms: C14_16  and  C15_17 
REMARK       I    between atoms: C15_17  and  N2_19 
REMARK    6  A    between atoms: N2_19  and  C16_21 
REMARK    7  A    between atoms: C16_21  and  C17_22 
REMARK    8  A    between atoms: C17_22  and  C18_23 
ROOT
HETATM    1  C1  UNL     1      49.588 -34.418 -98.775  1.00  0.00     0.033 C 
HETATM    2  C2  UNL     1      49.249 -32.926 -98.897  1.00  0.00     0.091 C 
HETATM    3  C3  UNL     1      50.147 -32.196 -97.935  1.00  0.00     0.150 C 
HETATM    4  N1  UNL     1      49.431 -31.360 -97.017  1.00  0.00    -0.348 N 
HETATM    5  C12 UNL     1      48.108 -30.897 -97.253  1.00  0.00     0.242 C 
HETATM    6  O1  UNL     1      47.550 -30.047 -96.513  1.00  0.00    -0.271 OA
HETATM    7  C13 UNL     1      47.392 -31.451 -98.418  1.00  0.00     0.178 C 
HETATM    8  N3  UNL     1      47.859 -32.790 -98.633  1.00  0.00    -0.404 N 
ATOM      9  H3  UNL     1      47.233 -33.594 -98.598  1.00  0.00     0.154 HD
ENDROOT
BRANCH   7  10
HETATM   10  C14 UNL     1      47.612 -30.600 -99.650  1.00  0.00     0.137 C 
BRANCH  10  11
HETATM   11  C15 UNL     1      47.594 -29.138 -99.285  1.00  0.00     0.220 C 
HETATM   12  O2  UNL     1      48.642 -28.464 -99.444  1.00  0.00    -0.274 OA
HETATM   13  N2  UNL     1      46.443 -28.523 -98.776  1.00  0.00    -0.361 N 
ATOM     14  H2  UNL     1      45.605 -29.089 -98.648  1.00  0.00     0.162 HD
BRANCH  13  15
HETATM   15  C16 UNL     1      46.394 -27.141 -98.429  1.00  0.00     0.127 C 
BRANCH  15  16
HETATM   16  C17 UNL     1      46.095 -26.957 -96.972  1.00  0.00     0.053 C 
BRANCH  16  17
HETATM   17  C18 UNL     1      47.343 -26.471 -96.280  1.00  0.00    -0.082 C 
HETATM   18  C19 UNL     1      48.397 -27.241 -96.231  1.00  0.00    -0.024 C 
HETATM   19  C20 UNL     1      49.679 -26.842 -95.566  1.00  0.00     0.027 C 
HETATM   20  C21 UNL     1      49.316 -25.759 -94.543  1.00  0.00     0.004 C 
HETATM   21  C22 UNL     1      48.656 -24.649 -95.300  1.00  0.00     0.005 C 
HETATM   22  C23 UNL     1      47.271 -25.101 -95.683  1.00  0.00     0.034 C 
ENDBRANCH  16  17
ENDBRANCH  15  16
ENDBRANCH  13  15
ENDBRANCH  10  11
ENDBRANCH   7  10
BRANCH   4  23
HETATM   23  C4  UNL     1      50.080 -30.966 -95.785  1.00  0.00     0.126 C 
BRANCH  23  24
HETATM   24  C5  UNL     1      49.794 -31.912 -94.651  1.00  0.00     0.024 C 
BRANCH  24  25
HETATM   25  C6  UNL     1      49.205 -31.073 -93.518  1.00  0.00    -0.013 C 
HETATM   26  C7  UNL     1      50.087 -31.067 -92.311  1.00  0.00     0.005 C 
HETATM   27  C8  UNL     1      49.799 -32.172 -91.340  1.00  0.00     0.000 C 
HETATM   28  C9  UNL     1      48.338 -32.264 -90.971  1.00  0.00     0.000 C 
HETATM   29  C10 UNL     1      47.490 -31.313 -91.791  1.00  0.00     0.000 C 
HETATM   30  C11 UNL     1      47.810 -31.572 -93.243  1.00  0.00     0.005 C 
ENDBRANCH  24  25
ENDBRANCH  23  24
ENDBRANCH   4  23
TORSDOF 8
ENDMDL
MODEL 2
REMARK VINA RESULT: -9.057954930      1.418      2.009
REMARK  8 active torsions:
REMARK  status: ('A' for Active; 'I' for Inactive)
REMARK    1  A    between atoms: N1_4  and  C4_5 
REMARK    2  A    between atoms: C4_5  and  C5_6 
REMARK    3  A    between atoms: C5_6  and  C6_7 
REMARK    4  A    between atoms: C13_15  and  C14_16 
REMARK    5  A    between atoms: C14_16  and  C15_17 
REMARK       I    between atoms: C15_17  and  N2_19 
REMARK    6  A    between atoms: N2_19  and  C16_21 
REMARK    7  A    between atoms: C16_21  and  C17_22 
REMARK    8  A    between atoms: C17_22  and  C18_23 
ROOT
HETATM    1  C1  UNL     1      52.537 -31.788 -96.717  1.00  0.00     0.033 C 
HETATM    2  C2  UNL     1      51.443 -30.978 -97.427  1.00  0.00     0.091 C 
HETATM    3  C3  UNL     1      50.439 -30.588 -96.376  1.00  0.00     0.150 C 
HETATM    4  N1  UNL     1      49.099 -30.980 -96.701  1.00  0.00    -0.348 N 
HETATM    5  C12 UNL     1      48.672 -31.274 -98.023  1.00  0.00     0.242 C 
HETATM    6  O1  UNL     1      47.463 -31.472 -98.313  1.00  0.00    -0.271 OA
HETATM    7  C13 UNL     1      49.706 -31.343 -99.073  1.00  0.00     0.178 C 
HETATM    8  N3  UNL     1      50.926 -31.796 -98.468  1.00  0.00    -0.404 N 
ATOM      9  H3  UNL     1      51.392 -32.653 -98.766  1.00  0.00     0.154 HD
ENDROOT
BRANCH   7  10
HETATM   10  C14 UNL     1      49.903 -29.996 -99.734  1.00  0.00     0.137 C 
BRANCH  10  11
HETATM   11  C15 UNL     1      48.584 -29.281 -99.865  1.00  0.00     0.220 C 
HETATM   12  O2  UNL     1      47.898 -29.467-100.900  1.00  0.00    -0.274 OA
HETATM   13  N2  UNL     1      48.113 -28.421 -98.865  1.00  0.00    -0.361 N 
ATOM     14  H2  UNL     1      48.688 -28.278 -98.034  1.00  0.00     0.162 HD
BRANCH  13  15
HETATM   15  C16 UNL     1      46.865 -27.737 -98.957  1.00  0.00     0.127 C 
BRANCH  15  16
HETATM   16  C17 UNL     1      46.118 -27.794 -97.659  1.00  0.00     0.053 C 
BRANCH  16  17
HETATM   17  C18 UNL     1      46.755 -26.827 -96.692  1.00  0.00    -0.082 C 
HETATM   18  C19 UNL     1      46.533 -25.546 -96.818  1.00  0.00    -0.024 C 
HETATM   19  C20 UNL     1      47.123 -24.514 -95.905  1.00  0.00     0.027 C 
HETATM   20  C21 UNL     1      48.376 -25.148 -95.289  1.00  0.00     0.004 C 
HETATM   21  C22 UNL     1      47.933 -26.394 -94.587  1.00  0.00     0.005 C 
HETATM   22  C23 UNL     1      47.619 -27.434 -95.631  1.00  0.00     0.034 C 
ENDBRANCH  16  17
ENDBRANCH  15  16
ENDBRANCH  13  15
ENDBRANCH  10  11
ENDBRANCH   7  10
BRANCH   4  23
HETATM   23  C4  UNL     1      48.129 -31.085 -95.632  1.00  0.00     0.126 C 
BRANCH  23  24
HETATM   24  C5  UNL     1      48.591 -31.983 -94.517  1.00  0.00     0.024 C 
BRANCH  24  25
HETATM   25  C6  UNL     1      48.608 -31.132 -93.248  1.00  0.00    -0.013 C 
HETATM   26  C7  UNL     1      49.924 -31.211 -92.541  1.00  0.00     0.005 C 
HETATM   27  C8  UNL     1      50.007 -32.316 -91.532  1.00  0.00     0.000 C 
HETATM   28  C9  UNL     1      48.847 -32.319 -90.567  1.00  0.00     0.000 C 
HETATM   29  C10 UNL     1      47.796 -31.297 -90.947  1.00  0.00     0.000 C 
HETATM   30  C11 UNL     1      47.439 -31.544 -92.392  1.00  0.00     0.005 C 
ENDBRANCH  24  25
ENDBRANCH  23  24
ENDBRANCH   4  23
TORSDOF 8
ENDMDL
MODEL 3
REMARK VINA RESULT: -9.030015517      1.983      6.791
REMARK  8 active torsions:
REMARK  status: ('A' for Active; 'I' for Inactive)
REMARK    1  A    between atoms: N1_4  and  C4_5 
REMARK    2  A    between atoms: C4_5  and  C5_6 
REMARK    3  A    between atoms: C5_6  and  C6_7 
REMARK    4  A    between atoms: C13_15  and  C14_16 
REMARK    5  A    between atoms: C14_16  and  C15_17 
REMARK       I    between atoms: C15_17  and  N2_19 
REMARK    6  A    between atoms: N2_19  and  C16_21 
REMARK    7  A    between atoms: C16_21  and  C17_22 
REMARK    8  A    between atoms: C17_22  and  C18_23 
ROOT
HETATM    1  C1  UNL     1      49.530 -33.319 -99.315  1.00  0.00     0.033 C 
HETATM    2  C2  UNL     1      49.038 -32.640 -98.030  1.00  0.00     0.091 C 
HETATM    3  C3  UNL     1      48.916 -31.171 -98.333  1.00  0.00     0.150 C 
HETATM    4  N1  UNL     1      49.646 -30.343 -97.418  1.00  0.00    -0.348 N 
HETATM    5  C12 UNL     1      50.049 -30.775 -96.127  1.00  0.00     0.242 C 
HETATM    6  O1  UNL     1      50.557 -29.993 -95.282  1.00  0.00    -0.271 OA
HETATM    7  C13 UNL     1      49.852 -32.199 -95.794  1.00  0.00     0.178 C 
HETATM    8  N3  UNL     1      49.969 -32.960 -97.005  1.00  0.00    -0.404 N 
ATOM      9  H3  UNL     1      50.676 -33.685 -97.122  1.00  0.00     0.154 HD
ENDROOT
BRANCH   7  10
HETATM   10  C14 UNL     1      48.504 -32.426 -95.144  1.00  0.00     0.137 C 
BRANCH  10  11
HETATM   11  C15 UNL     1      48.482 -31.822 -93.764  1.00  0.00     0.220 C 
HETATM   12  O2  UNL     1      47.489 -31.133 -93.424  1.00  0.00    -0.274 OA
HETATM   13  N2  UNL     1      49.537 -32.012 -92.863  1.00  0.00    -0.361 N 
ATOM     14  H2  UNL     1      50.338 -32.569 -93.160  1.00  0.00     0.162 HD
BRANCH  13  15
HETATM   15  C16 UNL     1      49.540 -31.460 -91.549  1.00  0.00     0.127 C 
BRANCH  15  16
HETATM   16  C17 UNL     1      49.931 -32.486 -90.529  1.00  0.00     0.053 C 
BRANCH  16  17
HETATM   17  C18 UNL     1      48.687 -32.965 -89.824  1.00  0.00    -0.082 C 
HETATM   18  C19 UNL     1      48.759 -33.974 -88.998  1.00  0.00    -0.024 C 
HETATM   19  C20 UNL     1      47.577 -34.517 -88.254  1.00  0.00     0.027 C 
HETATM   20  C21 UNL     1      46.336 -34.106 -89.056  1.00  0.00     0.004 C 
HETATM   21  C22 UNL     1      46.356 -32.612 -89.153  1.00  0.00     0.005 C 
HETATM   22  C23 UNL     1      47.427 -32.220 -90.137  1.00  0.00     0.034 C 
ENDBRANCH  16  17
ENDBRANCH  15  16
ENDBRANCH  13  15
ENDBRANCH  10  11
ENDBRANCH   7  10
BRANCH   4  23
HETATM   23  C4  UNL     1      49.993 -28.998 -97.826  1.00  0.00     0.126 C 
BRANCH  23  24
HETATM   24  C5  UNL     1      48.784 -28.145 -98.099  1.00  0.00     0.024 C 
BRANCH  24  25
HETATM   25  C6  UNL     1      48.081 -27.940 -96.758  1.00  0.00    -0.013 C 
HETATM   26  C7  UNL     1      46.635 -27.601 -96.932  1.00  0.00     0.005 C 
HETATM   27  C8  UNL     1      46.364 -26.130 -97.043  1.00  0.00     0.000 C 
HETATM   28  C9  UNL     1      47.003 -25.329 -95.935  1.00  0.00     0.000 C 
HETATM   29  C10 UNL     1      47.894 -26.188 -95.062  1.00  0.00     0.000 C 
HETATM   30  C11 UNL     1      48.853 -26.908 -95.978  1.00  0.00     0.005 C 
ENDBRANCH  24  25
ENDBRANCH  23  24
ENDBRANCH   4  23
TORSDOF 8
ENDMDL
MODEL 4
REMARK VINA RESULT: -8.720733198      2.617      7.250
REMARK  8 active torsions:
REMARK  status: ('A' for Active; 'I' for Inactive)
REMARK    1  A    between atoms: N1_4  and  C4_5 
REMARK    2  A    between atoms: C4_5  and  C5_6 
REMARK    3  A    between atoms: C5_6  and  C6_7 
REMARK    4  A    between atoms: C13_15  and  C14_16 
REMARK    5  A    between atoms: C14_16  and  C15_17 
REMARK       I    between atoms: C15_17  and  N2_19 
REMARK    6  A    between atoms: N2_19  and  C16_21 
REMARK    7  A    between atoms: C16_21  and  C17_22 
REMARK    8  A    between atoms: C17_22  and  C18_23 
ROOT
HETATM    1  C1  UNL     1      48.707 -33.635 -98.422  1.00  0.00     0.033 C 
HETATM    2  C2  UNL     1      48.459 -32.713 -97.220  1.00  0.00     0.091 C 
HETATM    3  C3  UNL     1      48.450 -31.304 -97.748  1.00  0.00     0.150 C 
HETATM    4  N1  UNL     1      49.374 -30.441 -97.072  1.00  0.00    -0.348 N 
HETATM    5  C12 UNL     1      49.897 -30.717 -95.780  1.00  0.00     0.242 C 
HETATM    6  O1  UNL     1      50.587 -29.883 -95.140  1.00  0.00    -0.271 OA
HETATM    7  C13 UNL     1      49.600 -32.038 -95.195  1.00  0.00     0.178 C 
HETATM    8  N3  UNL     1      49.478 -32.984 -96.267  1.00  0.00    -0.404 N 
ATOM      9  H3  UNL     1      50.086 -33.799 -96.341  1.00  0.00     0.154 HD
ENDROOT
BRANCH   7  10
HETATM   10  C14 UNL     1      48.332 -31.997 -94.369  1.00  0.00     0.137 C 
BRANCH  10  11
HETATM   11  C15 UNL     1      48.662 -31.774 -92.916  1.00  0.00     0.220 C 
HETATM   12  O2  UNL     1      49.867 -31.662 -92.582  1.00  0.00    -0.274 OA
HETATM   13  N2  UNL     1      47.661 -31.691 -91.940  1.00  0.00    -0.361 N 
ATOM     14  H2  UNL     1      46.688 -31.791 -92.230  1.00  0.00     0.162 HD
BRANCH  13  15
HETATM   15  C16 UNL     1      47.942 -31.473 -90.560  1.00  0.00     0.127 C 
BRANCH  15  16
HETATM   16  C17 UNL     1      48.278 -32.758 -89.864  1.00  0.00     0.053 C 
BRANCH  16  17
HETATM   17  C18 UNL     1      47.145 -33.114 -88.935  1.00  0.00    -0.082 C 
HETATM   18  C19 UNL     1      46.051 -33.638 -89.420  1.00  0.00    -0.024 C 
HETATM   19  C20 UNL     1      44.877 -34.023 -88.574  1.00  0.00     0.027 C 
HETATM   20  C21 UNL     1      44.975 -33.187 -87.292  1.00  0.00     0.004 C 
HETATM   21  C22 UNL     1      46.299 -33.501 -86.668  1.00  0.00     0.005 C 
HETATM   22  C23 UNL     1      47.373 -32.830 -87.484  1.00  0.00     0.034 C 
ENDBRANCH  16  17
ENDBRANCH  15  16
ENDBRANCH  13  15
ENDBRANCH  10  11
ENDBRANCH   7  10
BRANCH   4  23
HETATM   23  C4  UNL     1      49.802 -29.227 -97.735  1.00  0.00     0.126 C 
BRANCH  23  24
HETATM   24  C5  UNL     1      48.658 -28.296 -98.031  1.00  0.00     0.024 C 
BRANCH  24  25
HETATM   25  C6  UNL     1      48.010 -27.956 -96.690  1.00  0.00    -0.013 C 
HETATM   26  C7  UNL     1      46.562 -27.613 -96.840  1.00  0.00     0.005 C 
HETATM   27  C8  UNL     1      46.304 -26.156 -97.079  1.00  0.00     0.000 C 
HETATM   28  C9  UNL     1      46.994 -25.264 -96.075  1.00  0.00     0.000 C 
HETATM   29  C10 UNL     1      47.909 -26.051 -95.160  1.00  0.00     0.000 C 
HETATM   30  C11 UNL     1      48.823 -26.867 -96.040  1.00  0.00     0.005 C 
ENDBRANCH  24  25
ENDBRANCH  23  24
ENDBRANCH   4  23
TORSDOF 8
ENDMDL
MODEL 5
REMARK VINA RESULT: -8.686132385      3.381      8.083
REMARK  8 active torsions:
REMARK  status: ('A' for Active; 'I' for Inactive)
REMARK    1  A    between atoms: N1_4  and  C4_5 
REMARK    2  A    between atoms: C4_5  and  C5_6 
REMARK    3  A    between atoms: C5_6  and  C6_7 
REMARK    4  A    between atoms: C13_15  and  C14_16 
REMARK    5  A    between atoms: C14_16  and  C15_17 
REMARK       I    between atoms: C15_17  and  N2_19 
REMARK    6  A    between atoms: N2_19  and  C16_21 
REMARK    7  A    between atoms: C16_21  and  C17_22 
REMARK    8  A    between atoms: C17_22  and  C18_23 
ROOT
HETATM    1  C1  UNL     1      47.316 -28.589 -95.592  1.00  0.00     0.033 C 
HETATM    2  C2  UNL     1      48.302 -29.414 -94.755  1.00  0.00     0.091 C 
HETATM    3  C3  UNL     1      49.602 -29.439 -95.513  1.00  0.00     0.150 C 
HETATM    4  N1  UNL     1      50.092 -30.765 -95.751  1.00  0.00    -0.348 N 
HETATM    5  C12 UNL     1      49.687 -31.894 -94.990  1.00  0.00     0.242 C 
HETATM    6  O1  UNL     1      50.234 -33.021 -95.111  1.00  0.00    -0.271 OA
HETATM    7  C13 UNL     1      48.582 -31.706 -94.031  1.00  0.00     0.178 C 
HETATM    8  N3  UNL     1      47.711 -30.690 -94.547  1.00  0.00    -0.404 N 
ATOM      9  H3  UNL     1      46.729 -30.872 -94.753  1.00  0.00     0.154 HD
ENDROOT
BRANCH   7  10
HETATM   10  C14 UNL     1      49.105 -31.322 -92.663  1.00  0.00     0.137 C 
BRANCH  10  11
HETATM   11  C15 UNL     1      48.010 -31.431 -91.635  1.00  0.00     0.220 C 
HETATM   12  O2  UNL     1      47.033 -30.646 -91.710  1.00  0.00    -0.274 OA
HETATM   13  N2  UNL     1      48.061 -32.381 -90.607  1.00  0.00    -0.361 N 
ATOM     14  H2  UNL     1      48.866 -33.005 -90.559  1.00  0.00     0.162 HD
BRANCH  13  15
HETATM   15  C16 UNL     1      47.036 -32.513 -89.625  1.00  0.00     0.127 C 
BRANCH  15  16
HETATM   16  C17 UNL     1      46.848 -33.946 -89.226  1.00  0.00     0.053 C 
BRANCH  16  17
HETATM   17  C18 UNL     1      45.399 -34.162 -88.867  1.00  0.00    -0.082 C 
HETATM   18  C19 UNL     1      44.661 -33.143 -88.515  1.00  0.00    -0.024 C 
HETATM   19  C20 UNL     1      43.215 -33.263 -88.143  1.00  0.00     0.027 C 
HETATM   20  C21 UNL     1      43.001 -34.716 -87.703  1.00  0.00     0.004 C 
HETATM   21  C22 UNL     1      43.403 -35.584 -88.854  1.00  0.00     0.005 C 
HETATM   22  C23 UNL     1      44.907 -35.573 -88.947  1.00  0.00     0.034 C 
ENDBRANCH  16  17
ENDBRANCH  15  16
ENDBRANCH  13  15
ENDBRANCH  10  11
ENDBRANCH   7  10
BRANCH   4  23
HETATM   23  C4  UNL     1      51.047 -30.971 -96.819  1.00  0.00     0.126 C 
BRANCH  23  24
HETATM   24  C5  UNL     1      50.722 -30.167 -98.049  1.00  0.00     0.024 C 
BRANCH  24  25
HETATM   25  C6  UNL     1      50.083 -31.132 -99.046  1.00  0.00    -0.013 C 
HETATM   26  C7  UNL     1      48.608 -30.914 -99.167  1.00  0.00     0.005 C 
HETATM   27  C8  UNL     1      47.793 -31.724 -98.204  1.00  0.00     0.000 C 
HETATM   28  C9  UNL     1      48.150 -33.191 -98.219  1.00  0.00     0.000 C 
HETATM   29  C10 UNL     1      49.356 -33.467 -99.094  1.00  0.00     0.000 C 
HETATM   30  C11 UNL     1      50.454 -32.536 -98.644  1.00  0.00     0.005 C 
ENDBRANCH  24  25
ENDBRANCH  23  24
ENDBRANCH   4  23
TORSDOF 8
ENDMDL
