MODEL 1
REMARK VINA RESULT: -9.094487275      0.000      0.000
REMARK  8 active torsions:
REMARK  status: ('A' for Active; 'I' for Inactive)
REMARK    1  A    between atoms: C3_3  and  C5_5 
REMARK    2  A    between atoms: C3_3  and  C7_7 
REMARK    3  A    between atoms: C8_8  and  C9_9 
REMARK    4  A    between atoms: C10_10  and  C11_11 
REMARK    5  A    between atoms: C11_11  and  C12_12 
REMARK    6  A    between atoms: C17_20  and  C18_21 
REMARK       I    between atoms: C18_21  and  N2_23 
REMARK    7  A    between atoms: N2_23  and  C19_25 
REMARK    8  A    between atoms: C19_25  and  C20_26 
ROOT
HETATM    1  C1  UNL     1      46.274 -33.655 -89.172  1.00  0.00     0.013 C 
HETATM    2  C2  UNL     1      47.080 -32.976 -89.775  1.00  0.00    -0.100 C 
HETATM    3  C3  UNL     1      48.048 -32.163 -90.496  1.00  0.00     0.054 C 
HETATM    4  C4  UNL     1      48.019 -30.730 -89.981  1.00  0.00     0.038 C 
ENDROOT
BRANCH   3   5
HETATM    5  C5  UNL     1      49.435 -32.673 -90.335  1.00  0.00    -0.011 C 
HETATM    6  C6  UNL     1      49.676 -33.705 -89.554  1.00  0.00     0.009 C 
ENDBRANCH   3   5
BRANCH   3   7
HETATM    7  C7  UNL     1      47.706 -32.187 -91.941  1.00  0.00    -0.001 C 
HETATM    8  C8  UNL     1      48.048 -31.179 -92.714  1.00  0.00    -0.002 C 
BRANCH   8   9
HETATM    9  C9  UNL     1      47.718 -31.200 -94.113  1.00  0.00    -0.004 C 
HETATM   10  C10 UNL     1      48.458 -31.854 -94.989  1.00  0.00    -0.026 C 
BRANCH  10  11
HETATM   11  C11 UNL     1      48.103 -31.869 -96.453  1.00  0.00     0.032 C 
BRANCH  11  12
HETATM   12  C12 UNL     1      49.418 -31.769 -97.199  1.00  0.00     0.006 C 
HETATM   13  C13 UNL     1      49.989 -33.134 -97.502  1.00  0.00     0.033 C 
HETATM   14  C14 UNL     1      51.084 -32.984 -98.518  1.00  0.00     0.233 C 
HETATM   15  N1  UNL     1      51.720 -31.689 -98.378  1.00  0.00    -0.070 N 
HETATM   16  C15 UNL     1      51.806 -31.264 -97.016  1.00  0.00     0.195 C 
ATOM     17  H12 UNL     1      52.637 -31.681 -98.824  1.00  0.00     0.277 HD
ATOM     18  H11 UNL     1      51.252 -30.987 -98.952  1.00  0.00     0.277 HD
HETATM   19  C16 UNL     1      52.628 -32.182 -96.147  1.00  0.00     0.041 C 
HETATM   20  C17 UNL     1      50.439 -30.967 -96.466  1.00  0.00     0.112 C 
BRANCH  20  21
HETATM   21  C18 UNL     1      50.180 -29.511 -96.514  1.00  0.00     0.224 C 
HETATM   22  O1  UNL     1      50.268 -28.904 -97.593  1.00  0.00    -0.273 OA
HETATM   23  N2  UNL     1      49.835 -28.821 -95.336  1.00  0.00    -0.360 N 
ATOM     24  H2  UNL     1      49.771 -29.352 -94.467  1.00  0.00     0.162 HD
BRANCH  23  25
HETATM   25  C19 UNL     1      49.568 -27.410 -95.290  1.00  0.00     0.127 C 
BRANCH  25  26
HETATM   26  C20 UNL     1      48.081 -27.088 -95.234  1.00  0.00     0.003 C 
HETATM   27  C21 UNL     1      47.273 -28.095 -96.010  1.00  0.00     0.006 C 
HETATM   28  C22 UNL     1      46.971 -27.599 -97.429  1.00  0.00     0.000 C 
HETATM   29  C23 UNL     1      46.053 -26.414 -97.358  1.00  0.00     0.000 C 
HETATM   30  C24 UNL     1      46.497 -25.482 -96.255  1.00  0.00     0.000 C 
HETATM   31  C25 UNL     1      47.944 -25.731 -95.926  1.00  0.00     0.006 C 
ENDBRANCH  25  26
ENDBRANCH  23  25
ENDBRANCH  20  21
ENDBRANCH  11  12
ENDBRANCH  10  11
ENDBRANCH   8   9
ENDBRANCH   3   7
TORSDOF 8
ENDMDL
MODEL 2
REMARK VINA RESULT: -8.646729731      0.827      1.316
REMARK  8 active torsions:
REMARK  status: ('A' for Active; 'I' for Inactive)
REMARK    1  A    between atoms: C3_3  and  C5_5 
REMARK    2  A    between atoms: C3_3  and  C7_7 
REMARK    3  A    between atoms: C8_8  and  C9_9 
REMARK    4  A    between atoms: C10_10  and  C11_11 
REMARK    5  A    between atoms: C11_11  and  C12_12 
REMARK    6  A    between atoms: C17_20  and  C18_21 
REMARK       I    between atoms: C18_21  and  N2_23 
REMARK    7  A    between atoms: N2_23  and  C19_25 
REMARK    8  A    between atoms: C19_25  and  C20_26 
ROOT
HETATM    1  C1  UNL     1      46.491 -33.619 -89.212  1.00  0.00     0.013 C 
HETATM    2  C2  UNL     1      47.229 -32.894 -89.848  1.00  0.00    -0.100 C 
HETATM    3  C3  UNL     1      48.115 -32.025 -90.606  1.00  0.00     0.054 C 
HETATM    4  C4  UNL     1      48.058 -30.606 -90.058  1.00  0.00     0.038 C 
ENDROOT
BRANCH   3   5
HETATM    5  C5  UNL     1      49.529 -32.478 -90.542  1.00  0.00    -0.011 C 
HETATM    6  C6  UNL     1      49.934 -33.254 -89.560  1.00  0.00     0.009 C 
ENDBRANCH   3   5
BRANCH   3   7
HETATM    7  C7  UNL     1      47.687 -32.034 -92.028  1.00  0.00    -0.001 C 
HETATM    8  C8  UNL     1      48.486 -31.560 -92.959  1.00  0.00    -0.002 C 
BRANCH   8   9
HETATM    9  C9  UNL     1      48.072 -31.567 -94.336  1.00  0.00    -0.004 C 
HETATM   10  C10 UNL     1      48.569 -32.428 -95.204  1.00  0.00    -0.026 C 
BRANCH  10  11
HETATM   11  C11 UNL     1      48.129 -32.427 -96.644  1.00  0.00     0.032 C 
BRANCH  11  12
HETATM   12  C12 UNL     1      49.392 -32.257 -97.463  1.00  0.00     0.006 C 
HETATM   13  C13 UNL     1      50.254 -33.497 -97.417  1.00  0.00     0.033 C 
HETATM   14  C14 UNL     1      51.293 -33.401 -98.497  1.00  0.00     0.233 C 
HETATM   15  N1  UNL     1      51.624 -32.013 -98.749  1.00  0.00    -0.070 N 
HETATM   16  C15 UNL     1      51.607 -31.220 -97.560  1.00  0.00     0.195 C 
ATOM     17  H12 UNL     1      52.518 -31.931 -99.232  1.00  0.00     0.277 HD
ATOM     18  H11 UNL     1      51.014 -31.614 -99.464  1.00  0.00     0.277 HD
HETATM   19  C16 UNL     1      52.608 -31.663 -96.523  1.00  0.00     0.041 C 
HETATM   20  C17 UNL     1      50.206 -31.083 -97.034  1.00  0.00     0.112 C 
BRANCH  20  21
HETATM   21  C18 UNL     1      49.629 -29.789 -97.459  1.00  0.00     0.224 C 
HETATM   22  O1  UNL     1      50.364 -28.918 -97.950  1.00  0.00    -0.273 OA
HETATM   23  N2  UNL     1      48.250 -29.551 -97.304  1.00  0.00    -0.360 N 
ATOM     24  H2  UNL     1      47.675 -30.289 -96.897  1.00  0.00     0.162 HD
BRANCH  23  25
HETATM   25  C19 UNL     1      47.607 -28.325 -97.688  1.00  0.00     0.127 C 
BRANCH  25  26
HETATM   26  C20 UNL     1      46.940 -27.613 -96.520  1.00  0.00     0.003 C 
HETATM   27  C21 UNL     1      45.970 -26.565 -96.999  1.00  0.00     0.006 C 
HETATM   28  C22 UNL     1      46.615 -25.174 -97.026  1.00  0.00     0.000 C 
HETATM   29  C23 UNL     1      46.915 -24.737 -95.622  1.00  0.00     0.000 C 
HETATM   30  C24 UNL     1      47.508 -25.886 -94.839  1.00  0.00     0.000 C 
HETATM   31  C25 UNL     1      48.080 -26.908 -95.783  1.00  0.00     0.006 C 
ENDBRANCH  25  26
ENDBRANCH  23  25
ENDBRANCH  20  21
ENDBRANCH  11  12
ENDBRANCH  10  11
ENDBRANCH   8   9
ENDBRANCH   3   7
TORSDOF 8
ENDMDL
MODEL 3
REMARK VINA RESULT: -8.613531404      1.250      2.136
REMARK  8 active torsions:
REMARK  status: ('A' for Active; 'I' for Inactive)
REMARK    1  A    between atoms: C3_3  and  C5_5 
REMARK    2  A    between atoms: C3_3  and  C7_7 
REMARK    3  A    between atoms: C8_8  and  C9_9 
REMARK    4  A    between atoms: C10_10  and  C11_11 
REMARK    5  A    between atoms: C11_11  and  C12_12 
REMARK    6  A    between atoms: C17_20  and  C18_21 
REMARK       I    between atoms: C18_21  and  N2_23 
REMARK    7  A    between atoms: N2_23  and  C19_25 
REMARK    8  A    between atoms: C19_25  and  C20_26 
ROOT
HETATM    1  C1  UNL     1      47.485 -32.106 -86.418  1.00  0.00     0.013 C 
HETATM    2  C2  UNL     1      47.533 -32.669 -87.493  1.00  0.00    -0.100 C 
HETATM    3  C3  UNL     1      47.591 -33.346 -88.779  1.00  0.00     0.054 C 
HETATM    4  C4  UNL     1      48.978 -33.932 -89.003  1.00  0.00     0.038 C 
ENDROOT
BRANCH   3   5
HETATM    5  C5  UNL     1      46.609 -34.459 -88.868  1.00  0.00    -0.011 C 
HETATM    6  C6  UNL     1      45.323 -34.203 -88.973  1.00  0.00     0.009 C 
ENDBRANCH   3   5
BRANCH   3   7
HETATM    7  C7  UNL     1      47.280 -32.363 -89.848  1.00  0.00    -0.001 C 
HETATM    8  C8  UNL     1      48.069 -32.258 -90.894  1.00  0.00    -0.002 C 
BRANCH   8   9
HETATM    9  C9  UNL     1      47.770 -31.307 -91.930  1.00  0.00    -0.004 C 
HETATM   10  C10 UNL     1      47.941 -31.595 -93.206  1.00  0.00    -0.026 C 
BRANCH  10  11
HETATM   11  C11 UNL     1      47.624 -30.591 -94.283  1.00  0.00     0.032 C 
BRANCH  11  12
HETATM   12  C12 UNL     1      48.520 -30.942 -95.453  1.00  0.00     0.006 C 
HETATM   13  C13 UNL     1      48.726 -32.434 -95.566  1.00  0.00     0.033 C 
HETATM   14  C14 UNL     1      49.320 -32.738 -96.911  1.00  0.00     0.233 C 
HETATM   15  N1  UNL     1      50.127 -31.621 -97.364  1.00  0.00    -0.070 N 
HETATM   16  C15 UNL     1      50.819 -30.975 -96.293  1.00  0.00     0.195 C 
ATOM     17  H12 UNL     1      50.774 -31.911 -98.097  1.00  0.00     0.277 HD
ATOM     18  H11 UNL     1      49.567 -30.954 -97.893  1.00  0.00     0.277 HD
HETATM   19  C16 UNL     1      51.791 -31.874 -95.570  1.00  0.00     0.041 C 
HETATM   20  C17 UNL     1      49.850 -30.271 -95.384  1.00  0.00     0.112 C 
BRANCH  20  21
HETATM   21  C18 UNL     1      49.794 -28.832 -95.722  1.00  0.00     0.224 C 
HETATM   22  O1  UNL     1      49.859 -28.473 -96.908  1.00  0.00    -0.273 OA
HETATM   23  N2  UNL     1      49.669 -27.875 -94.695  1.00  0.00    -0.360 N 
ATOM     24  H2  UNL     1      49.619 -28.206 -93.731  1.00  0.00     0.162 HD
BRANCH  23  25
HETATM   25  C19 UNL     1      49.609 -26.460 -94.932  1.00  0.00     0.127 C 
BRANCH  25  26
HETATM   26  C20 UNL     1      48.190 -25.911 -94.892  1.00  0.00     0.003 C 
HETATM   27  C21 UNL     1      47.204 -26.901 -95.454  1.00  0.00     0.006 C 
HETATM   28  C22 UNL     1      46.900 -26.615 -96.928  1.00  0.00     0.000 C 
HETATM   29  C23 UNL     1      46.168 -25.310 -97.043  1.00  0.00     0.000 C 
HETATM   30  C24 UNL     1      46.802 -24.281 -96.136  1.00  0.00     0.000 C 
HETATM   31  C25 UNL     1      48.213 -24.687 -95.809  1.00  0.00     0.006 C 
ENDBRANCH  25  26
ENDBRANCH  23  25
ENDBRANCH  20  21
ENDBRANCH  11  12
ENDBRANCH  10  11
ENDBRANCH   8   9
ENDBRANCH   3   7
TORSDOF 8
ENDMDL
MODEL 4
REMARK VINA RESULT: -8.493908974      1.150      1.711
REMARK  8 active torsions:
REMARK  status: ('A' for Active; 'I' for Inactive)
REMARK    1  A    between atoms: C3_3  and  C5_5 
REMARK    2  A    between atoms: C3_3  and  C7_7 
REMARK    3  A    between atoms: C8_8  and  C9_9 
REMARK    4  A    between atoms: C10_10  and  C11_11 
REMARK    5  A    between atoms: C11_11  and  C12_12 
REMARK    6  A    between atoms: C17_20  and  C18_21 
REMARK       I    between atoms: C18_21  and  N2_23 
REMARK    7  A    between atoms: N2_23  and  C19_25 
REMARK    8  A    between atoms: C19_25  and  C20_26 
ROOT
HETATM    1  C1  UNL     1      45.559 -34.919 -88.832  1.00  0.00     0.013 C 
HETATM    2  C2  UNL     1      46.503 -34.157 -88.869  1.00  0.00    -0.100 C 
HETATM    3  C3  UNL     1      47.636 -33.246 -88.912  1.00  0.00     0.054 C 
HETATM    4  C4  UNL     1      47.815 -32.564 -87.563  1.00  0.00     0.038 C 
ENDROOT
BRANCH   3   5
HETATM    5  C5  UNL     1      48.905 -33.949 -89.235  1.00  0.00    -0.011 C 
HETATM    6  C6  UNL     1      49.910 -33.929 -88.386  1.00  0.00     0.009 C 
ENDBRANCH   3   5
BRANCH   3   7
HETATM    7  C7  UNL     1      47.387 -32.227 -89.963  1.00  0.00    -0.001 C 
HETATM    8  C8  UNL     1      48.084 -32.248 -91.078  1.00  0.00    -0.002 C 
BRANCH   8   9
HETATM    9  C9  UNL     1      47.844 -31.262 -92.097  1.00  0.00    -0.004 C 
HETATM   10  C10 UNL     1      47.741 -31.592 -93.370  1.00  0.00    -0.026 C 
BRANCH  10  11
HETATM   11  C11 UNL     1      47.490 -30.551 -94.429  1.00  0.00     0.032 C 
BRANCH  11  12
HETATM   12  C12 UNL     1      48.401 -30.907 -95.586  1.00  0.00     0.006 C 
HETATM   13  C13 UNL     1      48.535 -32.404 -95.745  1.00  0.00     0.033 C 
HETATM   14  C14 UNL     1      49.152 -32.692 -97.083  1.00  0.00     0.233 C 
HETATM   15  N1  UNL     1      50.027 -31.605 -97.474  1.00  0.00    -0.070 N 
HETATM   16  C15 UNL     1      50.719 -31.032 -96.362  1.00  0.00     0.195 C 
ATOM     17  H12 UNL     1      50.680 -31.902 -98.199  1.00  0.00     0.277 HD
ATOM     18  H11 UNL     1      49.517 -30.892 -97.995  1.00  0.00     0.277 HD
HETATM   19  C16 UNL     1      51.623 -32.003 -95.645  1.00  0.00     0.041 C 
HETATM   20  C17 UNL     1      49.761 -30.309 -95.457  1.00  0.00     0.112 C 
BRANCH  20  21
HETATM   21  C18 UNL     1      49.788 -28.859 -95.745  1.00  0.00     0.224 C 
HETATM   22  O1  UNL     1      49.924 -28.464 -96.913  1.00  0.00    -0.273 OA
HETATM   23  N2  UNL     1      49.659 -27.932 -94.692  1.00  0.00    -0.360 N 
ATOM     24  H2  UNL     1      49.549 -28.291 -93.743  1.00  0.00     0.162 HD
BRANCH  23  25
HETATM   25  C19 UNL     1      49.676 -26.508 -94.880  1.00  0.00     0.127 C 
BRANCH  25  26
HETATM   26  C20 UNL     1      48.289 -25.884 -94.816  1.00  0.00     0.003 C 
HETATM   27  C21 UNL     1      47.232 -26.852 -95.277  1.00  0.00     0.006 C 
HETATM   28  C22 UNL     1      46.879 -26.637 -96.753  1.00  0.00     0.000 C 
HETATM   29  C23 UNL     1      46.209 -25.304 -96.917  1.00  0.00     0.000 C 
HETATM   30  C24 UNL     1      46.932 -24.259 -96.100  1.00  0.00     0.000 C 
HETATM   31  C25 UNL     1      48.334 -24.719 -95.806  1.00  0.00     0.006 C 
ENDBRANCH  25  26
ENDBRANCH  23  25
ENDBRANCH  20  21
ENDBRANCH  11  12
ENDBRANCH  10  11
ENDBRANCH   8   9
ENDBRANCH   3   7
TORSDOF 8
ENDMDL
MODEL 5
REMARK VINA RESULT: -8.476447538      1.716      6.606
REMARK  8 active torsions:
REMARK  status: ('A' for Active; 'I' for Inactive)
REMARK    1  A    between atoms: C3_3  and  C5_5 
REMARK    2  A    between atoms: C3_3  and  C7_7 
REMARK    3  A    between atoms: C8_8  and  C9_9 
REMARK    4  A    between atoms: C10_10  and  C11_11 
REMARK    5  A    between atoms: C11_11  and  C12_12 
REMARK    6  A    between atoms: C17_20  and  C18_21 
REMARK       I    between atoms: C18_21  and  N2_23 
REMARK    7  A    between atoms: N2_23  and  C19_25 
REMARK    8  A    between atoms: C19_25  and  C20_26 
ROOT
HETATM    1  C1  UNL     1      47.287 -24.939 -95.394  1.00  0.00     0.013 C 
HETATM    2  C2  UNL     1      46.956 -25.880 -96.086  1.00  0.00    -0.100 C 
HETATM    3  C3  UNL     1      46.557 -27.006 -96.916  1.00  0.00     0.054 C 
HETATM    4  C4  UNL     1      45.338 -27.695 -96.317  1.00  0.00     0.038 C 
ENDROOT
BRANCH   3   5
HETATM    5  C5  UNL     1      46.204 -26.583 -98.296  1.00  0.00    -0.011 C 
HETATM    6  C6  UNL     1      46.503 -27.351 -99.322  1.00  0.00     0.009 C 
ENDBRANCH   3   5
BRANCH   3   7
HETATM    7  C7  UNL     1      47.689 -27.963 -96.995  1.00  0.00    -0.001 C 
HETATM    8  C8  UNL     1      48.926 -27.528 -96.893  1.00  0.00    -0.002 C 
BRANCH   8   9
HETATM    9  C9  UNL     1      50.024 -28.454 -96.970  1.00  0.00    -0.004 C 
HETATM   10  C10 UNL     1      50.119 -29.336 -97.946  1.00  0.00    -0.026 C 
BRANCH  10  11
HETATM   11  C11 UNL     1      51.274 -30.301 -98.016  1.00  0.00     0.032 C 
BRANCH  11  12
HETATM   12  C12 UNL     1      50.664 -31.684 -97.922  1.00  0.00     0.006 C 
HETATM   13  C13 UNL     1      50.127 -32.146 -99.257  1.00  0.00     0.033 C 
HETATM   14  C14 UNL     1      49.856 -33.621 -99.183  1.00  0.00     0.233 C 
HETATM   15  N1  UNL     1      49.506 -33.996 -97.827  1.00  0.00    -0.070 N 
HETATM   16  C15 UNL     1      48.739 -32.991 -97.160  1.00  0.00     0.195 C 
ATOM     17  H12 UNL     1      49.027 -34.896 -97.809  1.00  0.00     0.277 HD
ATOM     18  H11 UNL     1      50.336 -34.242 -97.288  1.00  0.00     0.277 HD
HETATM   19  C16 UNL     1      47.417 -32.699 -97.823  1.00  0.00     0.041 C 
HETATM   20  C17 UNL     1      49.576 -31.769 -96.906  1.00  0.00     0.112 C 
BRANCH  20  21
HETATM   21  C18 UNL     1      50.079 -31.780 -95.515  1.00  0.00     0.224 C 
HETATM   22  O1  UNL     1      51.083 -32.451 -95.227  1.00  0.00    -0.273 OA
HETATM   23  N2  UNL     1      49.417 -31.031 -94.523  1.00  0.00    -0.360 N 
ATOM     24  H2  UNL     1      48.595 -30.491 -94.794  1.00  0.00     0.162 HD
BRANCH  23  25
HETATM   25  C19 UNL     1      49.835 -30.986 -93.150  1.00  0.00     0.127 C 
BRANCH  25  26
HETATM   26  C20 UNL     1      49.256 -32.119 -92.314  1.00  0.00     0.003 C 
HETATM   27  C21 UNL     1      47.787 -31.912 -92.054  1.00  0.00     0.006 C 
HETATM   28  C22 UNL     1      47.546 -31.252 -90.693  1.00  0.00     0.000 C 
HETATM   29  C23 UNL     1      47.950 -32.199 -89.601  1.00  0.00     0.000 C 
HETATM   30  C24 UNL     1      49.260 -32.865 -89.953  1.00  0.00     0.000 C 
HETATM   31  C25 UNL     1      49.994 -32.041 -90.977  1.00  0.00     0.006 C 
ENDBRANCH  25  26
ENDBRANCH  23  25
ENDBRANCH  20  21
ENDBRANCH  11  12
ENDBRANCH  10  11
ENDBRANCH   8   9
ENDBRANCH   3   7
TORSDOF 8
ENDMDL
