MODEL 1
REMARK VINA RESULT: -8.264770111      0.000      0.000
REMARK  6 active torsions:
REMARK  status: ('A' for Active; 'I' for Inactive)
REMARK    1  A    between atoms: C2_2  and  C3_3 
REMARK    2  A    between atoms: C4_6  and  N2_7 
REMARK    3  A    between atoms: N4_15  and  C7_16 
REMARK    4  A    between atoms: C7_16  and  C8_17 
REMARK    5  A    between atoms: C9_18  and  C10_19 
REMARK    6  A    between atoms: C15_25  and  O1_26 
ROOT
HETATM    1  C3  UNL     1      11.528  44.424  64.560  1.00  0.00     0.083 A 
HETATM    2  N1  UNL     1      10.961  43.918  65.661  1.00  0.00    -0.330 N 
ATOM      3  H1  UNL     1      11.580  43.590  66.403  1.00  0.00     0.168 HD
HETATM    4  C4  UNL     1       9.646  43.811  65.862  1.00  0.00     0.131 A 
HETATM    5  C5  UNL     1       8.810  44.260  64.849  1.00  0.00     0.123 A 
HETATM    6  N3  UNL     1       7.476  44.325  64.671  1.00  0.00    -0.330 N 
ATOM      7  H3  UNL     1       6.772  44.014  65.340  1.00  0.00     0.168 HD
HETATM    8  C6  UNL     1       7.225  44.871  63.459  1.00  0.00     0.158 A 
HETATM    9 BR1  UNL     1       5.497  45.177  62.742  1.00  0.00    -0.010 Br
HETATM   10  N4  UNL     1       8.388  45.163  62.846  1.00  0.00    -0.308 N 
HETATM   11  C17 UNL     1       9.368  44.784  63.710  1.00  0.00     0.142 A 
HETATM   12  N5  UNL     1      10.704  44.855  63.586  1.00  0.00    -0.330 N 
ATOM     13  H5  UNL     1      11.104  45.246  62.734  1.00  0.00     0.168 HD
ENDROOT
BRANCH  10  14
HETATM   14  C7  UNL     1       8.577  45.758  61.539  1.00  0.00     0.160 C 
BRANCH  14  15
HETATM   15  C8  UNL     1       8.752  44.687  60.505  1.00  0.00    -0.006 C 
HETATM   16  C9  UNL     1       7.763  43.871  60.281  1.00  0.00     0.012 C 
BRANCH  16  17
HETATM   17  C10 UNL     1       7.683  42.769  59.348  1.00  0.00    -0.003 A 
HETATM   18  C11 UNL     1       7.849  41.448  59.777  1.00  0.00     0.015 A 
HETATM   19  C12 UNL     1       7.782  40.365  58.929  1.00  0.00     0.020 A 
HETATM   20  C13 UNL     1       7.546  40.528  57.597  1.00  0.00     0.013 A 
HETATM   21 BR2  UNL     1       7.445  39.062  56.377  1.00  0.00    -0.051 Br
HETATM   22  C14 UNL     1       7.378  41.810  57.132  1.00  0.00     0.056 A 
HETATM   23  C15 UNL     1       7.447  42.910  58.003  1.00  0.00     0.079 A 
BRANCH  23  24
HETATM   24  O1  UNL     1       7.264  44.132  57.430  1.00  0.00    -0.355 OA
HETATM   25  C16 UNL     1       6.035  44.674  57.049  1.00  0.00     0.210 C 
ENDBRANCH  23  24
ENDBRANCH  16  17
ENDBRANCH  14  15
ENDBRANCH  10  14
BRANCH   4  26
HETATM   26  N2  UNL     1       9.143  43.320  66.934  1.00  0.00    -0.383 N 
ATOM     27  H22 UNL     1       9.749  42.862  67.616  1.00  0.00     0.157 HD
ATOM     28  H21 UNL     1       8.147  43.360  67.148  1.00  0.00     0.157 HD
ENDBRANCH   4  26
BRANCH   1  29
HETATM   29  C2  UNL     1      12.991  44.536  64.351  1.00  0.00     0.072 C 
HETATM   30  C1  UNL     1      13.727  43.750  65.420  1.00  0.00     0.013 C 
ENDBRANCH   1  29
TORSDOF 6
ENDMDL
MODEL 2
REMARK VINA RESULT: -8.072734555      2.374      3.464
REMARK  6 active torsions:
REMARK  status: ('A' for Active; 'I' for Inactive)
REMARK    1  A    between atoms: C2_2  and  C3_3 
REMARK    2  A    between atoms: C4_6  and  N2_7 
REMARK    3  A    between atoms: N4_15  and  C7_16 
REMARK    4  A    between atoms: C7_16  and  C8_17 
REMARK    5  A    between atoms: C9_18  and  C10_19 
REMARK    6  A    between atoms: C15_25  and  O1_26 
ROOT
HETATM    1  C3  UNL     1       9.161  44.322  64.692  1.00  0.00     0.083 A 
HETATM    2  N1  UNL     1      10.019  45.331  64.511  1.00  0.00    -0.330 N 
ATOM      3  H1  UNL     1      10.689  45.520  65.257  1.00  0.00     0.168 HD
HETATM    4  C4  UNL     1      10.065  46.110  63.428  1.00  0.00     0.131 A 
HETATM    5  C5  UNL     1       9.151  45.846  62.417  1.00  0.00     0.123 A 
HETATM    6  N3  UNL     1       8.882  46.382  61.211  1.00  0.00    -0.330 N 
ATOM      7  H3  UNL     1       9.371  47.172  60.789  1.00  0.00     0.168 HD
HETATM    8  C6  UNL     1       7.857  45.700  60.651  1.00  0.00     0.158 A 
HETATM    9 BR1  UNL     1       7.106  46.070  58.950  1.00  0.00    -0.010 Br
HETATM   10  N4  UNL     1       7.456  44.722  61.485  1.00  0.00    -0.308 N 
HETATM   11  C17 UNL     1       8.260  44.815  62.579  1.00  0.00     0.142 A 
HETATM   12  N5  UNL     1       8.280  44.079  63.702  1.00  0.00    -0.330 N 
ATOM     13  H5  UNL     1       7.611  43.316  63.808  1.00  0.00     0.168 HD
ENDROOT
BRANCH  10  14
HETATM   14  C7  UNL     1       6.393  43.760  61.280  1.00  0.00     0.160 C 
BRANCH  14  15
HETATM   15  C8  UNL     1       6.698  42.898  60.092  1.00  0.00    -0.006 C 
HETATM   16  C9  UNL     1       7.319  41.770  60.286  1.00  0.00     0.012 C 
BRANCH  16  17
HETATM   17  C10 UNL     1       7.723  40.774  59.317  1.00  0.00    -0.003 A 
HETATM   18  C11 UNL     1       8.443  41.133  58.173  1.00  0.00     0.015 A 
HETATM   19  C12 UNL     1       8.851  40.224  57.223  1.00  0.00     0.020 A 
HETATM   20  C13 UNL     1       8.567  38.897  57.350  1.00  0.00     0.013 A 
HETATM   21 BR2  UNL     1       9.107  37.595  56.062  1.00  0.00    -0.051 Br
HETATM   22  C14 UNL     1       7.860  38.501  58.459  1.00  0.00     0.056 A 
HETATM   23  C15 UNL     1       7.447  39.434  59.425  1.00  0.00     0.079 A 
BRANCH  23  24
HETATM   24  O1  UNL     1       6.754  38.926  60.482  1.00  0.00    -0.355 OA
HETATM   25  C16 UNL     1       5.381  38.669  60.505  1.00  0.00     0.210 C 
ENDBRANCH  23  24
ENDBRANCH  16  17
ENDBRANCH  14  15
ENDBRANCH  10  14
BRANCH   4  26
HETATM   26  N2  UNL     1      10.906  47.069  63.295  1.00  0.00    -0.383 N 
ATOM     27  H22 UNL     1      10.593  47.974  62.946  1.00  0.00     0.157 HD
ATOM     28  H21 UNL     1      11.896  46.973  63.523  1.00  0.00     0.157 HD
ENDBRANCH   4  26
BRANCH   1  29
HETATM   29  C2  UNL     1       9.121  43.466  65.900  1.00  0.00     0.072 C 
HETATM   30  C1  UNL     1      10.533  43.117  66.332  1.00  0.00     0.013 C 
ENDBRANCH   1  29
TORSDOF 6
ENDMDL
MODEL 3
REMARK VINA RESULT: -7.932966801      1.985      2.855
REMARK  6 active torsions:
REMARK  status: ('A' for Active; 'I' for Inactive)
REMARK    1  A    between atoms: C2_2  and  C3_3 
REMARK    2  A    between atoms: C4_6  and  N2_7 
REMARK    3  A    between atoms: N4_15  and  C7_16 
REMARK    4  A    between atoms: C7_16  and  C8_17 
REMARK    5  A    between atoms: C9_18  and  C10_19 
REMARK    6  A    between atoms: C15_25  and  O1_26 
ROOT
HETATM    1  C3  UNL     1       9.377  44.312  64.731  1.00  0.00     0.083 A 
HETATM    2  N1  UNL     1      10.131  45.409  64.605  1.00  0.00    -0.330 N 
ATOM      3  H1  UNL     1      10.748  45.651  65.381  1.00  0.00     0.168 HD
HETATM    4  C4  UNL     1      10.138  46.213  63.539  1.00  0.00     0.131 A 
HETATM    5  C5  UNL     1       9.297  45.878  62.486  1.00  0.00     0.123 A 
HETATM    6  N3  UNL     1       9.021  46.409  61.279  1.00  0.00    -0.330 N 
ATOM      7  H3  UNL     1       9.440  47.255  60.893  1.00  0.00     0.168 HD
HETATM    8  C6  UNL     1       8.097  45.636  60.665  1.00  0.00     0.158 A 
HETATM    9 BR1  UNL     1       7.379  45.963  58.941  1.00  0.00    -0.010 Br
HETATM   10  N4  UNL     1       7.768  44.604  61.464  1.00  0.00    -0.308 N 
HETATM   11  C17 UNL     1       8.514  44.755  62.592  1.00  0.00     0.142 A 
HETATM   12  N5  UNL     1       8.567  44.000  63.701  1.00  0.00    -0.330 N 
ATOM     13  H5  UNL     1       7.979  43.170  63.765  1.00  0.00     0.168 HD
ENDROOT
BRANCH  10  14
HETATM   14  C7  UNL     1       6.821  43.541  61.197  1.00  0.00     0.160 C 
BRANCH  14  15
HETATM   15  C8  UNL     1       7.481  42.446  60.413  1.00  0.00    -0.006 C 
HETATM   16  C9  UNL     1       6.877  41.989  59.354  1.00  0.00     0.012 C 
BRANCH  16  17
HETATM   17  C10 UNL     1       7.300  40.950  58.441  1.00  0.00    -0.003 A 
HETATM   18  C11 UNL     1       7.736  39.708  58.915  1.00  0.00     0.015 A 
HETATM   19  C12 UNL     1       8.148  38.687  58.088  1.00  0.00     0.020 A 
HETATM   20  C13 UNL     1       8.154  38.838  56.733  1.00  0.00     0.013 A 
HETATM   21 BR2  UNL     1       8.717  37.456  55.541  1.00  0.00    -0.051 Br
HETATM   22  C14 UNL     1       7.735  40.043  56.225  1.00  0.00     0.056 A 
HETATM   23  C15 UNL     1       7.315  41.080  57.074  1.00  0.00     0.079 A 
BRANCH  23  24
HETATM   24  O1  UNL     1       6.920  42.229  56.458  1.00  0.00    -0.355 OA
HETATM   25  C16 UNL     1       6.149  42.303  55.295  1.00  0.00     0.210 C 
ENDBRANCH  23  24
ENDBRANCH  16  17
ENDBRANCH  14  15
ENDBRANCH  10  14
BRANCH   4  26
HETATM   26  N2  UNL     1      10.877  47.257  63.458  1.00  0.00    -0.383 N 
ATOM     27  H22 UNL     1      11.855  47.210  63.744  1.00  0.00     0.157 HD
ATOM     28  H21 UNL     1      10.533  48.155  63.117  1.00  0.00     0.157 HD
ENDBRANCH   4  26
BRANCH   1  29
HETATM   29  C2  UNL     1       9.381  43.430  65.921  1.00  0.00     0.072 C 
HETATM   30  C1  UNL     1      10.808  43.096  66.313  1.00  0.00     0.013 C 
ENDBRANCH   1  29
TORSDOF 6
ENDMDL
MODEL 4
REMARK VINA RESULT: -7.915583740      2.602      3.876
REMARK  6 active torsions:
REMARK  status: ('A' for Active; 'I' for Inactive)
REMARK    1  A    between atoms: C2_2  and  C3_3 
REMARK    2  A    between atoms: C4_6  and  N2_7 
REMARK    3  A    between atoms: N4_15  and  C7_16 
REMARK    4  A    between atoms: C7_16  and  C8_17 
REMARK    5  A    between atoms: C9_18  and  C10_19 
REMARK    6  A    between atoms: C15_25  and  O1_26 
ROOT
HETATM    1  C3  UNL     1       7.968  44.379  63.251  1.00  0.00     0.083 A 
HETATM    2  N1  UNL     1       6.835  44.205  63.941  1.00  0.00    -0.330 N 
ATOM      3  H1  UNL     1       6.892  44.242  64.959  1.00  0.00     0.168 HD
HETATM    4  C4  UNL     1       5.636  43.987  63.397  1.00  0.00     0.131 A 
HETATM    5  C5  UNL     1       5.567  43.938  62.011  1.00  0.00     0.123 A 
HETATM    6  N3  UNL     1       4.582  43.748  61.111  1.00  0.00    -0.330 N 
ATOM      7  H3  UNL     1       3.599  43.587  61.331  1.00  0.00     0.168 HD
HETATM    8  C6  UNL     1       5.112  43.805  59.868  1.00  0.00     0.158 A 
HETATM    9 BR1  UNL     1       4.132  43.596  58.258  1.00  0.00    -0.010 Br
HETATM   10  N4  UNL     1       6.436  44.032  59.952  1.00  0.00    -0.308 N 
HETATM   11  C17 UNL     1       6.715  44.115  61.281  1.00  0.00     0.142 A 
HETATM   12  N5  UNL     1       7.884  44.329  61.907  1.00  0.00    -0.330 N 
ATOM     13  H5  UNL     1       8.729  44.458  61.352  1.00  0.00     0.168 HD
ENDROOT
BRANCH  10  14
HETATM   14  C7  UNL     1       7.385  44.165  58.866  1.00  0.00     0.160 C 
BRANCH  14  15
HETATM   15  C8  UNL     1       8.000  42.834  58.551  1.00  0.00    -0.006 C 
HETATM   16  C9  UNL     1       7.532  42.155  57.544  1.00  0.00     0.012 C 
BRANCH  16  17
HETATM   17  C10 UNL     1       7.948  40.863  57.043  1.00  0.00    -0.003 A 
HETATM   18  C11 UNL     1       9.052  40.200  57.590  1.00  0.00     0.015 A 
HETATM   19  C12 UNL     1       9.488  38.971  57.150  1.00  0.00     0.020 A 
HETATM   20  C13 UNL     1       8.851  38.321  56.135  1.00  0.00     0.013 A 
HETATM   21 BR2  UNL     1       9.415  36.615  55.485  1.00  0.00    -0.051 Br
HETATM   22  C14 UNL     1       7.762  38.937  55.568  1.00  0.00     0.056 A 
HETATM   23  C15 UNL     1       7.323  40.191  56.023  1.00  0.00     0.079 A 
BRANCH  23  24
HETATM   24  O1  UNL     1       6.233  40.703  55.387  1.00  0.00    -0.355 OA
HETATM   25  C16 UNL     1       6.177  41.073  54.041  1.00  0.00     0.210 C 
ENDBRANCH  23  24
ENDBRANCH  16  17
ENDBRANCH  14  15
ENDBRANCH  10  14
BRANCH   4  26
HETATM   26  N2  UNL     1       4.573  43.825  64.096  1.00  0.00    -0.383 N 
ATOM     27  H22 UNL     1       4.106  44.634  64.504  1.00  0.00     0.157 HD
ATOM     28  H21 UNL     1       4.160  42.909  64.271  1.00  0.00     0.157 HD
ENDBRANCH   4  26
BRANCH   1  29
HETATM   29  C2  UNL     1       9.292  44.620  63.869  1.00  0.00     0.072 C 
HETATM   30  C1  UNL     1       9.267  44.201  65.327  1.00  0.00     0.013 C 
ENDBRANCH   1  29
TORSDOF 6
ENDMDL
MODEL 5
REMARK VINA RESULT: -7.869938455      1.270      1.493
REMARK  6 active torsions:
REMARK  status: ('A' for Active; 'I' for Inactive)
REMARK    1  A    between atoms: C2_2  and  C3_3 
REMARK    2  A    between atoms: C4_6  and  N2_7 
REMARK    3  A    between atoms: N4_15  and  C7_16 
REMARK    4  A    between atoms: C7_16  and  C8_17 
REMARK    5  A    between atoms: C9_18  and  C10_19 
REMARK    6  A    between atoms: C15_25  and  O1_26 
ROOT
HETATM    1  C3  UNL     1      11.490  44.432  64.535  1.00  0.00     0.083 A 
HETATM    2  N1  UNL     1      10.925  43.979  65.660  1.00  0.00    -0.330 N 
ATOM      3  H1  UNL     1      11.544  43.695  66.419  1.00  0.00     0.168 HD
HETATM    4  C4  UNL     1       9.610  43.872  65.863  1.00  0.00     0.131 A 
HETATM    5  C5  UNL     1       8.773  44.260  64.826  1.00  0.00     0.123 A 
HETATM    6  N3  UNL     1       7.439  44.305  64.642  1.00  0.00    -0.330 N 
ATOM      7  H3  UNL     1       6.736  44.023  65.324  1.00  0.00     0.168 HD
HETATM    8  C6  UNL     1       7.187  44.785  63.403  1.00  0.00     0.158 A 
HETATM    9 BR1  UNL     1       5.458  45.037  62.666  1.00  0.00    -0.010 Br
HETATM   10  N4  UNL     1       8.348  45.054  62.778  1.00  0.00    -0.308 N 
HETATM   11  C17 UNL     1       9.330  44.729  63.662  1.00  0.00     0.142 A 
HETATM   12  N5  UNL     1      10.665  44.805  63.538  1.00  0.00    -0.330 N 
ATOM     13  H5  UNL     1      11.064  45.154  62.667  1.00  0.00     0.168 HD
ENDROOT
BRANCH  10  14
HETATM   14  C7  UNL     1       8.536  45.581  61.442  1.00  0.00     0.160 C 
BRANCH  14  15
HETATM   15  C8  UNL     1       8.617  44.459  60.450  1.00  0.00    -0.006 C 
HETATM   16  C9  UNL     1       7.606  43.645  60.351  1.00  0.00     0.012 C 
BRANCH  16  17
HETATM   17  C10 UNL     1       7.441  42.500  59.482  1.00  0.00    -0.003 A 
HETATM   18  C11 UNL     1       8.360  42.231  58.461  1.00  0.00     0.015 A 
HETATM   19  C12 UNL     1       8.247  41.156  57.609  1.00  0.00     0.020 A 
HETATM   20  C13 UNL     1       7.211  40.277  57.718  1.00  0.00     0.013 A 
HETATM   21 BR2  UNL     1       7.007  38.770  56.562  1.00  0.00    -0.051 Br
HETATM   22  C14 UNL     1       6.285  40.503  58.707  1.00  0.00     0.056 A 
HETATM   23  C15 UNL     1       6.406  41.602  59.573  1.00  0.00     0.079 A 
BRANCH  23  24
HETATM   24  O1  UNL     1       5.430  41.725  60.515  1.00  0.00    -0.355 OA
HETATM   25  C16 UNL     1       4.132  42.189  60.284  1.00  0.00     0.210 C 
ENDBRANCH  23  24
ENDBRANCH  16  17
ENDBRANCH  14  15
ENDBRANCH  10  14
BRANCH   4  26
HETATM   26  N2  UNL     1       9.108  43.433  66.958  1.00  0.00    -0.383 N 
ATOM     27  H22 UNL     1       8.110  43.229  67.014  1.00  0.00     0.157 HD
ATOM     28  H21 UNL     1       9.665  43.274  67.798  1.00  0.00     0.157 HD
ENDBRANCH   4  26
BRANCH   1  29
HETATM   29  C2  UNL     1      12.952  44.545  64.324  1.00  0.00     0.072 C 
HETATM   30  C1  UNL     1      13.691  43.761  65.392  1.00  0.00     0.013 C 
ENDBRANCH   1  29
TORSDOF 6
ENDMDL
