MODEL 1
REMARK VINA RESULT: -7.236861141      0.000      0.000
REMARK  9 active torsions:
REMARK  status: ('A' for Active; 'I' for Inactive)
REMARK    1  A    between atoms: C3_3  and  C4_4 
REMARK    2  A    between atoms: C4_4  and  C5_5 
REMARK    3  A    between atoms: C4_4  and  C9_10 
REMARK    4  A    between atoms: C5_5  and  O1_7 
REMARK    5  A    between atoms: O1_7  and  C7_8 
REMARK    6  A    between atoms: C12_14  and  C13_15 
REMARK    7  A    between atoms: C19_22  and  O3_23 
REMARK    8  A    between atoms: C19_22  and  C20_25 
REMARK    9  A    between atoms: C22_27  and  O4_28 
ROOT
HETATM    1  C1  UNL     1       4.080  44.874  64.389  1.00  0.00     0.112 C 
HETATM    2  C2  UNL     1       5.372  45.156  63.721  1.00  0.00    -0.111 C 
HETATM    3  C3  UNL     1       6.410  45.393  63.161  1.00  0.00    -0.097 C 
ENDROOT
BRANCH   3   4
HETATM    4  C4  UNL     1       7.660  45.703  62.414  1.00  0.00     0.125 C 
BRANCH   4   5
HETATM    5  C5  UNL     1       8.833  45.495  63.353  1.00  0.00     0.135 C 
HETATM    6  C6  UNL     1      10.155  45.623  62.664  1.00  0.00     0.041 C 
BRANCH   5   7
HETATM    7  O1  UNL     1       8.699  44.179  63.845  1.00  0.00    -0.385 OA
BRANCH   7   8
HETATM    8  C7  UNL     1       8.923  44.160  65.221  1.00  0.00     0.163 C 
HETATM    9  C8  UNL     1      10.347  43.793  65.523  1.00  0.00     0.033 C 
ENDBRANCH   7   8
ENDBRANCH   5   7
ENDBRANCH   4   5
BRANCH   4  10
HETATM   10  C9  UNL     1       7.701  45.185  61.087  1.00  0.00     0.179 C 
HETATM   11  O2  UNL     1       6.484  44.406  60.795  1.00  0.00    -0.341 OA
HETATM   12  C10 UNL     1       6.795  43.357  59.912  1.00  0.00     0.079 A 
HETATM   13  C11 UNL     1       6.267  42.096  60.038  1.00  0.00     0.050 A 
HETATM   14  C18 UNL     1       7.724  43.715  58.904  1.00  0.00     0.013 A 
HETATM   15  C12 UNL     1       6.629  41.057  59.167  1.00  0.00    -0.015 A 
HETATM   16  C16 UNL     1       7.524  41.387  58.193  1.00  0.00     0.022 A 
HETATM   17 BR1  UNL     1       8.035  40.086  56.864  1.00  0.00    -0.050 Br
HETATM   18  C17 UNL     1       8.043  42.683  58.083  1.00  0.00     0.033 A 
HETATM   19  C19 UNL     1       8.237  45.057  58.741  1.00  0.00     0.115 C 
HETATM   20  C22 UNL     1       7.823  46.046  59.866  1.00  0.00     0.188 C 
BRANCH  15  21
HETATM   21  C13 UNL     1       6.246  39.665  59.445  1.00  0.00    -0.076 C 
HETATM   22  C14 UNL     1       7.120  38.874  60.354  1.00  0.00     0.044 C 
HETATM   23  C15 UNL     1       4.797  39.345  59.560  1.00  0.00     0.044 C 
ENDBRANCH  15  21
BRANCH  19  24
HETATM   24  O3  UNL     1       9.657  44.953  58.947  1.00  0.00    -0.382 OA
ATOM     25  H3  UNL     1      10.023  44.763  58.092  1.00  0.00     0.211 HD
ENDBRANCH  19  24
BRANCH  19  26
HETATM   26  C20 UNL     1       8.041  45.736  57.436  1.00  0.00     0.041 C 
HETATM   27  C21 UNL     1       6.701  46.327  57.124  1.00  0.00     0.009 C 
ENDBRANCH  19  26
BRANCH  20  28
HETATM   28  O4  UNL     1       8.819  46.990  59.925  1.00  0.00    -0.390 OA
ATOM     29  H4  UNL     1       9.297  47.115  59.115  1.00  0.00     0.210 HD
ENDBRANCH  20  28
ENDBRANCH   4  10
ENDBRANCH   3   4
TORSDOF 9
ENDMDL
MODEL 2
REMARK VINA RESULT: -6.856295569      2.846      6.270
REMARK  9 active torsions:
REMARK  status: ('A' for Active; 'I' for Inactive)
REMARK    1  A    between atoms: C3_3  and  C4_4 
REMARK    2  A    between atoms: C4_4  and  C5_5 
REMARK    3  A    between atoms: C4_4  and  C9_10 
REMARK    4  A    between atoms: C5_5  and  O1_7 
REMARK    5  A    between atoms: O1_7  and  C7_8 
REMARK    6  A    between atoms: C12_14  and  C13_15 
REMARK    7  A    between atoms: C19_22  and  O3_23 
REMARK    8  A    between atoms: C19_22  and  C20_25 
REMARK    9  A    between atoms: C22_27  and  O4_28 
ROOT
HETATM    1  C1  UNL     1       8.661  39.873  57.826  1.00  0.00     0.112 C 
HETATM    2  C2  UNL     1       8.333  41.301  58.052  1.00  0.00    -0.111 C 
HETATM    3  C3  UNL     1       8.078  42.465  58.216  1.00  0.00    -0.097 C 
ENDROOT
BRANCH   3   4
HETATM    4  C4  UNL     1       7.795  43.919  58.365  1.00  0.00     0.125 C 
BRANCH   4   5
HETATM    5  C5  UNL     1       6.807  44.320  57.287  1.00  0.00     0.135 C 
HETATM    6  C6  UNL     1       6.214  45.674  57.519  1.00  0.00     0.041 C 
BRANCH   5   7
HETATM    7  O1  UNL     1       5.778  43.356  57.335  1.00  0.00    -0.385 OA
BRANCH   7   8
HETATM    8  C7  UNL     1       5.189  43.224  56.078  1.00  0.00     0.163 C 
HETATM    9  C8  UNL     1       6.009  42.326  55.197  1.00  0.00     0.033 C 
ENDBRANCH   7   8
ENDBRANCH   5   7
ENDBRANCH   4   5
BRANCH   4  10
HETATM   10  C9  UNL     1       7.606  44.350  59.710  1.00  0.00     0.179 C 
HETATM   11  O2  UNL     1       6.966  43.291  60.511  1.00  0.00    -0.341 OA
HETATM   12  C10 UNL     1       6.146  43.871  61.494  1.00  0.00     0.079 A 
HETATM   13  C11 UNL     1       4.913  43.367  61.826  1.00  0.00     0.050 A 
HETATM   14  C18 UNL     1       6.696  45.036  62.082  1.00  0.00     0.013 A 
HETATM   15  C12 UNL     1       4.097  43.993  62.781  1.00  0.00    -0.015 A 
HETATM   16  C16 UNL     1       4.613  45.117  63.355  1.00  0.00     0.022 A 
HETATM   17 BR1  UNL     1       3.646  46.024  64.755  1.00  0.00    -0.050 Br
HETATM   18  C17 UNL     1       5.877  45.606  63.001  1.00  0.00     0.033 A 
HETATM   19  C19 UNL     1       8.017  45.533  61.768  1.00  0.00     0.115 C 
HETATM   20  C22 UNL     1       8.727  44.787  60.604  1.00  0.00     0.188 C 
BRANCH  15  21
HETATM   21  C13 UNL     1       2.695  43.590  62.963  1.00  0.00    -0.076 C 
HETATM   22  C14 UNL     1       1.675  44.206  62.072  1.00  0.00     0.044 C 
HETATM   23  C15 UNL     1       2.413  42.175  63.326  1.00  0.00     0.044 C 
ENDBRANCH  15  21
BRANCH  19  24
HETATM   24  O3  UNL     1       7.811  46.839  61.201  1.00  0.00    -0.382 OA
ATOM     25  H3  UNL     1       7.005  46.773  60.702  1.00  0.00     0.211 HD
ENDBRANCH  19  24
BRANCH  19  26
HETATM   26  C20 UNL     1       8.994  45.695  62.874  1.00  0.00     0.041 C 
HETATM   27  C21 UNL     1       9.117  44.605  63.894  1.00  0.00     0.009 C 
ENDBRANCH  19  26
BRANCH  20  28
HETATM   28  O4  UNL     1       9.590  45.696  60.043  1.00  0.00    -0.390 OA
ATOM     29  H4  UNL     1      10.443  45.346  59.815  1.00  0.00     0.210 HD
ENDBRANCH  20  28
ENDBRANCH   4  10
ENDBRANCH   3   4
TORSDOF 9
ENDMDL
MODEL 3
REMARK VINA RESULT: -6.855484499      2.789      6.044
REMARK  9 active torsions:
REMARK  status: ('A' for Active; 'I' for Inactive)
REMARK    1  A    between atoms: C3_3  and  C4_4 
REMARK    2  A    between atoms: C4_4  and  C5_5 
REMARK    3  A    between atoms: C4_4  and  C9_10 
REMARK    4  A    between atoms: C5_5  and  O1_7 
REMARK    5  A    between atoms: O1_7  and  C7_8 
REMARK    6  A    between atoms: C12_14  and  C13_15 
REMARK    7  A    between atoms: C19_22  and  O3_23 
REMARK    8  A    between atoms: C19_22  and  C20_25 
REMARK    9  A    between atoms: C22_27  and  O4_28 
ROOT
HETATM    1  C1  UNL     1       8.282  40.223  57.658  1.00  0.00     0.112 C 
HETATM    2  C2  UNL     1       8.186  41.646  58.063  1.00  0.00    -0.111 C 
HETATM    3  C3  UNL     1       8.123  42.805  58.375  1.00  0.00    -0.097 C 
ENDROOT
BRANCH   3   4
HETATM    4  C4  UNL     1       8.089  44.255  58.716  1.00  0.00     0.125 C 
BRANCH   4   5
HETATM    5  C5  UNL     1       7.368  44.985  57.599  1.00  0.00     0.135 C 
HETATM    6  C6  UNL     1       7.354  46.468  57.793  1.00  0.00     0.041 C 
BRANCH   5   7
HETATM    7  O1  UNL     1       6.041  44.506  57.625  1.00  0.00    -0.385 OA
BRANCH   7   8
HETATM    8  C7  UNL     1       5.155  45.568  57.804  1.00  0.00     0.163 C 
HETATM    9  C8  UNL     1       4.028  45.171  58.714  1.00  0.00     0.033 C 
ENDBRANCH   7   8
ENDBRANCH   5   7
ENDBRANCH   4   5
BRANCH   4  10
HETATM   10  C9  UNL     1       7.776  44.535  60.077  1.00  0.00     0.179 C 
HETATM   11  O2  UNL     1       7.021  43.420  60.679  1.00  0.00    -0.341 OA
HETATM   12  C10 UNL     1       6.123  43.920  61.637  1.00  0.00     0.079 A 
HETATM   13  C11 UNL     1       4.845  43.438  61.783  1.00  0.00     0.050 A 
HETATM   14  C18 UNL     1       6.648  44.982  62.413  1.00  0.00     0.013 A 
HETATM   15  C12 UNL     1       3.956  43.986  62.720  1.00  0.00    -0.015 A 
HETATM   16  C16 UNL     1       4.448  45.011  63.473  1.00  0.00     0.022 A 
HETATM   17 BR1  UNL     1       3.371  45.792  64.870  1.00  0.00    -0.050 Br
HETATM   18  C17 UNL     1       5.758  45.479  63.308  1.00  0.00     0.033 A 
HETATM   19  C19 UNL     1       8.011  45.451  62.294  1.00  0.00     0.115 C 
HETATM   20  C22 UNL     1       8.812  44.813  61.125  1.00  0.00     0.188 C 
BRANCH  15  21
HETATM   21  C13 UNL     1       2.530  43.629  62.712  1.00  0.00    -0.076 C 
HETATM   22  C14 UNL     1       1.753  43.904  61.473  1.00  0.00     0.044 C 
HETATM   23  C15 UNL     1       2.110  42.398  63.436  1.00  0.00     0.044 C 
ENDBRANCH  15  21
BRANCH  19  24
HETATM   24  O3  UNL     1       7.910  46.821  61.870  1.00  0.00    -0.382 OA
ATOM     25  H3  UNL     1       8.176  47.339  62.621  1.00  0.00     0.211 HD
ENDBRANCH  19  24
BRANCH  19  26
HETATM   26  C20 UNL     1       8.872  45.437  63.503  1.00  0.00     0.041 C 
HETATM   27  C21 UNL     1       8.795  44.264  64.431  1.00  0.00     0.009 C 
ENDBRANCH  19  26
BRANCH  20  28
HETATM   28  O4  UNL     1       9.759  45.740  60.765  1.00  0.00    -0.390 OA
ATOM     29  H4  UNL     1      10.480  45.393  60.254  1.00  0.00     0.210 HD
ENDBRANCH  20  28
ENDBRANCH   4  10
ENDBRANCH   3   4
TORSDOF 9
ENDMDL
MODEL 4
REMARK VINA RESULT: -6.571907302      3.454      7.113
REMARK  9 active torsions:
REMARK  status: ('A' for Active; 'I' for Inactive)
REMARK    1  A    between atoms: C3_3  and  C4_4 
REMARK    2  A    between atoms: C4_4  and  C5_5 
REMARK    3  A    between atoms: C4_4  and  C9_10 
REMARK    4  A    between atoms: C5_5  and  O1_7 
REMARK    5  A    between atoms: O1_7  and  C7_8 
REMARK    6  A    between atoms: C12_14  and  C13_15 
REMARK    7  A    between atoms: C19_22  and  O3_23 
REMARK    8  A    between atoms: C19_22  and  C20_25 
REMARK    9  A    between atoms: C22_27  and  O4_28 
ROOT
HETATM    1  C1  UNL     1      10.299  37.168  57.137  1.00  0.00     0.112 C 
HETATM    2  C2  UNL     1       9.458  38.382  57.023  1.00  0.00    -0.111 C 
HETATM    3  C3  UNL     1       8.760  39.356  56.918  1.00  0.00    -0.097 C 
ENDROOT
BRANCH   3   4
HETATM    4  C4  UNL     1       7.857  40.528  56.748  1.00  0.00     0.125 C 
BRANCH   4   5
HETATM    5  C5  UNL     1       7.039  40.314  55.488  1.00  0.00     0.135 C 
HETATM    6  C6  UNL     1       6.150  41.474  55.171  1.00  0.00     0.041 C 
BRANCH   5   7
HETATM    7  O1  UNL     1       6.239  39.180  55.742  1.00  0.00    -0.385 OA
BRANCH   7   8
HETATM    8  C7  UNL     1       6.030  38.470  54.560  1.00  0.00     0.163 C 
HETATM    9  C8  UNL     1       6.883  37.235  54.524  1.00  0.00     0.033 C 
ENDBRANCH   7   8
ENDBRANCH   5   7
ENDBRANCH   4   5
BRANCH   4  10
HETATM   10  C9  UNL     1       7.227  40.969  57.947  1.00  0.00     0.179 C 
HETATM   11  O2  UNL     1       7.225  39.896  58.959  1.00  0.00    -0.341 OA
HETATM   12  C10 UNL     1       6.070  39.999  59.755  1.00  0.00     0.079 A 
HETATM   13  C11 UNL     1       5.349  38.904  60.164  1.00  0.00     0.050 A 
HETATM   14  C18 UNL     1       5.708  41.332  60.066  1.00  0.00     0.013 A 
HETATM   15  C12 UNL     1       4.176  39.040  60.922  1.00  0.00    -0.015 A 
HETATM   16  C16 UNL     1       3.813  40.319  61.228  1.00  0.00     0.022 A 
HETATM   17 BR1  UNL     1       2.280  40.651  62.349  1.00  0.00    -0.050 Br
HETATM   18  C17 UNL     1       4.572  41.417  60.802  1.00  0.00     0.033 A 
HETATM   19  C19 UNL     1       6.500  42.479  59.679  1.00  0.00     0.115 C 
HETATM   20  C22 UNL     1       7.696  42.150  58.743  1.00  0.00     0.188 C 
BRANCH  15  21
HETATM   21  C13 UNL     1       3.286  37.893  61.156  1.00  0.00    -0.076 C 
HETATM   22  C14 UNL     1       2.166  37.678  60.201  1.00  0.00     0.044 C 
HETATM   23  C15 UNL     1       3.885  36.639  61.688  1.00  0.00     0.044 C 
ENDBRANCH  15  21
BRANCH  19  24
HETATM   24  O3  UNL     1       5.653  43.255  58.814  1.00  0.00    -0.382 OA
ATOM     25  H3  UNL     1       4.806  42.826  58.837  1.00  0.00     0.211 HD
ENDBRANCH  19  24
BRANCH  19  26
HETATM   26  C20 UNL     1       6.984  43.395  60.741  1.00  0.00     0.041 C 
HETATM   27  C21 UNL     1       6.340  44.739  60.885  1.00  0.00     0.009 C 
ENDBRANCH  19  26
BRANCH  20  28
HETATM   28  O4  UNL     1       7.923  43.286  58.006  1.00  0.00    -0.390 OA
ATOM     29  H4  UNL     1       7.755  43.197  57.076  1.00  0.00     0.210 HD
ENDBRANCH  20  28
ENDBRANCH   4  10
ENDBRANCH   3   4
TORSDOF 9
ENDMDL
MODEL 5
REMARK VINA RESULT: -6.453560057      1.916      4.602
REMARK  9 active torsions:
REMARK  status: ('A' for Active; 'I' for Inactive)
REMARK    1  A    between atoms: C3_3  and  C4_4 
REMARK    2  A    between atoms: C4_4  and  C5_5 
REMARK    3  A    between atoms: C4_4  and  C9_10 
REMARK    4  A    between atoms: C5_5  and  O1_7 
REMARK    5  A    between atoms: O1_7  and  C7_8 
REMARK    6  A    between atoms: C12_14  and  C13_15 
REMARK    7  A    between atoms: C19_22  and  O3_23 
REMARK    8  A    between atoms: C19_22  and  C20_25 
REMARK    9  A    between atoms: C22_27  and  O4_28 
ROOT
HETATM    1  C1  UNL     1      10.894  45.267  63.862  1.00  0.00     0.112 C 
HETATM    2  C2  UNL     1       9.899  45.287  62.764  1.00  0.00    -0.111 C 
HETATM    3  C3  UNL     1       9.078  45.315  61.886  1.00  0.00    -0.097 C 
ENDROOT
BRANCH   3   4
HETATM    4  C4  UNL     1       8.020  45.382  60.839  1.00  0.00     0.125 C 
BRANCH   4   5
HETATM    5  C5  UNL     1       8.670  45.819  59.540  1.00  0.00     0.135 C 
HETATM    6  C6  UNL     1       8.203  47.164  59.083  1.00  0.00     0.041 C 
BRANCH   5   7
HETATM    7  O1  UNL     1       8.295  44.853  58.582  1.00  0.00    -0.385 OA
BRANCH   7   8
HETATM    8  C7  UNL     1       7.328  45.381  57.728  1.00  0.00     0.163 C 
HETATM    9  C8  UNL     1       6.336  44.325  57.332  1.00  0.00     0.033 C 
ENDBRANCH   7   8
ENDBRANCH   5   7
ENDBRANCH   4   5
BRANCH   4  10
HETATM   10  C9  UNL     1       7.104  44.291  60.853  1.00  0.00     0.179 C 
HETATM   11  O2  UNL     1       7.825  43.005  60.893  1.00  0.00    -0.341 OA
HETATM   12  C10 UNL     1       7.091  42.030  60.195  1.00  0.00     0.079 A 
HETATM   13  C11 UNL     1       7.682  41.100  59.376  1.00  0.00     0.050 A 
HETATM   14  C18 UNL     1       5.692  42.118  60.394  1.00  0.00     0.013 A 
HETATM   15  C12 UNL     1       6.920  40.165  58.659  1.00  0.00    -0.015 A 
HETATM   16  C16 UNL     1       5.570  40.239  58.839  1.00  0.00     0.022 A 
HETATM   17 BR1  UNL     1       4.407  38.952  57.995  1.00  0.00    -0.050 Br
HETATM   18  C17 UNL     1       4.995  41.195  59.685  1.00  0.00     0.033 A 
HETATM   19  C19 UNL     1       5.078  43.064  61.299  1.00  0.00     0.115 C 
HETATM   20  C22 UNL     1       6.061  44.099  61.913  1.00  0.00     0.188 C 
BRANCH  15  21
HETATM   21  C13 UNL     1       7.529  39.331  57.612  1.00  0.00    -0.076 C 
HETATM   22  C14 UNL     1       7.722  39.938  56.267  1.00  0.00     0.044 C 
HETATM   23  C15 UNL     1       8.599  38.377  58.011  1.00  0.00     0.044 C 
ENDBRANCH  15  21
BRANCH  19  24
HETATM   24  O3  UNL     1       4.247  43.900  60.474  1.00  0.00    -0.382 OA
ATOM     25  H3  UNL     1       3.702  44.391  61.079  1.00  0.00     0.211 HD
ENDBRANCH  19  24
BRANCH  19  26
HETATM   26  C20 UNL     1       4.217  42.544  62.389  1.00  0.00     0.041 C 
HETATM   27  C21 UNL     1       2.736  42.749  62.300  1.00  0.00     0.009 C 
ENDBRANCH  19  26
BRANCH  20  28
HETATM   28  O4  UNL     1       5.312  45.215  62.191  1.00  0.00    -0.390 OA
ATOM     29  H4  UNL     1       4.509  45.290  61.689  1.00  0.00     0.210 HD
ENDBRANCH  20  28
ENDBRANCH   4  10
ENDBRANCH   3   4
TORSDOF 9
ENDMDL
