MODEL 1
REMARK VINA RESULT: -7.569780061      0.000      0.000
REMARK  8 active torsions:
REMARK  status: ('A' for Active; 'I' for Inactive)
REMARK    1  A    between atoms: C8_8  and  O1_9 
REMARK    2  A    between atoms: C9_11  and  C10_12 
REMARK    3  A    between atoms: C10_12  and  C12_14 
REMARK    4  A    between atoms: C12_14  and  C13_15 
REMARK    5  A    between atoms: C12_14  and  C14_17 
REMARK    6  A    between atoms: C14_17  and  C15_18 
REMARK    7  A    between atoms: C15_18  and  C16_19 
REMARK    8  A    between atoms: C22_29  and  O3_30 
ROOT
HETATM    1  C1  UNL     1       5.269  37.818  55.904  1.00  0.00     0.015 C 
HETATM    2  C2  UNL     1       6.000  38.761  56.413  1.00  0.00    -0.073 C 
HETATM    3  C3  UNL     1       7.043  39.595  55.703  1.00  0.00     0.022 C 
HETATM    4  C4  UNL     1       8.353  38.954  56.079  1.00  0.00     0.010 C 
HETATM    5  C5  UNL     1       8.563  38.927  57.541  1.00  0.00     0.006 C 
HETATM    6  C6  UNL     1       7.374  38.915  58.400  1.00  0.00     0.003 C 
HETATM    7  C7  UNL     1       7.702  39.693  59.656  1.00  0.00     0.038 C 
HETATM    8  C8  UNL     1       7.667  41.199  59.340  1.00  0.00     0.126 C 
HETATM    9  C9  UNL     1       6.331  41.508  58.805  1.00  0.00     0.054 C 
HETATM   10  C20 UNL     1       5.962  40.813  57.491  1.00  0.00     0.083 C 
HETATM   11  O2  UNL     1       4.643  41.155  57.321  1.00  0.00    -0.376 OA
HETATM   12  C21 UNL     1       4.087  41.272  56.118  1.00  0.00     0.200 C 
HETATM   13  C22 UNL     1       4.903  41.701  54.958  1.00  0.00     0.142 C 
HETATM   14  C23 UNL     1       6.356  41.866  55.224  1.00  0.00     0.042 C 
HETATM   15  C24 UNL     1       6.864  40.975  56.358  1.00  0.00     0.032 C 
HETATM   16  C25 UNL     1       6.065  39.304  57.787  1.00  0.00     0.015 C 
HETATM   17  C26 UNL     1       4.925  38.954  58.672  1.00  0.00     0.023 C 
ENDROOT
BRANCH   9  18
HETATM   18  C10 UNL     1       5.791  42.873  58.945  1.00  0.00    -0.003 C 
HETATM   19  C11 UNL     1       6.684  43.950  58.382  1.00  0.00     0.011 C 
BRANCH  18  20
HETATM   20  C12 UNL     1       5.295  43.313  60.296  1.00  0.00     0.019 C 
BRANCH  20  21
HETATM   21  C13 UNL     1       3.856  43.582  60.383  1.00  0.00     0.227 C 
HETATM   22  F1  UNL     1       3.145  42.603  59.740  1.00  0.00    -0.255 F 
ENDBRANCH  20  21
BRANCH  20  23
HETATM   23  C14 UNL     1       6.031  44.631  60.535  1.00  0.00     0.012 C 
BRANCH  23  24
HETATM   24  C15 UNL     1       6.337  44.983  61.937  1.00  0.00     0.042 C 
BRANCH  24  25
HETATM   25  C16 UNL     1       7.820  45.157  62.133  1.00  0.00    -0.024 A 
HETATM   26  C17 UNL     1       8.704  45.330  61.102  1.00  0.00     0.115 A 
HETATM   27  N1  UNL     1       9.910  45.448  61.631  1.00  0.00    -0.310 N 
HETATM   28  N2  UNL     1       9.868  45.364  62.947  1.00  0.00    -0.308 N 
ATOM     29  H1  UNL     1      10.764  45.588  61.090  1.00  0.00     0.186 HD
HETATM   30  C18 UNL     1      10.997  45.450  63.852  1.00  0.00     0.177 C 
HETATM   31  C19 UNL     1       8.557  45.179  63.289  1.00  0.00     0.118 A 
ENDBRANCH  24  25
ENDBRANCH  23  24
ENDBRANCH  20  23
ENDBRANCH  18  20
ENDBRANCH   9  18
BRANCH   8  32
HETATM   32  O1  UNL     1       7.857  41.810  60.561  1.00  0.00    -0.395 OA
ATOM     33  H1  UNL     1       8.286  42.631  60.350  1.00  0.00     0.210 HD
ENDBRANCH   8  32
BRANCH  13  34
HETATM   34  O3  UNL     1       4.760  40.805  53.870  1.00  0.00    -0.393 OA
ATOM     35  H3  UNL     1       5.521  40.243  53.785  1.00  0.00     0.210 HD
ENDBRANCH  13  34
TORSDOF 8
ENDMDL
MODEL 2
REMARK VINA RESULT: -7.102943776      1.416      1.703
REMARK  8 active torsions:
REMARK  status: ('A' for Active; 'I' for Inactive)
REMARK    1  A    between atoms: C8_8  and  O1_9 
REMARK    2  A    between atoms: C9_11  and  C10_12 
REMARK    3  A    between atoms: C10_12  and  C12_14 
REMARK    4  A    between atoms: C12_14  and  C13_15 
REMARK    5  A    between atoms: C12_14  and  C14_17 
REMARK    6  A    between atoms: C14_17  and  C15_18 
REMARK    7  A    between atoms: C15_18  and  C16_19 
REMARK    8  A    between atoms: C22_29  and  O3_30 
ROOT
HETATM    1  C1  UNL     1       4.844  38.470  56.906  1.00  0.00     0.015 C 
HETATM    2  C2  UNL     1       5.445  39.556  57.283  1.00  0.00    -0.073 C 
HETATM    3  C3  UNL     1       5.868  40.717  56.412  1.00  0.00     0.022 C 
HETATM    4  C4  UNL     1       7.338  40.490  56.173  1.00  0.00     0.010 C 
HETATM    5  C5  UNL     1       8.106  40.430  57.433  1.00  0.00     0.006 C 
HETATM    6  C6  UNL     1       7.400  39.993  58.642  1.00  0.00     0.003 C 
HETATM    7  C7  UNL     1       7.982  40.747  59.818  1.00  0.00     0.038 C 
HETATM    8  C8  UNL     1       7.435  42.186  59.815  1.00  0.00     0.126 C 
HETATM    9  C9  UNL     1       5.967  42.102  59.857  1.00  0.00     0.054 C 
HETATM   10  C20 UNL     1       5.304  41.417  58.657  1.00  0.00     0.083 C 
HETATM   11  O2  UNL     1       3.985  41.345  59.035  1.00  0.00    -0.376 OA
HETATM   12  C21 UNL     1       2.991  41.365  58.151  1.00  0.00     0.200 C 
HETATM   13  C22 UNL     1       3.141  42.104  56.875  1.00  0.00     0.142 C 
HETATM   14  C23 UNL     1       4.484  42.692  56.631  1.00  0.00     0.042 C 
HETATM   15  C24 UNL     1       5.611  41.928  57.327  1.00  0.00     0.032 C 
HETATM   16  C25 UNL     1       5.903  39.998  58.618  1.00  0.00     0.015 C 
HETATM   17  C26 UNL     1       5.337  39.253  59.772  1.00  0.00     0.023 C 
ENDROOT
BRANCH   9  18
HETATM   18  C10 UNL     1       5.192  43.220  60.425  1.00  0.00    -0.003 C 
HETATM   19  C11 UNL     1       5.529  44.566  59.836  1.00  0.00     0.011 C 
BRANCH  18  20
HETATM   20  C12 UNL     1       5.117  43.352  61.922  1.00  0.00     0.019 C 
BRANCH  20  21
HETATM   21  C13 UNL     1       3.870  42.884  62.536  1.00  0.00     0.227 C 
HETATM   22  F1  UNL     1       3.800  41.516  62.496  1.00  0.00    -0.255 F 
ENDBRANCH  20  21
BRANCH  20  23
HETATM   23  C14 UNL     1       5.213  44.860  62.153  1.00  0.00     0.012 C 
BRANCH  23  24
HETATM   24  C15 UNL     1       5.827  45.307  63.422  1.00  0.00     0.042 C 
BRANCH  24  25
HETATM   25  C16 UNL     1       7.316  45.464  63.267  1.00  0.00    -0.024 A 
HETATM   26  C17 UNL     1       7.901  46.153  62.238  1.00  0.00     0.115 A 
HETATM   27  N1  UNL     1       9.210  46.090  62.414  1.00  0.00    -0.310 N 
HETATM   28  N2  UNL     1       9.516  45.401  63.498  1.00  0.00    -0.308 N 
ATOM     29  H1  UNL     1       9.895  46.518  61.792  1.00  0.00     0.186 HD
HETATM   30  C18 UNL     1      10.850  45.130  63.996  1.00  0.00     0.177 C 
HETATM   31  C19 UNL     1       8.336  44.995  64.054  1.00  0.00     0.118 A 
ENDBRANCH  24  25
ENDBRANCH  23  24
ENDBRANCH  20  23
ENDBRANCH  18  20
ENDBRANCH   9  18
BRANCH   8  32
HETATM   32  O1  UNL     1       7.927  42.742  60.977  1.00  0.00    -0.395 OA
ATOM     33  H1  UNL     1       8.849  42.882  60.799  1.00  0.00     0.210 HD
ENDBRANCH   8  32
BRANCH  13  34
HETATM   34  O3  UNL     1       2.819  41.283  55.766  1.00  0.00    -0.393 OA
ATOM     35  H3  UNL     1       2.065  41.619  55.297  1.00  0.00     0.210 HD
ENDBRANCH  13  34
TORSDOF 8
ENDMDL
MODEL 3
REMARK VINA RESULT: -6.996156446      2.461      4.495
REMARK  8 active torsions:
REMARK  status: ('A' for Active; 'I' for Inactive)
REMARK    1  A    between atoms: C8_8  and  O1_9 
REMARK    2  A    between atoms: C9_11  and  C10_12 
REMARK    3  A    between atoms: C10_12  and  C12_14 
REMARK    4  A    between atoms: C12_14  and  C13_15 
REMARK    5  A    between atoms: C12_14  and  C14_17 
REMARK    6  A    between atoms: C14_17  and  C15_18 
REMARK    7  A    between atoms: C15_18  and  C16_19 
REMARK    8  A    between atoms: C22_29  and  O3_30 
ROOT
HETATM    1  C1  UNL     1       6.769  41.450  56.178  1.00  0.00     0.015 C 
HETATM    2  C2  UNL     1       6.013  41.811  57.168  1.00  0.00    -0.073 C 
HETATM    3  C3  UNL     1       4.946  40.987  57.853  1.00  0.00     0.022 C 
HETATM    4  C4  UNL     1       3.655  41.466  57.243  1.00  0.00     0.010 C 
HETATM    5  C5  UNL     1       3.449  42.916  57.437  1.00  0.00     0.006 C 
HETATM    6  C6  UNL     1       4.639  43.759  57.592  1.00  0.00     0.003 C 
HETATM    7  C7  UNL     1       4.293  44.881  58.546  1.00  0.00     0.038 C 
HETATM    8  C8  UNL     1       4.285  44.334  59.985  1.00  0.00     0.126 C 
HETATM    9  C9  UNL     1       5.610  43.749  60.244  1.00  0.00     0.054 C 
HETATM   10  C20 UNL     1       5.996  42.557  59.363  1.00  0.00     0.083 C 
HETATM   11  O2  UNL     1       7.305  42.328  59.711  1.00  0.00    -0.376 OA
HETATM   12  C21 UNL     1       7.854  41.117  59.654  1.00  0.00     0.200 C 
HETATM   13  C22 UNL     1       7.025  39.910  59.875  1.00  0.00     0.142 C 
HETATM   14  C23 UNL     1       5.568  40.156  60.040  1.00  0.00     0.042 C 
HETATM   15  C24 UNL     1       5.087  41.419  59.323  1.00  0.00     0.032 C 
HETATM   16  C25 UNL     1       5.936  43.084  57.916  1.00  0.00     0.015 C 
HETATM   17  C26 UNL     1       7.087  44.005  57.740  1.00  0.00     0.023 C 
ENDROOT
BRANCH   9  18
HETATM   18  C10 UNL     1       6.112  43.672  61.628  1.00  0.00    -0.003 C 
HETATM   19  C11 UNL     1       5.064  43.295  62.644  1.00  0.00     0.011 C 
BRANCH  18  20
HETATM   20  C12 UNL     1       6.914  44.827  62.165  1.00  0.00     0.019 C 
BRANCH  20  21
HETATM   21  C13 UNL     1       7.721  45.549  61.178  1.00  0.00     0.227 C 
HETATM   22  F1  UNL     1       8.861  44.845  60.883  1.00  0.00    -0.255 F 
ENDBRANCH  20  21
BRANCH  20  23
HETATM   23  C14 UNL     1       7.871  44.165  63.157  1.00  0.00     0.012 C 
BRANCH  23  24
HETATM   24  C15 UNL     1       8.284  44.968  64.328  1.00  0.00     0.042 C 
BRANCH  24  25
HETATM   25  C16 UNL     1       9.518  44.387  64.965  1.00  0.00    -0.024 A 
HETATM   26  C17 UNL     1       9.485  43.525  66.029  1.00  0.00     0.115 A 
HETATM   27  N1  UNL     1      10.735  43.218  66.328  1.00  0.00    -0.310 N 
HETATM   28  N2  UNL     1      11.585  43.828  65.523  1.00  0.00    -0.308 N 
ATOM     29  H1  UNL     1      11.009  42.591  67.085  1.00  0.00     0.186 HD
HETATM   30  C18 UNL     1      13.031  43.723  65.559  1.00  0.00     0.177 C 
HETATM   31  C19 UNL     1      10.840  44.572  64.653  1.00  0.00     0.118 A 
ENDBRANCH  24  25
ENDBRANCH  23  24
ENDBRANCH  20  23
ENDBRANCH  18  20
ENDBRANCH   9  18
BRANCH   8  32
HETATM   32  O1  UNL     1       4.080  45.447  60.773  1.00  0.00    -0.395 OA
ATOM     33  H1  UNL     1       4.797  46.029  60.550  1.00  0.00     0.210 HD
ENDBRANCH   8  32
BRANCH  13  34
HETATM   34  O3  UNL     1       7.190  38.974  58.826  1.00  0.00    -0.393 OA
ATOM     35  H3  UNL     1       6.983  39.360  57.984  1.00  0.00     0.210 HD
ENDBRANCH  13  34
TORSDOF 8
ENDMDL
MODEL 4
REMARK VINA RESULT: -6.927725690      2.082      3.700
REMARK  8 active torsions:
REMARK  status: ('A' for Active; 'I' for Inactive)
REMARK    1  A    between atoms: C8_8  and  O1_9 
REMARK    2  A    between atoms: C9_11  and  C10_12 
REMARK    3  A    between atoms: C10_12  and  C12_14 
REMARK    4  A    between atoms: C12_14  and  C13_15 
REMARK    5  A    between atoms: C12_14  and  C14_17 
REMARK    6  A    between atoms: C14_17  and  C15_18 
REMARK    7  A    between atoms: C15_18  and  C16_19 
REMARK    8  A    between atoms: C22_29  and  O3_30 
ROOT
HETATM    1  C1  UNL     1       8.383  41.098  57.604  1.00  0.00     0.015 C 
HETATM    2  C2  UNL     1       7.271  41.730  57.823  1.00  0.00    -0.073 C 
HETATM    3  C3  UNL     1       5.982  41.613  57.042  1.00  0.00     0.022 C 
HETATM    4  C4  UNL     1       5.991  42.809  56.126  1.00  0.00     0.010 C 
HETATM    5  C5  UNL     1       6.077  44.082  56.870  1.00  0.00     0.006 C 
HETATM    6  C6  UNL     1       6.723  44.059  58.187  1.00  0.00     0.003 C 
HETATM    7  C7  UNL     1       6.023  45.074  59.065  1.00  0.00     0.038 C 
HETATM    8  C8  UNL     1       4.675  44.494  59.529  1.00  0.00     0.126 C 
HETATM    9  C9  UNL     1       4.954  43.227  60.224  1.00  0.00     0.054 C 
HETATM   10  C20 UNL     1       5.594  42.126  59.373  1.00  0.00     0.083 C 
HETATM   11  O2  UNL     1       5.876  41.149  60.296  1.00  0.00    -0.376 OA
HETATM   12  C21 UNL     1       5.896  39.856  59.979  1.00  0.00     0.200 C 
HETATM   13  C22 UNL     1       5.018  39.337  58.904  1.00  0.00     0.142 C 
HETATM   14  C23 UNL     1       4.238  40.364  58.165  1.00  0.00     0.042 C 
HETATM   15  C24 UNL     1       4.915  41.735  58.144  1.00  0.00     0.032 C 
HETATM   16  C25 UNL     1       6.912  42.731  58.851  1.00  0.00     0.015 C 
HETATM   17  C26 UNL     1       7.837  42.827  60.008  1.00  0.00     0.023 C 
ENDROOT
BRANCH   9  18
HETATM   18  C10 UNL     1       4.010  42.737  61.246  1.00  0.00    -0.003 C 
HETATM   19  C11 UNL     1       2.562  43.007  60.927  1.00  0.00     0.011 C 
BRANCH  18  20
HETATM   20  C12 UNL     1       4.264  43.094  62.686  1.00  0.00     0.019 C 
BRANCH  20  21
HETATM   21  C13 UNL     1       3.404  44.146  63.237  1.00  0.00     0.227 C 
HETATM   22  F1  UNL     1       2.989  43.813  64.500  1.00  0.00    -0.255 F 
ENDBRANCH  20  21
BRANCH  20  23
HETATM   23  C14 UNL     1       5.698  43.623  62.675  1.00  0.00     0.012 C 
BRANCH  23  24
HETATM   24  C15 UNL     1       5.940  44.919  63.344  1.00  0.00     0.042 C 
BRANCH  24  25
HETATM   25  C16 UNL     1       7.395  45.296  63.267  1.00  0.00    -0.024 A 
HETATM   26  C17 UNL     1       7.920  46.090  62.284  1.00  0.00     0.115 A 
HETATM   27  N1  UNL     1       9.215  46.213  62.523  1.00  0.00    -0.310 N 
HETATM   28  N2  UNL     1       9.568  45.546  63.606  1.00  0.00    -0.308 N 
ATOM     29  H1  UNL     1       9.858  46.754  61.945  1.00  0.00     0.186 HD
HETATM   30  C18 UNL     1      10.903  45.458  64.165  1.00  0.00     0.177 C 
HETATM   31  C19 UNL     1       8.435  44.958  64.095  1.00  0.00     0.118 A 
ENDBRANCH  24  25
ENDBRANCH  23  24
ENDBRANCH  20  23
ENDBRANCH  18  20
ENDBRANCH   9  18
BRANCH   8  32
HETATM   32  O1  UNL     1       4.181  45.435  60.406  1.00  0.00    -0.395 OA
ATOM     33  H1  UNL     1       3.414  45.024  60.786  1.00  0.00     0.210 HD
ENDBRANCH   8  32
BRANCH  13  34
HETATM   34  O3  UNL     1       5.756  38.588  57.956  1.00  0.00    -0.393 OA
ATOM     35  H3  UNL     1       6.671  38.525  58.203  1.00  0.00     0.210 HD
ENDBRANCH  13  34
TORSDOF 8
ENDMDL
MODEL 5
REMARK VINA RESULT: -6.921956525      1.981      3.530
REMARK  8 active torsions:
REMARK  status: ('A' for Active; 'I' for Inactive)
REMARK    1  A    between atoms: C8_8  and  O1_9 
REMARK    2  A    between atoms: C9_11  and  C10_12 
REMARK    3  A    between atoms: C10_12  and  C12_14 
REMARK    4  A    between atoms: C12_14  and  C13_15 
REMARK    5  A    between atoms: C12_14  and  C14_17 
REMARK    6  A    between atoms: C14_17  and  C15_18 
REMARK    7  A    between atoms: C15_18  and  C16_19 
REMARK    8  A    between atoms: C22_29  and  O3_30 
ROOT
HETATM    1  C1  UNL     1       6.688  38.994  54.767  1.00  0.00     0.015 C 
HETATM    2  C2  UNL     1       6.152  39.503  55.833  1.00  0.00    -0.073 C 
HETATM    3  C3  UNL     1       5.762  38.775  57.100  1.00  0.00     0.022 C 
HETATM    4  C4  UNL     1       4.277  38.562  56.966  1.00  0.00     0.010 C 
HETATM    5  C5  UNL     1       3.542  39.834  56.807  1.00  0.00     0.006 C 
HETATM    6  C6  UNL     1       4.261  40.966  56.212  1.00  0.00     0.003 C 
HETATM    7  C7  UNL     1       3.750  42.233  56.862  1.00  0.00     0.038 C 
HETATM    8  C8  UNL     1       4.366  42.363  58.266  1.00  0.00     0.126 C 
HETATM    9  C9  UNL     1       5.829  42.347  58.111  1.00  0.00     0.054 C 
HETATM   10  C20 UNL     1       6.423  41.061  57.529  1.00  0.00     0.083 C 
HETATM   11  O2  UNL     1       7.747  41.384  57.356  1.00  0.00    -0.376 OA
HETATM   12  C21 UNL     1       8.716  40.474  57.425  1.00  0.00     0.200 C 
HETATM   13  C22 UNL     1       8.566  39.289  58.302  1.00  0.00     0.142 C 
HETATM   14  C23 UNL     1       7.247  39.154  58.974  1.00  0.00     0.042 C 
HETATM   15  C24 UNL     1       6.105  39.803  58.192  1.00  0.00     0.032 C 
HETATM   16  C25 UNL     1       5.755  40.892  56.151  1.00  0.00     0.015 C 
HETATM   17  C26 UNL     1       6.316  41.941  55.262  1.00  0.00     0.023 C 
ENDROOT
BRANCH   9  18
HETATM   18  C10 UNL     1       6.674  43.004  59.125  1.00  0.00    -0.003 C 
HETATM   19  C11 UNL     1       6.289  42.686  60.548  1.00  0.00     0.011 C 
BRANCH  18  20
HETATM   20  C12 UNL     1       6.914  44.485  59.008  1.00  0.00     0.019 C 
BRANCH  20  21
HETATM   21  C13 UNL     1       8.223  44.872  58.473  1.00  0.00     0.227 C 
HETATM   22  F1  UNL     1       9.122  43.847  58.616  1.00  0.00    -0.255 F 
ENDBRANCH  20  21
BRANCH  20  23
HETATM   23  C14 UNL     1       6.838  44.974  60.454  1.00  0.00     0.012 C 
BRANCH  23  24
HETATM   24  C15 UNL     1       7.907  45.888  60.910  1.00  0.00     0.042 C 
BRANCH  24  25
HETATM   25  C16 UNL     1       8.403  45.490  62.274  1.00  0.00    -0.024 A 
HETATM   26  C17 UNL     1       7.591  44.996  63.260  1.00  0.00     0.115 A 
HETATM   27  N1  UNL     1       8.352  44.755  64.315  1.00  0.00    -0.310 N 
HETATM   28  N2  UNL     1       9.613  45.062  64.077  1.00  0.00    -0.308 N 
ATOM     29  H1  UNL     1       8.007  44.381  65.199  1.00  0.00     0.186 HD
HETATM   30  C18 UNL     1      10.720  44.928  65.004  1.00  0.00     0.177 C 
HETATM   31  C19 UNL     1       9.671  45.529  62.794  1.00  0.00     0.118 A 
ENDBRANCH  24  25
ENDBRANCH  23  24
ENDBRANCH  20  23
ENDBRANCH  18  20
ENDBRANCH   9  18
BRANCH   8  32
HETATM   32  O1  UNL     1       3.936  43.594  58.716  1.00  0.00    -0.395 OA
ATOM     33  H1  UNL     1       3.308  43.388  59.399  1.00  0.00     0.210 HD
ENDBRANCH   8  32
BRANCH  13  34
HETATM   34  O3  UNL     1       8.816  38.090  57.591  1.00  0.00    -0.393 OA
ATOM     35  H3  UNL     1       8.006  37.670  57.329  1.00  0.00     0.210 HD
ENDBRANCH  13  34
TORSDOF 8
ENDMDL
