MODEL 1
REMARK VINA RESULT: -8.393637656      0.000      0.000
REMARK  10 active torsions:
REMARK  status: ('A' for Active; 'I' for Inactive)
REMARK    1  A    between atoms: N1_3  and  C3_5 
REMARK    2  A    between atoms: C3_5  and  C4_6 
REMARK    3  A    between atoms: C3_5  and  N2_14 
REMARK    4  A    between atoms: C4_6  and  C5_7 
REMARK    5  A    between atoms: C5_7  and  C6_8 
REMARK    6  A    between atoms: N2_14  and  C12_16 
REMARK    7  A    between atoms: C12_16  and  C13_17 
REMARK    8  A    between atoms: C13_17  and  C14_18 
REMARK    9  A    between atoms: C14_18  and  N3_19 
REMARK   10  A    between atoms: N3_19  and  C15_21 
ROOT
HETATM    1  C1  UNL     1      -4.565 -37.265  76.502  1.00  0.00     0.037 C 
HETATM    2  C2  UNL     1      -4.266 -36.267  75.894  1.00  0.00     0.000 C 
HETATM    3  N1  UNL     1      -3.941 -35.135  75.180  1.00  0.00    -0.306 N 
ATOM      4  H1  UNL     1      -4.180 -35.086  74.190  1.00  0.00     0.177 HD
ENDROOT
BRANCH   3   5
HETATM    5  C3  UNL     1      -3.348 -34.146  75.726  1.00  0.00     0.084 C 
BRANCH   5   6
HETATM    6  C4  UNL     1      -4.016 -33.070  76.449  1.00  0.00     0.081 C 
BRANCH   6   7
HETATM    7  C5  UNL     1      -5.182 -33.378  77.299  1.00  0.00     0.046 C 
BRANCH   7   8
HETATM    8  C6  UNL     1      -4.939 -33.581  78.728  1.00  0.00    -0.058 A 
HETATM    9  C7  UNL     1      -5.760 -32.965  79.684  1.00  0.00     0.007 A 
HETATM   10  C8  UNL     1      -5.521 -33.108  81.030  1.00  0.00     0.001 A 
HETATM   11  C9  UNL     1      -4.452 -33.872  81.472  1.00  0.00     0.000 A 
HETATM   12  C10 UNL     1      -3.633 -34.487  80.557  1.00  0.00     0.001 A 
HETATM   13  C11 UNL     1      -3.890 -34.330  79.197  1.00  0.00     0.007 A 
ENDBRANCH   7   8
ENDBRANCH   6   7
ENDBRANCH   5   6
BRANCH   5  14
HETATM   14  N2  UNL     1      -1.911 -34.161  75.596  1.00  0.00    -0.379 N 
ATOM     15  H2  UNL     1      -1.468 -34.061  74.682  1.00  0.00     0.160 HD
BRANCH  14  16
HETATM   16  C12 UNL     1      -1.123 -34.320  76.773  1.00  0.00     0.122 C 
BRANCH  16  17
HETATM   17  C13 UNL     1       0.368 -34.331  76.452  1.00  0.00     0.040 C 
BRANCH  17  18
HETATM   18  C14 UNL     1       0.994 -35.579  77.035  1.00  0.00     0.139 C 
BRANCH  18  19
HETATM   19  N3  UNL     1       0.590 -36.680  76.191  1.00  0.00    -0.225 N 
ATOM     20  H3  UNL     1       0.706 -36.576  75.184  1.00  0.00     0.177 HD
BRANCH  19  21
HETATM   21  C15 UNL     1       0.098 -37.773  76.626  1.00  0.00     0.696 A 
HETATM   22  N4  UNL     1       0.603 -38.729  77.393  1.00  0.00    -0.128 N 
HETATM   23  N5  UNL     1      -0.314 -39.665  77.566  1.00  0.00    -0.237 N 
ATOM     24  H4  UNL     1       1.545 -38.741  77.785  1.00  0.00     0.205 HD
HETATM   25  C16 UNL     1      -1.442 -39.332  76.909  1.00  0.00     0.353 A 
ATOM     26  H5  UNL     1      -0.186 -40.514  78.115  1.00  0.00     0.192 HD
HETATM   27  O1  UNL     1      -2.525 -40.003  76.859  1.00  0.00    -0.245 OA
HETATM   28  N6  UNL     1      -1.170 -38.150  76.330  1.00  0.00    -0.139 N 
ATOM     29  H6  UNL     1      -1.820 -37.616  75.754  1.00  0.00     0.189 HD
ENDBRANCH  19  21
ENDBRANCH  18  19
ENDBRANCH  17  18
ENDBRANCH  16  17
ENDBRANCH  14  16
ENDBRANCH   5  14
ENDBRANCH   3   5
TORSDOF 10
ENDMDL
MODEL 2
REMARK VINA RESULT: -8.301213025      2.117      4.310
REMARK  10 active torsions:
REMARK  status: ('A' for Active; 'I' for Inactive)
REMARK    1  A    between atoms: N1_3  and  C3_5 
REMARK    2  A    between atoms: C3_5  and  C4_6 
REMARK    3  A    between atoms: C3_5  and  N2_14 
REMARK    4  A    between atoms: C4_6  and  C5_7 
REMARK    5  A    between atoms: C5_7  and  C6_8 
REMARK    6  A    between atoms: N2_14  and  C12_16 
REMARK    7  A    between atoms: C12_16  and  C13_17 
REMARK    8  A    between atoms: C13_17  and  C14_18 
REMARK    9  A    between atoms: C14_18  and  N3_19 
REMARK   10  A    between atoms: N3_19  and  C15_21 
ROOT
HETATM    1  C1  UNL     1      -3.582 -40.580  77.392  1.00  0.00     0.037 C 
HETATM    2  C2  UNL     1      -2.742 -39.806  77.006  1.00  0.00     0.000 C 
HETATM    3  N1  UNL     1      -1.783 -38.933  76.543  1.00  0.00    -0.306 N 
ATOM      4  H1  UNL     1      -1.312 -39.136  75.661  1.00  0.00     0.177 HD
ENDROOT
BRANCH   3   5
HETATM    5  C3  UNL     1      -1.470 -37.878  77.187  1.00  0.00     0.084 C 
BRANCH   5   6
HETATM    6  C4  UNL     1      -2.063 -37.468  78.455  1.00  0.00     0.081 C 
BRANCH   6   7
HETATM    7  C5  UNL     1      -3.128 -36.447  78.464  1.00  0.00     0.046 C 
BRANCH   7   8
HETATM    8  C6  UNL     1      -3.203 -35.563  79.629  1.00  0.00    -0.058 A 
HETATM    9  C7  UNL     1      -2.147 -35.507  80.548  1.00  0.00     0.007 A 
HETATM   10  C8  UNL     1      -2.217 -34.717  81.671  1.00  0.00     0.001 A 
HETATM   11  C9  UNL     1      -3.347 -33.952  81.916  1.00  0.00     0.000 A 
HETATM   12  C10 UNL     1      -4.396 -33.987  81.030  1.00  0.00     0.001 A 
HETATM   13  C11 UNL     1      -4.307 -34.795  79.899  1.00  0.00     0.007 A 
ENDBRANCH   7   8
ENDBRANCH   6   7
ENDBRANCH   5   6
BRANCH   5  14
HETATM   14  N2  UNL     1      -0.434 -37.084  76.570  1.00  0.00    -0.379 N 
ATOM     15  H2  UNL     1      -0.400 -36.966  75.558  1.00  0.00     0.160 HD
BRANCH  14  16
HETATM   16  C12 UNL     1       0.540 -36.468  77.409  1.00  0.00     0.122 C 
BRANCH  16  17
HETATM   17  C13 UNL     1       0.336 -34.959  77.490  1.00  0.00     0.040 C 
BRANCH  17  18
HETATM   18  C14 UNL     1      -0.183 -34.454  76.161  1.00  0.00     0.139 C 
BRANCH  18  19
HETATM   19  N3  UNL     1      -1.316 -33.606  76.453  1.00  0.00    -0.225 N 
ATOM     20  H3  UNL     1      -1.150 -32.760  76.999  1.00  0.00     0.177 HD
BRANCH  19  21
HETATM   21  C15 UNL     1      -2.509 -33.846  76.072  1.00  0.00     0.696 A 
HETATM   22  N4  UNL     1      -2.990 -34.571  75.071  1.00  0.00    -0.128 N 
HETATM   23  N5  UNL     1      -4.309 -34.510  75.097  1.00  0.00    -0.237 N 
ATOM     24  H4  UNL     1      -2.432 -35.089  74.391  1.00  0.00     0.205 HD
HETATM   25  C16 UNL     1      -4.715 -33.738  76.125  1.00  0.00     0.353 A 
ATOM     26  H5  UNL     1      -4.929 -34.978  74.437  1.00  0.00     0.192 HD
HETATM   27  O1  UNL     1      -5.918 -33.463  76.447  1.00  0.00    -0.245 OA
HETATM   28  N6  UNL     1      -3.581 -33.334  76.723  1.00  0.00    -0.139 N 
ATOM     29  H6  UNL     1      -3.534 -32.731  77.544  1.00  0.00     0.189 HD
ENDBRANCH  19  21
ENDBRANCH  18  19
ENDBRANCH  17  18
ENDBRANCH  16  17
ENDBRANCH  14  16
ENDBRANCH   5  14
ENDBRANCH   3   5
TORSDOF 10
ENDMDL
MODEL 3
REMARK VINA RESULT: -8.262934484      2.254      4.055
REMARK  10 active torsions:
REMARK  status: ('A' for Active; 'I' for Inactive)
REMARK    1  A    between atoms: N1_3  and  C3_5 
REMARK    2  A    between atoms: C3_5  and  C4_6 
REMARK    3  A    between atoms: C3_5  and  N2_14 
REMARK    4  A    between atoms: C4_6  and  C5_7 
REMARK    5  A    between atoms: C5_7  and  C6_8 
REMARK    6  A    between atoms: N2_14  and  C12_16 
REMARK    7  A    between atoms: C12_16  and  C13_17 
REMARK    8  A    between atoms: C13_17  and  C14_18 
REMARK    9  A    between atoms: C14_18  and  N3_19 
REMARK   10  A    between atoms: N3_19  and  C15_21 
ROOT
HETATM    1  C1  UNL     1      -3.586 -40.177  77.395  1.00  0.00     0.037 C 
HETATM    2  C2  UNL     1      -3.339 -38.999  77.316  1.00  0.00     0.000 C 
HETATM    3  N1  UNL     1      -3.068 -37.654  77.202  1.00  0.00    -0.306 N 
ATOM      4  H1  UNL     1      -3.173 -37.201  76.295  1.00  0.00     0.177 HD
ENDROOT
BRANCH   3   5
HETATM    5  C3  UNL     1      -2.689 -36.960  78.203  1.00  0.00     0.084 C 
BRANCH   5   6
HETATM    6  C4  UNL     1      -3.566 -36.131  79.023  1.00  0.00     0.081 C 
BRANCH   6   7
HETATM    7  C5  UNL     1      -2.979 -35.200  80.005  1.00  0.00     0.046 C 
BRANCH   7   8
HETATM    8  C6  UNL     1      -3.883 -34.250  80.657  1.00  0.00    -0.058 A 
HETATM    9  C7  UNL     1      -5.004 -33.753  79.976  1.00  0.00     0.007 A 
HETATM   10  C8  UNL     1      -5.840 -32.828  80.554  1.00  0.00     0.001 A 
HETATM   11  C9  UNL     1      -5.587 -32.365  81.836  1.00  0.00     0.000 A 
HETATM   12  C10 UNL     1      -4.497 -32.836  82.526  1.00  0.00     0.001 A 
HETATM   13  C11 UNL     1      -3.660 -33.773  81.923  1.00  0.00     0.007 A 
ENDBRANCH   7   8
ENDBRANCH   6   7
ENDBRANCH   5   6
BRANCH   5  14
HETATM   14  N2  UNL     1      -1.281 -37.059  78.505  1.00  0.00    -0.379 N 
ATOM     15  H2  UNL     1      -0.965 -37.358  79.427  1.00  0.00     0.160 HD
BRANCH  14  16
HETATM   16  C12 UNL     1      -0.343 -36.728  77.485  1.00  0.00     0.122 C 
BRANCH  16  17
HETATM   17  C13 UNL     1       0.125 -35.282  77.600  1.00  0.00     0.040 C 
BRANCH  17  18
HETATM   18  C14 UNL     1      -0.203 -34.547  76.318  1.00  0.00     0.139 C 
BRANCH  18  19
HETATM   19  N3  UNL     1      -1.334 -33.695  76.605  1.00  0.00    -0.225 N 
ATOM     20  H3  UNL     1      -1.178 -32.878  77.196  1.00  0.00     0.177 HD
BRANCH  19  21
HETATM   21  C15 UNL     1      -2.514 -33.898  76.167  1.00  0.00     0.696 A 
HETATM   22  N4  UNL     1      -2.967 -34.596  75.134  1.00  0.00    -0.128 N 
HETATM   23  N5  UNL     1      -4.285 -34.500  75.102  1.00  0.00    -0.237 N 
ATOM     24  H4  UNL     1      -2.393 -35.120  74.473  1.00  0.00     0.205 HD
HETATM   25  C16 UNL     1      -4.717 -33.731  76.122  1.00  0.00     0.353 A 
ATOM     26  H5  UNL     1      -4.886 -34.942  74.408  1.00  0.00     0.192 HD
HETATM   27  O1  UNL     1      -5.925 -33.429  76.393  1.00  0.00    -0.245 OA
HETATM   28  N6  UNL     1      -3.601 -33.366  76.776  1.00  0.00    -0.139 N 
ATOM     29  H6  UNL     1      -3.576 -32.776  77.608  1.00  0.00     0.189 HD
ENDBRANCH  19  21
ENDBRANCH  18  19
ENDBRANCH  17  18
ENDBRANCH  16  17
ENDBRANCH  14  16
ENDBRANCH   5  14
ENDBRANCH   3   5
TORSDOF 10
ENDMDL
MODEL 4
REMARK VINA RESULT: -8.250313958      2.338      4.854
REMARK  10 active torsions:
REMARK  status: ('A' for Active; 'I' for Inactive)
REMARK    1  A    between atoms: N1_3  and  C3_5 
REMARK    2  A    between atoms: C3_5  and  C4_6 
REMARK    3  A    between atoms: C3_5  and  N2_14 
REMARK    4  A    between atoms: C4_6  and  C5_7 
REMARK    5  A    between atoms: C5_7  and  C6_8 
REMARK    6  A    between atoms: N2_14  and  C12_16 
REMARK    7  A    between atoms: C12_16  and  C13_17 
REMARK    8  A    between atoms: C13_17  and  C14_18 
REMARK    9  A    between atoms: C14_18  and  N3_19 
REMARK   10  A    between atoms: N3_19  and  C15_21 
ROOT
HETATM    1  C1  UNL     1       1.018 -35.017  76.307  1.00  0.00     0.037 C 
HETATM    2  C2  UNL     1       0.703 -35.530  77.353  1.00  0.00     0.000 C 
HETATM    3  N1  UNL     1       0.369 -36.116  78.553  1.00  0.00    -0.306 N 
ATOM      4  H1  UNL     1       1.101 -36.554  79.113  1.00  0.00     0.177 HD
ENDROOT
BRANCH   3   5
HETATM    5  C3  UNL     1      -0.832 -36.126  78.983  1.00  0.00     0.084 C 
BRANCH   5   6
HETATM    6  C4  UNL     1      -1.585 -34.941  79.379  1.00  0.00     0.081 C 
BRANCH   6   7
HETATM    7  C5  UNL     1      -2.558 -35.033  80.484  1.00  0.00     0.046 C 
BRANCH   7   8
HETATM    8  C6  UNL     1      -3.819 -34.303  80.333  1.00  0.00    -0.058 A 
HETATM    9  C7  UNL     1      -4.287 -33.947  79.061  1.00  0.00     0.007 A 
HETATM   10  C8  UNL     1      -5.445 -33.223  78.901  1.00  0.00     0.001 A 
HETATM   11  C9  UNL     1      -6.179 -32.828  80.009  1.00  0.00     0.000 A 
HETATM   12  C10 UNL     1      -5.744 -33.165  81.267  1.00  0.00     0.001 A 
HETATM   13  C11 UNL     1      -4.567 -33.898  81.409  1.00  0.00     0.007 A 
ENDBRANCH   7   8
ENDBRANCH   6   7
ENDBRANCH   5   6
BRANCH   5  14
HETATM   14  N2  UNL     1      -1.438 -37.434  79.043  1.00  0.00    -0.379 N 
ATOM     15  H2  UNL     1      -1.516 -37.933  79.929  1.00  0.00     0.160 HD
BRANCH  14  16
HETATM   16  C12 UNL     1      -1.925 -38.014  77.835  1.00  0.00     0.122 C 
BRANCH  16  17
HETATM   17  C13 UNL     1      -3.438 -37.870  77.716  1.00  0.00     0.040 C 
BRANCH  17  18
HETATM   18  C14 UNL     1      -3.809 -37.685  76.260  1.00  0.00     0.139 C 
BRANCH  18  19
HETATM   19  N3  UNL     1      -4.473 -36.406  76.159  1.00  0.00    -0.225 N 
ATOM     20  H3  UNL     1      -5.478 -36.376  76.331  1.00  0.00     0.177 HD
BRANCH  19  21
HETATM   21  C15 UNL     1      -3.883 -35.313  75.869  1.00  0.00     0.696 A 
HETATM   22  N4  UNL     1      -2.600 -34.979  75.843  1.00  0.00    -0.128 N 
HETATM   23  N5  UNL     1      -2.498 -33.715  75.470  1.00  0.00    -0.237 N 
ATOM     24  H4  UNL     1      -1.821 -35.595  76.073  1.00  0.00     0.205 HD
HETATM   25  C16 UNL     1      -3.723 -33.200  75.245  1.00  0.00     0.353 A 
ATOM     26  H5  UNL     1      -1.621 -33.205  75.368  1.00  0.00     0.192 HD
HETATM   27  O1  UNL     1      -3.996 -32.011  74.873  1.00  0.00    -0.245 OA
HETATM   28  N6  UNL     1      -4.574 -34.209  75.496  1.00  0.00    -0.139 N 
ATOM     29  H6  UNL     1      -5.590 -34.152  75.418  1.00  0.00     0.189 HD
ENDBRANCH  19  21
ENDBRANCH  18  19
ENDBRANCH  17  18
ENDBRANCH  16  17
ENDBRANCH  14  16
ENDBRANCH   5  14
ENDBRANCH   3   5
TORSDOF 10
ENDMDL
MODEL 5
REMARK VINA RESULT: -8.133453316      2.427      4.316
REMARK  10 active torsions:
REMARK  status: ('A' for Active; 'I' for Inactive)
REMARK    1  A    between atoms: N1_3  and  C3_5 
REMARK    2  A    between atoms: C3_5  and  C4_6 
REMARK    3  A    between atoms: C3_5  and  N2_14 
REMARK    4  A    between atoms: C4_6  and  C5_7 
REMARK    5  A    between atoms: C5_7  and  C6_8 
REMARK    6  A    between atoms: N2_14  and  C12_16 
REMARK    7  A    between atoms: C12_16  and  C13_17 
REMARK    8  A    between atoms: C13_17  and  C14_18 
REMARK    9  A    between atoms: C14_18  and  N3_19 
REMARK   10  A    between atoms: N3_19  and  C15_21 
ROOT
HETATM    1  C1  UNL     1      -4.229 -36.938  78.020  1.00  0.00     0.037 C 
HETATM    2  C2  UNL     1      -3.131 -36.993  78.513  1.00  0.00     0.000 C 
HETATM    3  N1  UNL     1      -1.874 -37.080  79.070  1.00  0.00    -0.306 N 
ATOM      4  H1  UNL     1      -1.468 -38.001  79.237  1.00  0.00     0.177 HD
ENDROOT
BRANCH   3   5
HETATM    5  C3  UNL     1      -1.206 -36.040  79.383  1.00  0.00     0.084 C 
BRANCH   5   6
HETATM    6  C4  UNL     1      -1.758 -34.861  80.042  1.00  0.00     0.081 C 
BRANCH   6   7
HETATM    7  C5  UNL     1      -2.634 -35.027  81.218  1.00  0.00     0.046 C 
BRANCH   7   8
HETATM    8  C6  UNL     1      -3.675 -34.020  81.429  1.00  0.00    -0.058 A 
HETATM    9  C7  UNL     1      -3.587 -33.120  82.501  1.00  0.00     0.007 A 
HETATM   10  C8  UNL     1      -4.575 -32.196  82.743  1.00  0.00     0.001 A 
HETATM   11  C9  UNL     1      -5.690 -32.136  81.920  1.00  0.00     0.000 A 
HETATM   12  C10 UNL     1      -5.801 -33.005  80.862  1.00  0.00     0.001 A 
HETATM   13  C11 UNL     1      -4.789 -33.935  80.634  1.00  0.00     0.007 A 
ENDBRANCH   7   8
ENDBRANCH   6   7
ENDBRANCH   5   6
BRANCH   5  14
HETATM   14  N2  UNL     1       0.197 -36.104  79.049  1.00  0.00    -0.379 N 
ATOM     15  H2  UNL     1       0.908 -36.087  79.780  1.00  0.00     0.160 HD
BRANCH  14  16
HETATM   16  C12 UNL     1       0.565 -36.189  77.675  1.00  0.00     0.122 C 
BRANCH  16  17
HETATM   17  C13 UNL     1       0.777 -34.808  77.064  1.00  0.00     0.040 C 
BRANCH  17  18
HETATM   18  C14 UNL     1      -0.274 -34.567  76.002  1.00  0.00     0.139 C 
BRANCH  18  19
HETATM   19  N3  UNL     1      -1.372 -33.886  76.651  1.00  0.00    -0.225 N 
ATOM     20  H3  UNL     1      -1.169 -33.348  77.493  1.00  0.00     0.177 HD
BRANCH  19  21
HETATM   21  C15 UNL     1      -2.578 -33.916  76.237  1.00  0.00     0.696 A 
HETATM   22  N4  UNL     1      -3.112 -34.314  75.091  1.00  0.00    -0.128 N 
HETATM   23  N5  UNL     1      -4.421 -34.147  75.151  1.00  0.00    -0.237 N 
ATOM     24  H4  UNL     1      -2.596 -34.688  74.293  1.00  0.00     0.205 HD
HETATM   25  C16 UNL     1      -4.767 -33.632  76.347  1.00  0.00     0.353 A 
ATOM     26  H5  UNL     1      -5.074 -34.374  74.401  1.00  0.00     0.192 HD
HETATM   27  O1  UNL     1      -5.943 -33.346  76.746  1.00  0.00    -0.245 OA
HETATM   28  N6  UNL     1      -3.607 -33.496  77.013  1.00  0.00    -0.139 N 
ATOM     29  H6  UNL     1      -3.514 -33.131  77.961  1.00  0.00     0.189 HD
ENDBRANCH  19  21
ENDBRANCH  18  19
ENDBRANCH  17  18
ENDBRANCH  16  17
ENDBRANCH  14  16
ENDBRANCH   5  14
ENDBRANCH   3   5
TORSDOF 10
ENDMDL
