MODEL 1
REMARK VINA RESULT: -8.343785081      0.000      0.000
REMARK  8 active torsions:
REMARK  status: ('A' for Active; 'I' for Inactive)
REMARK       I    between atoms: C1_2  and  N6_19 
REMARK    1  A    between atoms: N2_3  and  C2_5 
REMARK    2  A    between atoms: C2_5  and  C3_6 
REMARK    3  A    between atoms: C3_6  and  C4_7 
REMARK    4  A    between atoms: C4_7  and  N3_8 
REMARK    5  A    between atoms: N3_8  and  C5_10 
REMARK    6  A    between atoms: N6_19  and  C9_21 
REMARK    7  A    between atoms: C9_21  and  C10_22 
REMARK    8  A    between atoms: C10_22  and  C11_23 
ROOT
HETATM    1  N1  UNL     1      -4.683 -37.247  75.500  1.00  0.00    -0.064 NA
HETATM    2  C1  UNL     1      -4.337 -36.755  76.776  1.00  0.00     0.187 C 
HETATM    3  N2  UNL     1      -4.003 -37.618  77.690  1.00  0.00    -0.364 N 
ATOM      4  H2  UNL     1      -3.749 -37.283  78.620  1.00  0.00     0.162 HD
HETATM    5  N6  UNL     1      -4.364 -35.402  77.150  1.00  0.00    -0.344 N 
ATOM      6  H6  UNL     1      -5.095 -34.822  76.739  1.00  0.00     0.167 HD
ENDROOT
BRANCH   3   7
HETATM    7  C2  UNL     1      -3.983 -39.009  77.430  1.00  0.00     0.127 C 
BRANCH   7   8
HETATM    8  C3  UNL     1      -2.596 -39.626  77.643  1.00  0.00     0.065 C 
BRANCH   8   9
HETATM    9  C4  UNL     1      -1.767 -39.267  76.444  1.00  0.00     0.080 C 
BRANCH   9  10
HETATM   10  N3  UNL     1      -0.518 -38.695  76.717  1.00  0.00    -0.205 N 
ATOM     11  H3  UNL     1       0.234 -39.383  76.747  1.00  0.00     0.183 HD
BRANCH  10  12
HETATM   12  C5  UNL     1      -0.116 -37.526  76.932  1.00  0.00     0.684 A 
HETATM   13  N4  UNL     1      -0.401 -36.762  77.984  1.00  0.00    -0.201 N 
HETATM   14  C6  UNL     1       0.108 -35.497  78.095  1.00  0.00     0.111 A 
ATOM     15  H4  UNL     1      -1.008 -37.125  78.720  1.00  0.00     0.183 HD
HETATM   16  C7  UNL     1       0.924 -34.979  77.130  1.00  0.00     0.092 A 
HETATM   17  C8  UNL     1       1.211 -35.773  76.047  1.00  0.00     0.260 A 
HETATM   18  O1  UNL     1       1.974 -35.313  75.127  1.00  0.00    -0.268 OA
HETATM   19  N5  UNL     1       0.697 -37.004  75.972  1.00  0.00    -0.156 N 
ATOM     20  H5  UNL     1       0.922 -37.579  75.159  1.00  0.00     0.187 HD
ENDBRANCH  10  12
ENDBRANCH   9  10
ENDBRANCH   8   9
ENDBRANCH   7   8
ENDBRANCH   3   7
BRANCH   5  21
HETATM   21  C9  UNL     1      -3.473 -34.772  78.042  1.00  0.00     0.068 C 
BRANCH  21  22
HETATM   22  C10 UNL     1      -4.079 -34.148  79.232  1.00  0.00     0.083 C 
BRANCH  22  23
HETATM   23  C11 UNL     1      -3.562 -34.471  80.538  1.00  0.00    -0.053 A 
HETATM   24  C12 UNL     1      -4.121 -33.961  81.713  1.00  0.00     0.007 A 
HETATM   25  C13 UNL     1      -3.530 -34.280  82.918  1.00  0.00     0.001 A 
HETATM   26  C14 UNL     1      -2.413 -35.079  83.014  1.00  0.00     0.000 A 
HETATM   27  C15 UNL     1      -1.860 -35.584  81.848  1.00  0.00     0.001 A 
HETATM   28  C16 UNL     1      -2.432 -35.277  80.658  1.00  0.00     0.007 A 
ENDBRANCH  22  23
ENDBRANCH  21  22
ENDBRANCH   5  21
TORSDOF 8
ENDMDL
MODEL 2
REMARK VINA RESULT: -8.210676819      2.730      4.487
REMARK  8 active torsions:
REMARK  status: ('A' for Active; 'I' for Inactive)
REMARK       I    between atoms: C1_2  and  N6_19 
REMARK    1  A    between atoms: N2_3  and  C2_5 
REMARK    2  A    between atoms: C2_5  and  C3_6 
REMARK    3  A    between atoms: C3_6  and  C4_7 
REMARK    4  A    between atoms: C4_7  and  N3_8 
REMARK    5  A    between atoms: N3_8  and  C5_10 
REMARK    6  A    between atoms: N6_19  and  C9_21 
REMARK    7  A    between atoms: C9_21  and  C10_22 
REMARK    8  A    between atoms: C10_22  and  C11_23 
ROOT
HETATM    1  N1  UNL     1      -1.562 -37.367  78.210  1.00  0.00    -0.064 NA
HETATM    2  C1  UNL     1      -0.918 -36.633  79.227  1.00  0.00     0.187 C 
HETATM    3  N2  UNL     1       0.271 -36.168  78.981  1.00  0.00    -0.364 N 
ATOM      4  H2  UNL     1       0.755 -35.634  79.703  1.00  0.00     0.162 HD
HETATM    5  N6  UNL     1      -1.447 -36.397  80.506  1.00  0.00    -0.344 N 
ATOM      6  H6  UNL     1      -2.015 -37.139  80.917  1.00  0.00     0.167 HD
ENDROOT
BRANCH   3   7
HETATM    7  C2  UNL     1       0.913 -36.384  77.738  1.00  0.00     0.127 C 
BRANCH   7   8
HETATM    8  C3  UNL     1       1.215 -35.076  76.998  1.00  0.00     0.065 C 
BRANCH   8   9
HETATM    9  C4  UNL     1       0.233 -34.975  75.867  1.00  0.00     0.080 C 
BRANCH   9  10
HETATM   10  N3  UNL     1      -0.719 -33.953  75.976  1.00  0.00    -0.205 N 
ATOM     11  H3  UNL     1      -0.388 -33.064  75.601  1.00  0.00     0.183 HD
BRANCH  10  12
HETATM   12  C5  UNL     1      -1.886 -33.884  76.431  1.00  0.00     0.684 A 
HETATM   13  N4  UNL     1      -2.275 -34.133  77.679  1.00  0.00    -0.201 N 
HETATM   14  C6  UNL     1      -3.588 -34.020  78.044  1.00  0.00     0.111 A 
ATOM     15  H4  UNL     1      -1.583 -34.413  78.375  1.00  0.00     0.183 HD
HETATM   16  C7  UNL     1      -4.541 -33.647  77.139  1.00  0.00     0.092 A 
HETATM   17  C8  UNL     1      -4.131 -33.394  75.853  1.00  0.00     0.260 A 
HETATM   18  O1  UNL     1      -5.004 -33.043  74.983  1.00  0.00    -0.268 OA
HETATM   19  N5  UNL     1      -2.840 -33.515  75.532  1.00  0.00    -0.156 N 
ATOM     20  H5  UNL     1      -2.555 -33.322  74.571  1.00  0.00     0.187 HD
ENDBRANCH  10  12
ENDBRANCH   9  10
ENDBRANCH   8   9
ENDBRANCH   7   8
ENDBRANCH   3   7
BRANCH   5  21
HETATM   21  C9  UNL     1      -1.267 -35.230  81.275  1.00  0.00     0.068 C 
BRANCH  21  22
HETATM   22  C10 UNL     1      -2.173 -35.064  82.425  1.00  0.00     0.083 C 
BRANCH  22  23
HETATM   23  C11 UNL     1      -3.124 -33.982  82.425  1.00  0.00    -0.053 A 
HETATM   24  C12 UNL     1      -2.983 -32.859  83.245  1.00  0.00     0.007 A 
HETATM   25  C13 UNL     1      -3.969 -31.894  83.218  1.00  0.00     0.001 A 
HETATM   26  C14 UNL     1      -5.085 -31.989  82.418  1.00  0.00     0.000 A 
HETATM   27  C15 UNL     1      -5.223 -33.103  81.606  1.00  0.00     0.001 A 
HETATM   28  C16 UNL     1      -4.260 -34.057  81.624  1.00  0.00     0.007 A 
ENDBRANCH  22  23
ENDBRANCH  21  22
ENDBRANCH   5  21
TORSDOF 8
ENDMDL
MODEL 3
REMARK VINA RESULT: -8.193177387      0.938      1.654
REMARK  8 active torsions:
REMARK  status: ('A' for Active; 'I' for Inactive)
REMARK       I    between atoms: C1_2  and  N6_19 
REMARK    1  A    between atoms: N2_3  and  C2_5 
REMARK    2  A    between atoms: C2_5  and  C3_6 
REMARK    3  A    between atoms: C3_6  and  C4_7 
REMARK    4  A    between atoms: C4_7  and  N3_8 
REMARK    5  A    between atoms: N3_8  and  C5_10 
REMARK    6  A    between atoms: N6_19  and  C9_21 
REMARK    7  A    between atoms: C9_21  and  C10_22 
REMARK    8  A    between atoms: C10_22  and  C11_23 
ROOT
HETATM    1  N1  UNL     1      -4.703 -37.211  75.549  1.00  0.00    -0.064 NA
HETATM    2  C1  UNL     1      -4.335 -36.784  76.842  1.00  0.00     0.187 C 
HETATM    3  N2  UNL     1      -3.955 -37.690  77.695  1.00  0.00    -0.364 N 
ATOM      4  H2  UNL     1      -3.683 -37.403  78.635  1.00  0.00     0.162 HD
HETATM    5  N6  UNL     1      -4.384 -35.456  77.296  1.00  0.00    -0.344 N 
ATOM      6  H6  UNL     1      -5.140 -34.873  76.938  1.00  0.00     0.167 HD
ENDROOT
BRANCH   3   7
HETATM    7  C2  UNL     1      -3.908 -39.062  77.353  1.00  0.00     0.127 C 
BRANCH   7   8
HETATM    8  C3  UNL     1      -2.539 -39.692  77.637  1.00  0.00     0.065 C 
BRANCH   8   9
HETATM    9  C4  UNL     1      -1.648 -39.346  76.479  1.00  0.00     0.080 C 
BRANCH   9  10
HETATM   10  N3  UNL     1      -0.439 -38.721  76.807  1.00  0.00    -0.205 N 
ATOM     11  H3  UNL     1       0.333 -39.380  76.906  1.00  0.00     0.183 HD
BRANCH  10  12
HETATM   12  C5  UNL     1      -0.090 -37.532  77.006  1.00  0.00     0.684 A 
HETATM   13  N4  UNL     1      -0.423 -36.762  78.040  1.00  0.00    -0.201 N 
HETATM   14  C6  UNL     1       0.029 -35.475  78.134  1.00  0.00     0.111 A 
ATOM     15  H4  UNL     1      -1.026 -37.138  78.773  1.00  0.00     0.183 HD
HETATM   16  C7  UNL     1       0.837 -34.939  77.172  1.00  0.00     0.092 A 
HETATM   17  C8  UNL     1       1.175 -35.740  76.108  1.00  0.00     0.260 A 
HETATM   18  O1  UNL     1       1.930 -35.264  75.190  1.00  0.00    -0.268 OA
HETATM   19  N5  UNL     1       0.714 -36.993  76.048  1.00  0.00    -0.156 N 
ATOM     20  H5  UNL     1       0.976 -37.572  75.250  1.00  0.00     0.187 HD
ENDBRANCH  10  12
ENDBRANCH   9  10
ENDBRANCH   8   9
ENDBRANCH   7   8
ENDBRANCH   3   7
BRANCH   5  21
HETATM   21  C9  UNL     1      -3.485 -34.856  78.199  1.00  0.00     0.068 C 
BRANCH  21  22
HETATM   22  C10 UNL     1      -3.738 -35.106  79.629  1.00  0.00     0.083 C 
BRANCH  22  23
HETATM   23  C11 UNL     1      -4.413 -34.104  80.413  1.00  0.00    -0.053 A 
HETATM   24  C12 UNL     1      -5.461 -33.331  79.903  1.00  0.00     0.007 A 
HETATM   25  C13 UNL     1      -6.016 -32.358  80.708  1.00  0.00     0.001 A 
HETATM   26  C14 UNL     1      -5.583 -32.113  81.991  1.00  0.00     0.000 A 
HETATM   27  C15 UNL     1      -4.544 -32.880  82.495  1.00  0.00     0.001 A 
HETATM   28  C16 UNL     1      -3.991 -33.839  81.714  1.00  0.00     0.007 A 
ENDBRANCH  22  23
ENDBRANCH  21  22
ENDBRANCH   5  21
TORSDOF 8
ENDMDL
MODEL 4
REMARK VINA RESULT: -8.160981382      2.495      5.907
REMARK  8 active torsions:
REMARK  status: ('A' for Active; 'I' for Inactive)
REMARK       I    between atoms: C1_2  and  N6_19 
REMARK    1  A    between atoms: N2_3  and  C2_5 
REMARK    2  A    between atoms: C2_5  and  C3_6 
REMARK    3  A    between atoms: C3_6  and  C4_7 
REMARK    4  A    between atoms: C4_7  and  N3_8 
REMARK    5  A    between atoms: N3_8  and  C5_10 
REMARK    6  A    between atoms: N6_19  and  C9_21 
REMARK    7  A    between atoms: C9_21  and  C10_22 
REMARK    8  A    between atoms: C10_22  and  C11_23 
ROOT
HETATM    1  N1  UNL     1       0.362 -34.715  77.685  1.00  0.00    -0.064 NA
HETATM    2  C1  UNL     1       0.400 -36.070  78.077  1.00  0.00     0.187 C 
HETATM    3  N2  UNL     1      -0.053 -36.374  79.257  1.00  0.00    -0.364 N 
ATOM      4  H2  UNL     1      -0.036 -37.348  79.560  1.00  0.00     0.162 HD
HETATM    5  N6  UNL     1       0.930 -37.116  77.304  1.00  0.00    -0.344 N 
ATOM      6  H6  UNL     1       1.739 -36.898  76.722  1.00  0.00     0.167 HD
ENDROOT
BRANCH   3   7
HETATM    7  C2  UNL     1      -0.572 -35.390  80.132  1.00  0.00     0.127 C 
BRANCH   7   8
HETATM    8  C3  UNL     1      -1.857 -35.845  80.833  1.00  0.00     0.065 C 
BRANCH   8   9
HETATM    9  C4  UNL     1      -2.792 -34.670  80.844  1.00  0.00     0.080 C 
BRANCH   9  10
HETATM   10  N3  UNL     1      -3.731 -34.629  79.805  1.00  0.00    -0.205 N 
ATOM     11  H3  UNL     1      -4.639 -35.003  80.080  1.00  0.00     0.183 HD
BRANCH  10  12
HETATM   12  C5  UNL     1      -3.707 -34.236  78.614  1.00  0.00     0.684 A 
HETATM   13  N4  UNL     1      -2.630 -34.044  77.855  1.00  0.00    -0.201 N 
HETATM   14  C6  UNL     1      -2.747 -33.610  76.564  1.00  0.00     0.111 A 
ATOM     15  H4  UNL     1      -1.704 -34.223  78.243  1.00  0.00     0.183 HD
HETATM   16  C7  UNL     1      -3.971 -33.360  76.012  1.00  0.00     0.092 A 
HETATM   17  C8  UNL     1      -5.077 -33.558  76.802  1.00  0.00     0.260 A 
HETATM   18  O1  UNL     1      -6.238 -33.331  76.311  1.00  0.00    -0.268 OA
HETATM   19  N5  UNL     1      -4.925 -33.983  78.060  1.00  0.00    -0.156 N 
ATOM     20  H5  UNL     1      -5.759 -34.125  78.632  1.00  0.00     0.187 HD
ENDBRANCH  10  12
ENDBRANCH   9  10
ENDBRANCH   8   9
ENDBRANCH   7   8
ENDBRANCH   3   7
BRANCH   5  21
HETATM   21  C9  UNL     1       0.447 -38.438  77.259  1.00  0.00     0.068 C 
BRANCH  21  22
HETATM   22  C10 UNL     1      -0.611 -38.710  76.271  1.00  0.00     0.083 C 
BRANCH  22  23
HETATM   23  C11 UNL     1      -1.990 -38.695  76.689  1.00  0.00    -0.053 A 
HETATM   24  C12 UNL     1      -2.730 -37.514  76.794  1.00  0.00     0.007 A 
HETATM   25  C13 UNL     1      -4.028 -37.587  77.253  1.00  0.00     0.001 A 
HETATM   26  C14 UNL     1      -4.628 -38.772  77.614  1.00  0.00     0.000 A 
HETATM   27  C15 UNL     1      -3.893 -39.942  77.510  1.00  0.00     0.001 A 
HETATM   28  C16 UNL     1      -2.616 -39.883  77.059  1.00  0.00     0.007 A 
ENDBRANCH  22  23
ENDBRANCH  21  22
ENDBRANCH   5  21
TORSDOF 8
ENDMDL
MODEL 5
REMARK VINA RESULT: -8.110549170      2.328      4.572
REMARK  8 active torsions:
REMARK  status: ('A' for Active; 'I' for Inactive)
REMARK       I    between atoms: C1_2  and  N6_19 
REMARK    1  A    between atoms: N2_3  and  C2_5 
REMARK    2  A    between atoms: C2_5  and  C3_6 
REMARK    3  A    between atoms: C3_6  and  C4_7 
REMARK    4  A    between atoms: C4_7  and  N3_8 
REMARK    5  A    between atoms: N3_8  and  C5_10 
REMARK    6  A    between atoms: N6_19  and  C9_21 
REMARK    7  A    between atoms: C9_21  and  C10_22 
REMARK    8  A    between atoms: C10_22  and  C11_23 
ROOT
HETATM    1  N1  UNL     1       0.470 -36.069  77.946  1.00  0.00    -0.064 NA
HETATM    2  C1  UNL     1      -0.497 -35.583  78.851  1.00  0.00     0.187 C 
HETATM    3  N2  UNL     1      -1.399 -34.765  78.394  1.00  0.00    -0.364 N 
ATOM      4  H2  UNL     1      -2.108 -34.402  79.031  1.00  0.00     0.162 HD
HETATM    5  N6  UNL     1      -0.539 -35.885  80.222  1.00  0.00    -0.344 N 
ATOM      6  H6  UNL     1       0.355 -36.003  80.697  1.00  0.00     0.167 HD
ENDROOT
BRANCH   3   7
HETATM    7  C2  UNL     1      -1.423 -34.364  77.037  1.00  0.00     0.127 C 
BRANCH   7   8
HETATM    8  C3  UNL     1      -2.844 -34.098  76.528  1.00  0.00     0.065 C 
BRANCH   8   9
HETATM    9  C4  UNL     1      -3.675 -35.290  76.903  1.00  0.00     0.080 C 
BRANCH   9  10
HETATM   10  N3  UNL     1      -3.388 -36.474  76.212  1.00  0.00    -0.205 N 
ATOM     11  H3  UNL     1      -3.581 -36.405  75.213  1.00  0.00     0.183 HD
BRANCH  10  12
HETATM   12  C5  UNL     1      -2.947 -37.601  76.544  1.00  0.00     0.684 A 
HETATM   13  N4  UNL     1      -1.683 -38.015  76.486  1.00  0.00    -0.201 N 
HETATM   14  C6  UNL     1      -1.337 -39.277  76.883  1.00  0.00     0.111 A 
ATOM     15  H4  UNL     1      -0.962 -37.381  76.140  1.00  0.00     0.183 HD
HETATM   16  C7  UNL     1      -2.276 -40.152  77.352  1.00  0.00     0.092 A 
HETATM   17  C8  UNL     1      -3.577 -39.717  77.406  1.00  0.00     0.260 A 
HETATM   18  O1  UNL     1      -4.479 -40.516  77.840  1.00  0.00    -0.268 OA
HETATM   19  N5  UNL     1      -3.880 -38.477  77.010  1.00  0.00    -0.156 N 
ATOM     20  H5  UNL     1      -4.853 -38.172  77.058  1.00  0.00     0.187 HD
ENDBRANCH  10  12
ENDBRANCH   9  10
ENDBRANCH   8   9
ENDBRANCH   7   8
ENDBRANCH   3   7
BRANCH   5  21
HETATM   21  C9  UNL     1      -1.703 -36.038  81.000  1.00  0.00     0.068 C 
BRANCH  21  22
HETATM   22  C10 UNL     1      -2.027 -34.926  81.911  1.00  0.00     0.083 C 
BRANCH  22  23
HETATM   23  C11 UNL     1      -3.245 -34.183  81.713  1.00  0.00    -0.053 A 
HETATM   24  C12 UNL     1      -4.048 -34.345  80.580  1.00  0.00     0.007 A 
HETATM   25  C13 UNL     1      -5.170 -33.554  80.448  1.00  0.00     0.001 A 
HETATM   26  C14 UNL     1      -5.535 -32.611  81.382  1.00  0.00     0.000 A 
HETATM   27  C15 UNL     1      -4.738 -32.452  82.505  1.00  0.00     0.001 A 
HETATM   28  C16 UNL     1      -3.633 -33.224  82.645  1.00  0.00     0.007 A 
ENDBRANCH  22  23
ENDBRANCH  21  22
ENDBRANCH   5  21
TORSDOF 8
ENDMDL
