MODEL 1
REMARK VINA RESULT: -8.130926459      0.000      0.000
REMARK  2 active torsions:
REMARK  status: ('A' for Active; 'I' for Inactive)
REMARK    1  A    between atoms: C2_2  and  C3_3 
REMARK    2  A    between atoms: N2_8  and  C6_9 
ROOT
HETATM    1  C3  UNL     1     -12.501 -28.377 -15.455  1.00  0.00    -0.011 A 
HETATM    2  C4  UNL     1     -12.560 -29.285 -14.422  1.00  0.00     0.030 A 
HETATM    3  C5  UNL     1     -13.762 -30.073 -14.037  1.00  0.00     0.070 C 
HETATM    4  N1  UNL     1     -11.349 -29.317 -13.845  1.00  0.00    -0.298 N 
ATOM      5  H1  UNL     1     -11.093 -29.900 -13.049  1.00  0.00     0.187 HD
HETATM    6  N2  UNL     1     -10.545 -28.484 -14.460  1.00  0.00    -0.260 N 
HETATM    7  C15 UNL     1     -11.216 -27.890 -15.453  1.00  0.00     0.039 A 
HETATM    8  C16 UNL     1     -10.754 -26.871 -16.438  1.00  0.00     0.071 C 
ENDROOT
BRANCH   6   9
HETATM    9  C6  UNL     1      -9.188 -28.223 -14.159  1.00  0.00     0.063 A 
HETATM   10  C7  UNL     1      -8.880 -27.130 -13.378  1.00  0.00     0.039 A 
HETATM   11  C8  UNL     1      -7.580 -26.846 -13.069  1.00  0.00    -0.059 A 
HETATM   12  C9  UNL     1      -7.244 -25.660 -12.221  1.00  0.00     0.048 C 
HETATM   13  C10 UNL     1      -6.556 -27.668 -13.544  1.00  0.00     0.014 A 
HETATM   14  C11 UNL     1      -6.901 -28.755 -14.324  1.00  0.00    -0.053 A 
HETATM   15  C12 UNL     1      -5.820 -29.653 -14.848  1.00  0.00     0.049 C 
HETATM   16  C13 UNL     1      -8.209 -29.058 -14.648  1.00  0.00    -0.027 A 
HETATM   17  C14 UNL     1      -8.537 -30.252 -15.498  1.00  0.00     0.051 C 
ENDBRANCH   6   9
BRANCH   1  18
HETATM   18  C2  UNL     1     -13.605 -27.996 -16.388  1.00  0.00     0.038 C 
HETATM   19  C1  UNL     1     -14.219 -29.177 -17.070  1.00  0.00     0.010 C 
ENDBRANCH   1  18
TORSDOF 2
ENDMDL
MODEL 2
REMARK VINA RESULT: -7.955119800      0.909      2.610
REMARK  2 active torsions:
REMARK  status: ('A' for Active; 'I' for Inactive)
REMARK    1  A    between atoms: C2_2  and  C3_3 
REMARK    2  A    between atoms: N2_8  and  C6_9 
ROOT
HETATM    1  C3  UNL     1     -12.202 -28.535 -15.387  1.00  0.00    -0.011 A 
HETATM    2  C4  UNL     1     -12.293 -29.432 -14.347  1.00  0.00     0.030 A 
HETATM    3  C5  UNL     1     -13.556 -29.863 -13.690  1.00  0.00     0.070 C 
HETATM    4  N1  UNL     1     -11.045 -29.829 -14.049  1.00  0.00    -0.298 N 
ATOM      5  H1  UNL     1     -10.800 -30.494 -13.316  1.00  0.00     0.187 HD
HETATM    6  N2  UNL     1     -10.191 -29.233 -14.843  1.00  0.00    -0.260 N 
HETATM    7  C15 UNL     1     -10.862 -28.432 -15.677  1.00  0.00     0.039 A 
HETATM    8  C16 UNL     1     -10.354 -27.544 -16.762  1.00  0.00     0.071 C 
ENDROOT
BRANCH   6   9
HETATM    9  C6  UNL     1      -8.784 -29.379 -14.853  1.00  0.00     0.063 A 
HETATM   10  C7  UNL     1      -8.237 -30.495 -15.449  1.00  0.00     0.039 A 
HETATM   11  C8  UNL     1      -6.882 -30.669 -15.475  1.00  0.00    -0.059 A 
HETATM   12  C9  UNL     1      -6.287 -31.880 -16.122  1.00  0.00     0.048 C 
HETATM   13  C10 UNL     1      -6.046 -29.712 -14.899  1.00  0.00     0.014 A 
HETATM   14  C11 UNL     1      -6.628 -28.605 -14.311  1.00  0.00    -0.053 A 
HETATM   15  C12 UNL     1      -5.752 -27.563 -13.684  1.00  0.00     0.049 C 
HETATM   16  C13 UNL     1      -7.994 -28.411 -14.273  1.00  0.00    -0.027 A 
HETATM   17  C14 UNL     1      -8.584 -27.192 -13.624  1.00  0.00     0.051 C 
ENDBRANCH   6   9
BRANCH   1  18
HETATM   18  C2  UNL     1     -13.326 -27.818 -16.063  1.00  0.00     0.038 C 
HETATM   19  C1  UNL     1     -14.147 -28.718 -16.931  1.00  0.00     0.010 C 
ENDBRANCH   1  18
TORSDOF 2
ENDMDL
MODEL 3
REMARK VINA RESULT: -7.819976827      1.540      2.416
REMARK  2 active torsions:
REMARK  status: ('A' for Active; 'I' for Inactive)
REMARK    1  A    between atoms: C2_2  and  C3_3 
REMARK    2  A    between atoms: N2_8  and  C6_9 
ROOT
HETATM    1  C3  UNL     1     -10.756 -29.427 -14.657  1.00  0.00    -0.011 A 
HETATM    2  C4  UNL     1      -9.922 -30.441 -14.243  1.00  0.00     0.030 A 
HETATM    3  C5  UNL     1     -10.208 -31.895 -14.369  1.00  0.00     0.070 C 
HETATM    4  N1  UNL     1      -8.827 -29.870 -13.716  1.00  0.00    -0.298 N 
ATOM      5  H1  UNL     1      -8.033 -30.376 -13.325  1.00  0.00     0.187 HD
HETATM    6  N2  UNL     1      -8.935 -28.566 -13.781  1.00  0.00    -0.260 N 
HETATM    7  C15 UNL     1     -10.103 -28.256 -14.352  1.00  0.00     0.039 A 
HETATM    8  C16 UNL     1     -10.693 -26.920 -14.651  1.00  0.00     0.071 C 
ENDROOT
BRANCH   6   9
HETATM    9  C6  UNL     1      -7.998 -27.606 -13.333  1.00  0.00     0.063 A 
HETATM   10  C7  UNL     1      -8.432 -26.586 -12.513  1.00  0.00     0.039 A 
HETATM   11  C8  UNL     1      -7.555 -25.641 -12.063  1.00  0.00    -0.059 A 
HETATM   12  C9  UNL     1      -8.025 -24.534 -11.173  1.00  0.00     0.048 C 
HETATM   13  C10 UNL     1      -6.211 -25.706 -12.433  1.00  0.00     0.014 A 
HETATM   14  C11 UNL     1      -5.809 -26.741 -13.255  1.00  0.00    -0.053 A 
HETATM   15  C12 UNL     1      -4.371 -26.834 -13.667  1.00  0.00     0.049 C 
HETATM   16  C13 UNL     1      -6.680 -27.706 -13.721  1.00  0.00    -0.027 A 
HETATM   17  C14 UNL     1      -6.199 -28.815 -14.612  1.00  0.00     0.051 C 
ENDBRANCH   6   9
BRANCH   1  18
HETATM   18  C2  UNL     1     -12.096 -29.566 -15.304  1.00  0.00     0.038 C 
HETATM   19  C1  UNL     1     -13.209 -29.680 -14.311  1.00  0.00     0.010 C 
ENDBRANCH   1  18
TORSDOF 2
ENDMDL
MODEL 4
REMARK VINA RESULT: -7.801554316      1.856      5.757
REMARK  2 active torsions:
REMARK  status: ('A' for Active; 'I' for Inactive)
REMARK    1  A    between atoms: C2_2  and  C3_3 
REMARK    2  A    between atoms: N2_8  and  C6_9 
ROOT
HETATM    1  C3  UNL     1      -7.366 -25.493 -13.435  1.00  0.00    -0.011 A 
HETATM    2  C4  UNL     1      -8.104 -25.504 -12.274  1.00  0.00     0.030 A 
HETATM    3  C5  UNL     1      -7.921 -24.573 -11.129  1.00  0.00     0.070 C 
HETATM    4  N1  UNL     1      -9.000 -26.499 -12.376  1.00  0.00    -0.298 N 
ATOM      5  H1  UNL     1      -9.686 -26.748 -11.664  1.00  0.00     0.187 HD
HETATM    6  N2  UNL     1      -8.860 -27.101 -13.531  1.00  0.00    -0.260 N 
HETATM    7  C15 UNL     1      -7.868 -26.513 -14.208  1.00  0.00     0.039 A 
HETATM    8  C16 UNL     1      -7.322 -26.823 -15.560  1.00  0.00     0.071 C 
ENDROOT
BRANCH   6   9
HETATM    9  C6  UNL     1      -9.608 -28.197 -14.023  1.00  0.00     0.063 A 
HETATM   10  C7  UNL     1      -9.036 -29.451 -14.011  1.00  0.00     0.039 A 
HETATM   11  C8  UNL     1      -9.729 -30.531 -14.479  1.00  0.00    -0.059 A 
HETATM   12  C9  UNL     1      -9.109 -31.892 -14.466  1.00  0.00     0.048 C 
HETATM   13  C10 UNL     1     -11.024 -30.366 -14.973  1.00  0.00     0.014 A 
HETATM   14  C11 UNL     1     -11.567 -29.095 -14.970  1.00  0.00    -0.053 A 
HETATM   15  C12 UNL     1     -12.956 -28.892 -15.495  1.00  0.00     0.049 C 
HETATM   16  C13 UNL     1     -10.883 -27.991 -14.501  1.00  0.00    -0.027 A 
HETATM   17  C14 UNL     1     -11.513 -26.628 -14.517  1.00  0.00     0.051 C 
ENDBRANCH   6   9
BRANCH   1  18
HETATM   18  C2  UNL     1      -6.248 -24.566 -13.786  1.00  0.00     0.038 C 
HETATM   19  C1  UNL     1      -4.908 -25.100 -13.389  1.00  0.00     0.010 C 
ENDBRANCH   1  18
TORSDOF 2
ENDMDL
MODEL 5
REMARK VINA RESULT: -7.551441357      3.392      4.860
REMARK  2 active torsions:
REMARK  status: ('A' for Active; 'I' for Inactive)
REMARK    1  A    between atoms: C2_2  and  C3_3 
REMARK    2  A    between atoms: N2_8  and  C6_9 
ROOT
HETATM    1  C3  UNL     1      -7.929 -30.609 -14.908  1.00  0.00    -0.011 A 
HETATM    2  C4  UNL     1      -6.781 -30.884 -15.614  1.00  0.00     0.030 A 
HETATM    3  C5  UNL     1      -6.552 -32.095 -16.447  1.00  0.00     0.070 C 
HETATM    4  N1  UNL     1      -5.928 -29.868 -15.406  1.00  0.00    -0.298 N 
ATOM      5  H1  UNL     1      -4.991 -29.796 -15.803  1.00  0.00     0.187 HD
HETATM    6  N2  UNL     1      -6.482 -28.982 -14.615  1.00  0.00    -0.260 N 
HETATM    7  C15 UNL     1      -7.709 -29.401 -14.289  1.00  0.00     0.039 A 
HETATM    8  C16 UNL     1      -8.736 -28.758 -13.420  1.00  0.00     0.071 C 
ENDROOT
BRANCH   6   9
HETATM    9  C6  UNL     1      -5.915 -27.771 -14.155  1.00  0.00     0.063 A 
HETATM   10  C7  UNL     1      -4.745 -27.819 -13.427  1.00  0.00     0.039 A 
HETATM   11  C8  UNL     1      -4.171 -26.669 -12.966  1.00  0.00    -0.059 A 
HETATM   12  C9  UNL     1      -2.901 -26.721 -12.176  1.00  0.00     0.048 C 
HETATM   13  C10 UNL     1      -4.769 -25.437 -13.232  1.00  0.00     0.014 A 
HETATM   14  C11 UNL     1      -5.940 -25.424 -13.965  1.00  0.00    -0.053 A 
HETATM   15  C12 UNL     1      -6.603 -24.113 -14.265  1.00  0.00     0.049 C 
HETATM   16  C13 UNL     1      -6.537 -26.576 -14.440  1.00  0.00    -0.027 A 
HETATM   17  C14 UNL     1      -7.810 -26.515 -15.233  1.00  0.00     0.051 C 
ENDBRANCH   6   9
BRANCH   1  18
HETATM   18  C2  UNL     1      -9.163 -31.449 -14.827  1.00  0.00     0.038 C 
HETATM   19  C1  UNL     1      -9.098 -32.469 -13.735  1.00  0.00     0.010 C 
ENDBRANCH   1  18
TORSDOF 2
ENDMDL
