MODEL 1
REMARK VINA RESULT: -6.711642808      0.000      0.000
REMARK  5 active torsions:
REMARK  status: ('A' for Active; 'I' for Inactive)
REMARK    1  A    between atoms: C2_2  and  C3_3 
REMARK    2  A    between atoms: C4_4  and  C5_5 
REMARK    3  A    between atoms: C6_6  and  C7_7 
REMARK    4  A    between atoms: C13_13  and  C14_14 
REMARK    5  A    between atoms: C14_14  and  S1_15 
ROOT
HETATM    1  C7  UNL     1      -9.659 -27.864 -14.187  1.00  0.00     0.026 A 
HETATM    2  C8  UNL     1      -9.464 -26.712 -13.429  1.00  0.00     0.028 A 
HETATM    3  C9  UNL     1      -8.295 -26.462 -12.750  1.00  0.00    -0.061 A 
HETATM    4  C10 UNL     1      -8.170 -25.221 -11.972  1.00  0.00     0.048 C 
HETATM    5  C11 UNL     1      -7.297 -27.417 -12.850  1.00  0.00     0.007 A 
HETATM    6  C12 UNL     1      -7.451 -28.566 -13.587  1.00  0.00     0.010 A 
HETATM    7  C13 UNL     1      -8.624 -28.810 -14.264  1.00  0.00    -0.031 A 
ENDROOT
BRANCH   1   8
HETATM    8  C6  UNL     1     -10.902 -28.069 -14.874  1.00  0.00    -0.052 C 
HETATM    9  C5  UNL     1     -11.938 -28.249 -15.466  1.00  0.00    -0.009 C 
BRANCH   9  10
HETATM   10  C4  UNL     1     -13.148 -28.469 -16.186  1.00  0.00    -0.015 C 
HETATM   11  C3  UNL     1     -14.163 -28.646 -16.812  1.00  0.00    -0.093 C 
BRANCH  11  12
HETATM   12  C2  UNL     1     -15.386 -28.841 -17.587  1.00  0.00     0.090 C 
HETATM   13  C1  UNL     1     -15.180 -29.739 -18.774  1.00  0.00     0.018 C 
ENDBRANCH  11  12
ENDBRANCH   9  10
ENDBRANCH   1   8
BRANCH   7  14
HETATM   14  C14 UNL     1      -8.910 -29.993 -15.080  1.00  0.00     0.102 C 
BRANCH  14  15
HETATM   15  S1  UNL     1      -8.235 -31.488 -14.487  1.00  0.00    -0.224 SA
HETATM   16  C15 UNL     1      -9.589 -32.663 -14.336  1.00  0.00     0.078 C 
HETATM   17  C16 UNL     1      -7.085 -32.217 -15.632  1.00  0.00     0.078 C 
ENDBRANCH  14  15
ENDBRANCH   7  14
TORSDOF 5
ENDMDL
MODEL 2
REMARK VINA RESULT: -6.346269658      2.357      4.752
REMARK  5 active torsions:
REMARK  status: ('A' for Active; 'I' for Inactive)
REMARK    1  A    between atoms: C2_2  and  C3_3 
REMARK    2  A    between atoms: C4_4  and  C5_5 
REMARK    3  A    between atoms: C6_6  and  C7_7 
REMARK    4  A    between atoms: C13_13  and  C14_14 
REMARK    5  A    between atoms: C14_14  and  S1_15 
ROOT
HETATM    1  C7  UNL     1      -7.994 -27.982 -13.738  1.00  0.00     0.026 A 
HETATM    2  C8  UNL     1      -6.621 -27.760 -13.670  1.00  0.00     0.028 A 
HETATM    3  C9  UNL     1      -6.083 -26.515 -13.444  1.00  0.00    -0.061 A 
HETATM    4  C10 UNL     1      -4.621 -26.365 -13.387  1.00  0.00     0.048 C 
HETATM    5  C11 UNL     1      -6.975 -25.468 -13.284  1.00  0.00     0.007 A 
HETATM    6  C12 UNL     1      -8.336 -25.646 -13.345  1.00  0.00     0.010 A 
HETATM    7  C13 UNL     1      -8.868 -26.895 -13.571  1.00  0.00    -0.031 A 
ENDROOT
BRANCH   1   8
HETATM    8  C6  UNL     1      -8.495 -29.305 -13.975  1.00  0.00    -0.052 C 
HETATM    9  C5  UNL     1      -8.928 -30.417 -14.159  1.00  0.00    -0.009 C 
BRANCH   9  10
HETATM   10  C4  UNL     1      -9.451 -31.728 -14.354  1.00  0.00    -0.015 C 
HETATM   11  C3  UNL     1      -9.912 -32.832 -14.509  1.00  0.00    -0.093 C 
BRANCH  11  12
HETATM   12  C2  UNL     1     -10.486 -34.164 -14.678  1.00  0.00     0.090 C 
HETATM   13  C1  UNL     1     -11.973 -34.129 -14.890  1.00  0.00     0.018 C 
ENDBRANCH  11  12
ENDBRANCH   9  10
ENDBRANCH   1   8
BRANCH   7  14
HETATM   14  C14 UNL     1     -10.294 -27.214 -13.658  1.00  0.00     0.102 C 
BRANCH  14  15
HETATM   15  S1  UNL     1     -11.111 -26.597 -15.071  1.00  0.00    -0.224 SA
HETATM   16  C15 UNL     1      -9.938 -26.652 -16.433  1.00  0.00     0.078 C 
HETATM   17  C16 UNL     1     -12.479 -27.620 -15.567  1.00  0.00     0.078 C 
ENDBRANCH  14  15
ENDBRANCH   7  14
TORSDOF 5
ENDMDL
MODEL 3
REMARK VINA RESULT: -6.321416347      0.516      1.095
REMARK  5 active torsions:
REMARK  status: ('A' for Active; 'I' for Inactive)
REMARK    1  A    between atoms: C2_2  and  C3_3 
REMARK    2  A    between atoms: C4_4  and  C5_5 
REMARK    3  A    between atoms: C6_6  and  C7_7 
REMARK    4  A    between atoms: C13_13  and  C14_14 
REMARK    5  A    between atoms: C14_14  and  S1_15 
ROOT
HETATM    1  C7  UNL     1      -9.646 -27.921 -14.321  1.00  0.00     0.026 A 
HETATM    2  C8  UNL     1      -9.464 -26.840 -13.462  1.00  0.00     0.028 A 
HETATM    3  C9  UNL     1      -8.278 -26.607 -12.807  1.00  0.00    -0.061 A 
HETATM    4  C10 UNL     1      -8.167 -25.442 -11.917  1.00  0.00     0.048 C 
HETATM    5  C11 UNL     1      -7.250 -27.506 -13.036  1.00  0.00     0.007 A 
HETATM    6  C12 UNL     1      -7.391 -28.585 -13.875  1.00  0.00     0.010 A 
HETATM    7  C13 UNL     1      -8.581 -28.812 -14.528  1.00  0.00    -0.031 A 
ENDROOT
BRANCH   1   8
HETATM    8  C6  UNL     1     -10.908 -28.111 -14.977  1.00  0.00    -0.052 C 
HETATM    9  C5  UNL     1     -11.961 -28.281 -15.542  1.00  0.00    -0.009 C 
BRANCH   9  10
HETATM   10  C4  UNL     1     -13.191 -28.495 -16.228  1.00  0.00    -0.015 C 
HETATM   11  C3  UNL     1     -14.224 -28.690 -16.820  1.00  0.00    -0.093 C 
BRANCH  11  12
HETATM   12  C2  UNL     1     -15.460 -28.938 -17.556  1.00  0.00     0.090 C 
HETATM   13  C1  UNL     1     -15.239 -29.748 -18.801  1.00  0.00     0.018 C 
ENDBRANCH  11  12
ENDBRANCH   9  10
ENDBRANCH   1   8
BRANCH   7  14
HETATM   14  C14 UNL     1      -8.855 -29.922 -15.443  1.00  0.00     0.102 C 
BRANCH  14  15
HETATM   15  S1  UNL     1      -8.463 -31.508 -14.831  1.00  0.00    -0.224 SA
HETATM   16  C15 UNL     1      -6.672 -31.671 -14.878  1.00  0.00     0.078 C 
HETATM   17  C16 UNL     1      -8.923 -31.711 -13.124  1.00  0.00     0.078 C 
ENDBRANCH  14  15
ENDBRANCH   7  14
TORSDOF 5
ENDMDL
MODEL 4
REMARK VINA RESULT: -6.216389600      2.431      4.734
REMARK  5 active torsions:
REMARK  status: ('A' for Active; 'I' for Inactive)
REMARK    1  A    between atoms: C2_2  and  C3_3 
REMARK    2  A    between atoms: C4_4  and  C5_5 
REMARK    3  A    between atoms: C6_6  and  C7_7 
REMARK    4  A    between atoms: C13_13  and  C14_14 
REMARK    5  A    between atoms: C14_14  and  S1_15 
ROOT
HETATM    1  C7  UNL     1      -7.702 -27.837 -13.709  1.00  0.00     0.026 A 
HETATM    2  C8  UNL     1      -6.323 -27.672 -13.604  1.00  0.00     0.028 A 
HETATM    3  C9  UNL     1      -5.739 -26.447 -13.385  1.00  0.00    -0.061 A 
HETATM    4  C10 UNL     1      -4.274 -26.358 -13.287  1.00  0.00     0.048 C 
HETATM    5  C11 UNL     1      -6.589 -25.360 -13.268  1.00  0.00     0.007 A 
HETATM    6  C12 UNL     1      -7.954 -25.482 -13.366  1.00  0.00     0.010 A 
HETATM    7  C13 UNL     1      -8.532 -26.711 -13.586  1.00  0.00    -0.031 A 
ENDROOT
BRANCH   1   8
HETATM    8  C6  UNL     1      -8.253 -29.142 -13.938  1.00  0.00    -0.052 C 
HETATM    9  C5  UNL     1      -8.714 -30.243 -14.112  1.00  0.00    -0.009 C 
BRANCH   9  10
HETATM   10  C4  UNL     1      -9.254 -31.549 -14.293  1.00  0.00    -0.015 C 
HETATM   11  C3  UNL     1      -9.730 -32.647 -14.444  1.00  0.00    -0.093 C 
BRANCH  11  12
HETATM   12  C2  UNL     1     -10.329 -33.968 -14.615  1.00  0.00     0.090 C 
HETATM   13  C1  UNL     1     -11.830 -33.925 -14.627  1.00  0.00     0.018 C 
ENDBRANCH  11  12
ENDBRANCH   9  10
ENDBRANCH   1   8
BRANCH   7  14
HETATM   14  C14 UNL     1      -9.968 -26.970 -13.709  1.00  0.00     0.102 C 
BRANCH  14  15
HETATM   15  S1  UNL     1     -10.527 -27.317 -15.325  1.00  0.00    -0.224 SA
HETATM   16  C15 UNL     1     -12.293 -26.979 -15.365  1.00  0.00     0.078 C 
HETATM   17  C16 UNL     1      -9.800 -26.243 -16.542  1.00  0.00     0.078 C 
ENDBRANCH  14  15
ENDBRANCH   7  14
TORSDOF 5
ENDMDL
MODEL 5
REMARK VINA RESULT: -6.143450288      1.802      6.563
REMARK  5 active torsions:
REMARK  status: ('A' for Active; 'I' for Inactive)
REMARK    1  A    between atoms: C2_2  and  C3_3 
REMARK    2  A    between atoms: C4_4  and  C5_5 
REMARK    3  A    between atoms: C6_6  and  C7_7 
REMARK    4  A    between atoms: C13_13  and  C14_14 
REMARK    5  A    between atoms: C14_14  and  S1_15 
ROOT
HETATM    1  C7  UNL     1     -13.017 -29.208 -15.382  1.00  0.00     0.026 A 
HETATM    2  C8  UNL     1     -13.685 -28.634 -16.460  1.00  0.00     0.028 A 
HETATM    3  C9  UNL     1     -14.774 -29.225 -17.056  1.00  0.00    -0.061 A 
HETATM    4  C10 UNL     1     -15.423 -28.552 -18.191  1.00  0.00     0.048 C 
HETATM    5  C11 UNL     1     -15.192 -30.437 -16.533  1.00  0.00     0.007 A 
HETATM    6  C12 UNL     1     -14.559 -31.036 -15.470  1.00  0.00     0.010 A 
HETATM    7  C13 UNL     1     -13.469 -30.439 -14.879  1.00  0.00    -0.031 A 
ENDROOT
BRANCH   1   8
HETATM    8  C6  UNL     1     -11.885 -28.543 -14.803  1.00  0.00    -0.052 C 
HETATM    9  C5  UNL     1     -10.932 -27.997 -14.302  1.00  0.00    -0.009 C 
BRANCH   9  10
HETATM   10  C4  UNL     1      -9.807 -27.370 -13.692  1.00  0.00    -0.015 C 
HETATM   11  C3  UNL     1      -8.845 -26.857 -13.176  1.00  0.00    -0.093 C 
BRANCH  11  12
HETATM   12  C2  UNL     1      -7.672 -26.260 -12.543  1.00  0.00     0.090 C 
HETATM   13  C1  UNL     1      -8.021 -25.095 -11.662  1.00  0.00     0.018 C 
ENDBRANCH  11  12
ENDBRANCH   9  10
ENDBRANCH   1   8
BRANCH   7  14
HETATM   14  C14 UNL     1     -12.711 -30.974 -13.746  1.00  0.00     0.102 C 
BRANCH  14  15
HETATM   15  S1  UNL     1     -11.731 -32.374 -14.100  1.00  0.00    -0.224 SA
HETATM   16  C15 UNL     1     -10.030 -31.810 -14.254  1.00  0.00     0.078 C 
HETATM   17  C16 UNL     1     -11.731 -33.558 -12.772  1.00  0.00     0.078 C 
ENDBRANCH  14  15
ENDBRANCH   7  14
TORSDOF 5
ENDMDL
