MODEL 1
REMARK VINA RESULT: -7.803374229      0.000      0.000
REMARK  5 active torsions:
REMARK  status: ('A' for Active; 'I' for Inactive)
REMARK    1  A    between atoms: C4_4  and  C5_5 
REMARK    2  A    between atoms: N2_11  and  C9_12 
REMARK    3  A    between atoms: C9_12  and  C10_13 
REMARK    4  A    between atoms: C11_14  and  C12_15 
REMARK    5  A    between atoms: C13_16  and  C14_17 
ROOT
HETATM    1  C5  UNL     1      -8.550 -28.264 -13.980  1.00  0.00     0.058 A 
HETATM    2  C6  UNL     1      -7.697 -29.113 -14.643  1.00  0.00     0.033 A 
HETATM    3  C7  UNL     1      -6.214 -29.236 -14.587  1.00  0.00     0.070 C 
HETATM    4  N1  UNL     1      -8.476 -29.886 -15.461  1.00  0.00    -0.354 N 
ATOM      5  H1  UNL     1      -8.146 -30.620 -16.088  1.00  0.00     0.166 HD
HETATM    6  C8  UNL     1      -9.753 -29.506 -15.291  1.00  0.00     0.184 A 
HETATM    7  N2  UNL     1      -9.829 -28.514 -14.390  1.00  0.00    -0.330 N 
ENDROOT
BRANCH   7   8
HETATM    8  C9  UNL     1     -11.059 -27.858 -13.974  1.00  0.00     0.224 C 
BRANCH   8   9
HETATM    9  C10 UNL     1     -12.139 -28.135 -14.956  1.00  0.00    -0.072 C 
HETATM   10  C11 UNL     1     -13.002 -28.379 -15.761  1.00  0.00    -0.013 C 
BRANCH  10  11
HETATM   11  C12 UNL     1     -14.008 -28.691 -16.716  1.00  0.00    -0.015 C 
HETATM   12  C13 UNL     1     -14.851 -28.945 -17.544  1.00  0.00    -0.088 C 
BRANCH  12  13
HETATM   13  C14 UNL     1     -15.868 -29.231 -18.558  1.00  0.00     0.058 C 
HETATM   14  C15 UNL     1     -15.268 -30.068 -19.658  1.00  0.00     0.023 C 
HETATM   15  C16 UNL     1     -16.454 -27.944 -19.062  1.00  0.00     0.023 C 
ENDBRANCH  12  13
ENDBRANCH  10  11
ENDBRANCH   8   9
ENDBRANCH   7   8
BRANCH   1  16
HETATM   16  C4  UNL     1      -8.258 -27.265 -12.974  1.00  0.00     0.033 C 
HETATM   17  C2  UNL     1      -7.830 -26.049 -13.140  1.00  0.00    -0.085 C 
HETATM   18  C1  UNL     1      -7.564 -25.487 -14.467  1.00  0.00     0.043 C 
HETATM   19  C3  UNL     1      -7.602 -25.194 -11.938  1.00  0.00     0.043 C 
ENDBRANCH   1  16
TORSDOF 5
ENDMDL
MODEL 2
REMARK VINA RESULT: -7.685812957      0.858      1.108
REMARK  5 active torsions:
REMARK  status: ('A' for Active; 'I' for Inactive)
REMARK    1  A    between atoms: C4_4  and  C5_5 
REMARK    2  A    between atoms: N2_11  and  C9_12 
REMARK    3  A    between atoms: C9_12  and  C10_13 
REMARK    4  A    between atoms: C11_14  and  C12_15 
REMARK    5  A    between atoms: C13_16  and  C14_17 
ROOT
HETATM    1  C5  UNL     1      -8.020 -28.041 -14.381  1.00  0.00     0.058 A 
HETATM    2  C6  UNL     1      -7.327 -29.221 -14.509  1.00  0.00     0.033 A 
HETATM    3  C7  UNL     1      -5.888 -29.474 -14.798  1.00  0.00     0.070 C 
HETATM    4  N1  UNL     1      -8.239 -30.227 -14.343  1.00  0.00    -0.354 N 
ATOM      5  H1  UNL     1      -8.044 -31.228 -14.379  1.00  0.00     0.166 HD
HETATM    6  C8  UNL     1      -9.439 -29.663 -14.126  1.00  0.00     0.184 A 
HETATM    7  N2  UNL     1      -9.335 -28.326 -14.143  1.00  0.00    -0.330 N 
ENDROOT
BRANCH   7   8
HETATM    8  C9  UNL     1     -10.441 -27.401 -13.952  1.00  0.00     0.224 C 
BRANCH   8   9
HETATM    9  C10 UNL     1     -11.575 -27.775 -14.837  1.00  0.00    -0.072 C 
HETATM   10  C11 UNL     1     -12.487 -28.103 -15.553  1.00  0.00    -0.013 C 
BRANCH  10  11
HETATM   11  C12 UNL     1     -13.559 -28.517 -16.390  1.00  0.00    -0.015 C 
HETATM   12  C13 UNL     1     -14.485 -28.856 -17.089  1.00  0.00    -0.088 C 
BRANCH  12  13
HETATM   13  C14 UNL     1     -15.622 -29.265 -17.916  1.00  0.00     0.058 C 
HETATM   14  C15 UNL     1     -15.126 -29.991 -19.140  1.00  0.00     0.023 C 
HETATM   15  C16 UNL     1     -16.459 -28.066 -18.253  1.00  0.00     0.023 C 
ENDBRANCH  12  13
ENDBRANCH  10  11
ENDBRANCH   8   9
ENDBRANCH   7   8
BRANCH   1  16
HETATM   16  C4  UNL     1      -7.535 -26.679 -14.432  1.00  0.00     0.033 C 
HETATM   17  C2  UNL     1      -7.251 -25.882 -13.444  1.00  0.00    -0.085 C 
HETATM   18  C1  UNL     1      -7.398 -26.288 -12.044  1.00  0.00     0.043 C 
HETATM   19  C3  UNL     1      -6.757 -24.506 -13.746  1.00  0.00     0.043 C 
ENDBRANCH   1  16
TORSDOF 5
ENDMDL
MODEL 3
REMARK VINA RESULT: -7.071244341      2.700      7.050
REMARK  5 active torsions:
REMARK  status: ('A' for Active; 'I' for Inactive)
REMARK    1  A    between atoms: C4_4  and  C5_5 
REMARK    2  A    between atoms: N2_11  and  C9_12 
REMARK    3  A    between atoms: C9_12  and  C10_13 
REMARK    4  A    between atoms: C11_14  and  C12_15 
REMARK    5  A    between atoms: C13_16  and  C14_17 
ROOT
HETATM    1  C5  UNL     1     -12.087 -30.862 -14.207  1.00  0.00     0.058 A 
HETATM    2  C6  UNL     1     -13.030 -31.430 -13.385  1.00  0.00     0.033 A 
HETATM    3  C7  UNL     1     -14.445 -31.048 -13.123  1.00  0.00     0.070 C 
HETATM    4  N1  UNL     1     -12.418 -32.483 -12.761  1.00  0.00    -0.354 N 
ATOM      5  H1  UNL     1     -12.848 -33.114 -12.085  1.00  0.00     0.166 HD
HETATM    6  C8  UNL     1     -11.148 -32.537 -13.197  1.00  0.00     0.184 A 
HETATM    7  N2  UNL     1     -10.917 -31.557 -14.083  1.00  0.00    -0.330 N 
ENDROOT
BRANCH   7   8
HETATM    8  C9  UNL     1      -9.646 -31.316 -14.747  1.00  0.00     0.224 C 
BRANCH   8   9
HETATM    9  C10 UNL     1      -9.044 -30.052 -14.249  1.00  0.00    -0.072 C 
HETATM   10  C11 UNL     1      -8.578 -29.014 -13.851  1.00  0.00    -0.013 C 
BRANCH  10  11
HETATM   11  C12 UNL     1      -8.053 -27.778 -13.383  1.00  0.00    -0.015 C 
HETATM   12  C13 UNL     1      -7.616 -26.732 -12.965  1.00  0.00    -0.088 C 
BRANCH  12  13
HETATM   13  C14 UNL     1      -7.106 -25.463 -12.443  1.00  0.00     0.058 C 
HETATM   14  C15 UNL     1      -8.048 -24.929 -11.395  1.00  0.00     0.023 C 
HETATM   15  C16 UNL     1      -6.893 -24.500 -13.575  1.00  0.00     0.023 C 
ENDBRANCH  12  13
ENDBRANCH  10  11
ENDBRANCH   8   9
ENDBRANCH   7   8
BRANCH   1  16
HETATM   16  C4  UNL     1     -12.212 -29.744 -15.117  1.00  0.00     0.033 C 
HETATM   17  C2  UNL     1     -12.191 -28.472 -14.846  1.00  0.00    -0.085 C 
HETATM   18  C1  UNL     1     -12.028 -27.965 -13.481  1.00  0.00     0.043 C 
HETATM   19  C3  UNL     1     -12.336 -27.494 -15.964  1.00  0.00     0.043 C 
ENDBRANCH   1  16
TORSDOF 5
ENDMDL
MODEL 4
REMARK VINA RESULT: -6.921544126      4.150      4.691
REMARK  5 active torsions:
REMARK  status: ('A' for Active; 'I' for Inactive)
REMARK    1  A    between atoms: C4_4  and  C5_5 
REMARK    2  A    between atoms: N2_11  and  C9_12 
REMARK    3  A    between atoms: C9_12  and  C10_13 
REMARK    4  A    between atoms: C11_14  and  C12_15 
REMARK    5  A    between atoms: C13_16  and  C14_17 
ROOT
HETATM    1  C5  UNL     1      -6.782 -27.564 -13.329  1.00  0.00     0.058 A 
HETATM    2  C6  UNL     1      -5.461 -27.826 -13.601  1.00  0.00     0.033 A 
HETATM    3  C7  UNL     1      -4.219 -27.207 -13.062  1.00  0.00     0.070 C 
HETATM    4  N1  UNL     1      -5.448 -28.813 -14.549  1.00  0.00    -0.354 N 
ATOM      5  H1  UNL     1      -4.618 -29.235 -14.966  1.00  0.00     0.166 HD
HETATM    6  C8  UNL     1      -6.723 -29.126 -14.834  1.00  0.00     0.184 A 
HETATM    7  N2  UNL     1      -7.562 -28.378 -14.101  1.00  0.00    -0.330 N 
ENDROOT
BRANCH   7   8
HETATM    8  C9  UNL     1      -9.013 -28.449 -14.163  1.00  0.00     0.224 C 
BRANCH   8   9
HETATM    9  C10 UNL     1      -9.448 -29.864 -14.283  1.00  0.00    -0.072 C 
HETATM   10  C11 UNL     1      -9.792 -31.017 -14.356  1.00  0.00    -0.013 C 
BRANCH  10  11
HETATM   11  C12 UNL     1     -10.196 -32.379 -14.415  1.00  0.00    -0.015 C 
HETATM   12  C13 UNL     1     -10.560 -33.530 -14.468  1.00  0.00    -0.088 C 
BRANCH  12  13
HETATM   13  C14 UNL     1     -11.024 -34.918 -14.523  1.00  0.00     0.058 C 
HETATM   14  C15 UNL     1     -10.937 -35.428 -15.938  1.00  0.00     0.023 C 
HETATM   15  C16 UNL     1     -12.412 -35.010 -13.958  1.00  0.00     0.023 C 
ENDBRANCH  12  13
ENDBRANCH  10  11
ENDBRANCH   8   9
ENDBRANCH   7   8
BRANCH   1  16
HETATM   16  C4  UNL     1      -7.361 -26.637 -12.380  1.00  0.00     0.033 C 
HETATM   17  C2  UNL     1      -7.466 -25.344 -12.472  1.00  0.00    -0.085 C 
HETATM   18  C1  UNL     1      -6.974 -24.599 -13.633  1.00  0.00     0.043 C 
HETATM   19  C3  UNL     1      -8.112 -24.592 -11.356  1.00  0.00     0.043 C 
ENDBRANCH   1  16
TORSDOF 5
ENDMDL
MODEL 5
REMARK VINA RESULT: -6.788982193      3.724      6.242
REMARK  5 active torsions:
REMARK  status: ('A' for Active; 'I' for Inactive)
REMARK    1  A    between atoms: C4_4  and  C5_5 
REMARK    2  A    between atoms: N2_11  and  C9_12 
REMARK    3  A    between atoms: C9_12  and  C10_13 
REMARK    4  A    between atoms: C11_14  and  C12_15 
REMARK    5  A    between atoms: C13_16  and  C14_17 
ROOT
HETATM    1  C5  UNL     1      -8.741 -27.838 -14.118  1.00  0.00     0.058 A 
HETATM    2  C6  UNL     1      -7.792 -27.122 -13.428  1.00  0.00     0.033 A 
HETATM    3  C7  UNL     1      -7.890 -25.819 -12.713  1.00  0.00     0.070 C 
HETATM    4  N1  UNL     1      -6.625 -27.831 -13.523  1.00  0.00    -0.354 N 
ATOM      5  H1  UNL     1      -5.728 -27.569 -13.115  1.00  0.00     0.166 HD
HETATM    6  C8  UNL     1      -6.872 -28.934 -14.250  1.00  0.00     0.184 A 
HETATM    7  N2  UNL     1      -8.159 -28.965 -14.627  1.00  0.00    -0.330 N 
ENDROOT
BRANCH   7   8
HETATM    8  C9  UNL     1      -8.767 -30.012 -15.433  1.00  0.00     0.224 C 
BRANCH   8   9
HETATM    9  C10 UNL     1      -9.231 -31.121 -14.560  1.00  0.00    -0.072 C 
HETATM   10  C11 UNL     1      -9.605 -32.004 -13.830  1.00  0.00    -0.013 C 
BRANCH  10  11
HETATM   11  C12 UNL     1     -10.050 -33.029 -12.950  1.00  0.00    -0.015 C 
HETATM   12  C13 UNL     1     -10.443 -33.884 -12.192  1.00  0.00    -0.088 C 
BRANCH  12  13
HETATM   13  C14 UNL     1     -10.923 -34.903 -11.257  1.00  0.00     0.058 C 
HETATM   14  C15 UNL     1     -11.191 -34.274  -9.914  1.00  0.00     0.023 C 
HETATM   15  C16 UNL     1      -9.933 -36.028 -11.183  1.00  0.00     0.023 C 
ENDBRANCH  12  13
ENDBRANCH  10  11
ENDBRANCH   8   9
ENDBRANCH   7   8
BRANCH   1  16
HETATM   16  C4  UNL     1     -10.149 -27.561 -14.304  1.00  0.00     0.033 C 
HETATM   17  C2  UNL     1     -10.734 -26.976 -15.307  1.00  0.00    -0.085 C 
HETATM   18  C1  UNL     1      -9.989 -26.480 -16.467  1.00  0.00     0.043 C 
HETATM   19  C3  UNL     1     -12.216 -26.803 -15.277  1.00  0.00     0.043 C 
ENDBRANCH   1  16
TORSDOF 5
ENDMDL
