MODEL 1
REMARK VINA RESULT: -6.382757715      0.000      0.000
REMARK  8 active torsions:
REMARK  status: ('A' for Active; 'I' for Inactive)
REMARK       I    between atoms: C1_4  and  N2_5 
REMARK       I    between atoms: C1_4  and  N9_31 
REMARK    1  A    between atoms: N2_5  and  C2_7 
REMARK    2  A    between atoms: C2_7  and  C3_8 
REMARK    3  A    between atoms: C3_8  and  N3_9 
REMARK    4  A    between atoms: N3_9  and  C4_11 
REMARK    5  A    between atoms: N5_17  and  O1_19 
REMARK    6  A    between atoms: O1_19  and  N6_20 
REMARK    7  A    between atoms: C8_25  and  O2_26 
REMARK    8  A    between atoms: N9_31  and  N10_33 
ROOT
HETATM    1  C4  UNL     1      55.079 -13.006  15.687  1.00  0.00     0.679 C 
HETATM    2  N4  UNL     1      55.993 -12.431  16.428  1.00  0.00    -0.224 N 
ATOM      3  H4  UNL     1      57.002 -12.534  16.314  1.00  0.00     0.177 HD
HETATM    4  C5  UNL     1      55.323 -11.611  17.457  1.00  0.00     0.172 C 
HETATM    5  C6  UNL     1      54.019 -12.404  17.579  1.00  0.00     0.198 C 
HETATM    6  C7  UNL     1      52.927 -11.702  18.221  1.00  0.00     0.128 C 
HETATM    7  N5  UNL     1      52.860 -11.634  19.498  1.00  0.00    -0.228 N 
ATOM      8  H5  UNL     1      52.093 -11.140  19.955  1.00  0.00     0.198 HD
HETATM    9  N7  UNL     1      51.923 -11.109  17.411  1.00  0.00    -0.343 N 
ATOM     10  H7  UNL     1      51.479 -10.248  17.732  1.00  0.00     0.164 HD
HETATM   11  C8  UNL     1      51.505 -11.679  16.151  1.00  0.00     0.314 C 
HETATM   12  C9  UNL     1      52.559 -12.497  15.502  1.00  0.00     0.287 C 
HETATM   13  O3  UNL     1      52.335 -13.030  14.415  1.00  0.00    -0.267 OA
HETATM   14  N8  UNL     1      53.796 -12.638  16.157  1.00  0.00    -0.134 N 
ENDROOT
BRANCH   1  15
HETATM   15  N3  UNL     1      55.353 -13.890  14.574  1.00  0.00    -0.225 N 
ATOM     16  H3  UNL     1      54.962 -14.831  14.562  1.00  0.00     0.177 HD
BRANCH  15  17
HETATM   17  C3  UNL     1      56.183 -13.437  13.480  1.00  0.00     0.158 C 
BRANCH  17  18
HETATM   18  C2  UNL     1      55.705 -12.087  13.035  1.00  0.00     0.158 C 
BRANCH  18  19
HETATM   19  N2  UNL     1      55.267 -12.143  11.648  1.00  0.00    -0.224 N 
HETATM   20  C1  UNL     1      54.241 -13.033  11.238  1.00  0.00     0.691 C 
HETATM   21  N1  UNL     1      54.497 -14.054  10.462  1.00  0.00    -0.233 N 
HETATM   22  N9  UNL     1      52.923 -12.798  11.686  1.00  0.00    -0.072 N 
ATOM     23  H12 UNL     1      55.449 -14.224  10.138  1.00  0.00     0.174 HD
ATOM     24  H11 UNL     1      53.759 -14.693  10.167  1.00  0.00     0.174 HD
ATOM     25  H9  UNL     1      52.501 -13.395  12.398  1.00  0.00     0.212 HD
ATOM     26  H2  UNL     1      55.706 -11.533  10.959  1.00  0.00     0.177 HD
BRANCH  22  27
HETATM   27  N10 UNL     1      52.213 -11.740  11.138  1.00  0.00    -0.024 N 
HETATM   28  O4  UNL     1      52.514 -11.300  10.017  1.00  0.00    -0.516 OA
HETATM   29  O5  UNL     1      51.174 -11.180  11.833  1.00  0.00    -0.516 OA
ENDBRANCH  22  27
ENDBRANCH  18  19
ENDBRANCH  17  18
ENDBRANCH  15  17
ENDBRANCH   1  15
BRANCH  11  30
HETATM   30  O2  UNL     1      51.096 -10.631  15.326  1.00  0.00    -0.368 OA
ATOM     31  H2  UNL     1      51.876 -10.210  14.985  1.00  0.00     0.212 HD
ENDBRANCH  11  30
BRANCH   7  32
HETATM   32  O1  UNL     1      53.844 -12.240  20.238  1.00  0.00    -0.163 OA
BRANCH  32  33
HETATM   33  N6  UNL     1      54.749 -11.412  20.860  1.00  0.00    -0.286 N 
ATOM     34  H62 UNL     1      55.721 -11.377  20.553  1.00  0.00     0.186 HD
ATOM     35  H61 UNL     1      54.398 -10.845  21.632  1.00  0.00     0.186 HD
ENDBRANCH  32  33
ENDBRANCH   7  32
TORSDOF 8
ENDMDL
MODEL 2
REMARK VINA RESULT: -6.219888683      2.970      6.540
REMARK  8 active torsions:
REMARK  status: ('A' for Active; 'I' for Inactive)
REMARK       I    between atoms: C1_4  and  N2_5 
REMARK       I    between atoms: C1_4  and  N9_31 
REMARK    1  A    between atoms: N2_5  and  C2_7 
REMARK    2  A    between atoms: C2_7  and  C3_8 
REMARK    3  A    between atoms: C3_8  and  N3_9 
REMARK    4  A    between atoms: N3_9  and  C4_11 
REMARK    5  A    between atoms: N5_17  and  O1_19 
REMARK    6  A    between atoms: O1_19  and  N6_20 
REMARK    7  A    between atoms: C8_25  and  O2_26 
REMARK    8  A    between atoms: N9_31  and  N10_33 
ROOT
HETATM    1  C4  UNL     1      52.855 -11.587  17.770  1.00  0.00     0.679 C 
HETATM    2  N4  UNL     1      51.577 -11.609  17.483  1.00  0.00    -0.224 N 
ATOM      3  H4  UNL     1      50.815 -11.587  18.162  1.00  0.00     0.177 HD
HETATM    4  C5  UNL     1      51.420 -11.670  16.017  1.00  0.00     0.172 C 
HETATM    5  C6  UNL     1      52.729 -12.384  15.669  1.00  0.00     0.198 C 
HETATM    6  C7  UNL     1      53.131 -12.296  14.280  1.00  0.00     0.128 C 
HETATM    7  N5  UNL     1      52.618 -13.074  13.404  1.00  0.00    -0.228 N 
ATOM      8  H5  UNL     1      52.898 -13.014  12.424  1.00  0.00     0.198 HD
HETATM    9  N7  UNL     1      54.119 -11.344  13.913  1.00  0.00    -0.343 N 
ATOM     10  H7  UNL     1      54.063 -10.909  12.992  1.00  0.00     0.164 HD
HETATM   11  C8  UNL     1      55.202 -10.969  14.794  1.00  0.00     0.314 C 
HETATM   12  C9  UNL     1      54.873 -11.144  16.230  1.00  0.00     0.287 C 
HETATM   13  O3  UNL     1      55.707 -10.849  17.086  1.00  0.00    -0.267 OA
HETATM   14  N8  UNL     1      53.604 -11.646  16.571  1.00  0.00    -0.134 N 
ENDROOT
BRANCH   1  15
HETATM   15  N3  UNL     1      53.400 -11.530  19.109  1.00  0.00    -0.225 N 
ATOM     16  H3  UNL     1      53.511 -10.631  19.576  1.00  0.00     0.177 HD
BRANCH  15  17
HETATM   17  C3  UNL     1      53.788 -12.749  19.784  1.00  0.00     0.158 C 
BRANCH  17  18
HETATM   18  C2  UNL     1      55.270 -12.727  20.011  1.00  0.00     0.158 C 
BRANCH  18  19
HETATM   19  N2  UNL     1      55.954 -13.402  18.918  1.00  0.00    -0.224 N 
HETATM   20  C1  UNL     1      56.739 -14.561  19.148  1.00  0.00     0.691 C 
HETATM   21  N1  UNL     1      58.040 -14.537  19.011  1.00  0.00    -0.233 N 
HETATM   22  N9  UNL     1      56.091 -15.754  19.532  1.00  0.00    -0.072 N 
ATOM     23  H12 UNL     1      58.509 -13.675  18.734  1.00  0.00     0.174 HD
ATOM     24  H11 UNL     1      58.605 -15.370  19.177  1.00  0.00     0.174 HD
ATOM     25  H9  UNL     1      56.158 -16.098  20.490  1.00  0.00     0.212 HD
ATOM     26  H2  UNL     1      55.866 -13.036  17.970  1.00  0.00     0.177 HD
BRANCH  22  27
HETATM   27  N10 UNL     1      55.359 -16.449  18.579  1.00  0.00    -0.024 N 
HETATM   28  O4  UNL     1      55.878 -17.393  17.961  1.00  0.00    -0.516 OA
HETATM   29  O5  UNL     1      54.061 -16.098  18.323  1.00  0.00    -0.516 OA
ENDBRANCH  22  27
ENDBRANCH  18  19
ENDBRANCH  17  18
ENDBRANCH  15  17
ENDBRANCH   1  15
BRANCH  11  30
HETATM   30  O2  UNL     1      55.544  -9.648  14.507  1.00  0.00    -0.368 OA
ATOM     31  H2  UNL     1      54.955  -9.084  14.996  1.00  0.00     0.212 HD
ENDBRANCH  11  30
BRANCH   7  32
HETATM   32  O1  UNL     1      51.682 -13.991  13.811  1.00  0.00    -0.163 OA
BRANCH  32  33
HETATM   33  N6  UNL     1      51.011 -14.672  12.821  1.00  0.00    -0.286 N 
ATOM     34  H62 UNL     1      51.193 -14.475  11.837  1.00  0.00     0.186 HD
ATOM     35  H61 UNL     1      50.335 -15.373  13.123  1.00  0.00     0.186 HD
ENDBRANCH  32  33
ENDBRANCH   7  32
TORSDOF 8
ENDMDL
MODEL 3
REMARK VINA RESULT: -6.180733050      2.399      6.653
REMARK  8 active torsions:
REMARK  status: ('A' for Active; 'I' for Inactive)
REMARK       I    between atoms: C1_4  and  N2_5 
REMARK       I    between atoms: C1_4  and  N9_31 
REMARK    1  A    between atoms: N2_5  and  C2_7 
REMARK    2  A    between atoms: C2_7  and  C3_8 
REMARK    3  A    between atoms: C3_8  and  N3_9 
REMARK    4  A    between atoms: N3_9  and  C4_11 
REMARK    5  A    between atoms: N5_17  and  O1_19 
REMARK    6  A    between atoms: O1_19  and  N6_20 
REMARK    7  A    between atoms: C8_25  and  O2_26 
REMARK    8  A    between atoms: N9_31  and  N10_33 
ROOT
HETATM    1  C4  UNL     1      53.391 -12.788  15.761  1.00  0.00     0.679 C 
HETATM    2  N4  UNL     1      53.938 -13.866  16.264  1.00  0.00    -0.224 N 
ATOM      3  H4  UNL     1      54.305 -13.960  17.212  1.00  0.00     0.177 HD
HETATM    4  C5  UNL     1      53.938 -14.924  15.235  1.00  0.00     0.172 C 
HETATM    5  C6  UNL     1      53.986 -14.039  13.987  1.00  0.00     0.198 C 
HETATM    6  C7  UNL     1      53.616 -14.695  12.749  1.00  0.00     0.128 C 
HETATM    7  N5  UNL     1      54.463 -15.417  12.118  1.00  0.00    -0.228 N 
ATOM      8  H5  UNL     1      54.207 -15.882  11.247  1.00  0.00     0.198 HD
HETATM    9  N7  UNL     1      52.304 -14.506  12.239  1.00  0.00    -0.343 N 
ATOM     10  H7  UNL     1      51.860 -15.271  11.731  1.00  0.00     0.164 HD
HETATM   11  C8  UNL     1      51.574 -13.271  12.412  1.00  0.00     0.314 C 
HETATM   12  C9  UNL     1      51.993 -12.509  13.614  1.00  0.00     0.287 C 
HETATM   13  O3  UNL     1      51.440 -11.442  13.883  1.00  0.00    -0.267 OA
HETATM   14  N8  UNL     1      53.020 -13.036  14.418  1.00  0.00    -0.134 N 
ENDROOT
BRANCH   1  15
HETATM   15  N3  UNL     1      53.216 -11.541  16.473  1.00  0.00    -0.225 N 
ATOM     16  H3  UNL     1      53.935 -10.819  16.422  1.00  0.00     0.177 HD
BRANCH  15  17
HETATM   17  C3  UNL     1      52.022 -11.318  17.257  1.00  0.00     0.158 C 
BRANCH  17  18
HETATM   18  C2  UNL     1      52.395 -11.278  18.709  1.00  0.00     0.158 C 
BRANCH  18  19
HETATM   19  N2  UNL     1      53.824 -11.504  18.865  1.00  0.00    -0.224 N 
HETATM   20  C1  UNL     1      54.334 -12.262  19.950  1.00  0.00     0.691 C 
HETATM   21  N1  UNL     1      55.034 -11.701  20.902  1.00  0.00    -0.233 N 
HETATM   22  N9  UNL     1      54.070 -13.648  19.991  1.00  0.00    -0.072 N 
ATOM     23  H12 UNL     1      55.225 -10.699  20.873  1.00  0.00     0.174 HD
ATOM     24  H11 UNL     1      55.401 -12.245  21.682  1.00  0.00     0.174 HD
ATOM     25  H9  UNL     1      53.400 -14.032  20.657  1.00  0.00     0.212 HD
ATOM     26  H2  UNL     1      54.471 -11.110  18.181  1.00  0.00     0.177 HD
BRANCH  22  27
HETATM   27  N10 UNL     1      54.742 -14.479  19.106  1.00  0.00    -0.024 N 
HETATM   28  O4  UNL     1      55.820 -14.118  18.607  1.00  0.00    -0.516 OA
HETATM   29  O5  UNL     1      54.219 -15.703  18.784  1.00  0.00    -0.516 OA
ENDBRANCH  22  27
ENDBRANCH  18  19
ENDBRANCH  17  18
ENDBRANCH  15  17
ENDBRANCH   1  15
BRANCH  11  30
HETATM   30  O2  UNL     1      50.215 -13.584  12.457  1.00  0.00    -0.368 OA
ATOM     31  H2  UNL     1      50.138 -14.512  12.645  1.00  0.00     0.212 HD
ENDBRANCH  11  30
BRANCH   7  32
HETATM   32  O1  UNL     1      55.725 -15.552  12.640  1.00  0.00    -0.163 OA
BRANCH  32  33
HETATM   33  N6  UNL     1      56.138 -16.831  12.935  1.00  0.00    -0.286 N 
ATOM     34  H62 UNL     1      55.461 -17.584  13.053  1.00  0.00     0.186 HD
ATOM     35  H61 UNL     1      57.143 -16.979  13.026  1.00  0.00     0.186 HD
ENDBRANCH  32  33
ENDBRANCH   7  32
TORSDOF 8
ENDMDL
MODEL 4
REMARK VINA RESULT: -6.179542385      2.705      3.744
REMARK  8 active torsions:
REMARK  status: ('A' for Active; 'I' for Inactive)
REMARK       I    between atoms: C1_4  and  N2_5 
REMARK       I    between atoms: C1_4  and  N9_31 
REMARK    1  A    between atoms: N2_5  and  C2_7 
REMARK    2  A    between atoms: C2_7  and  C3_8 
REMARK    3  A    between atoms: C3_8  and  N3_9 
REMARK    4  A    between atoms: N3_9  and  C4_11 
REMARK    5  A    between atoms: N5_17  and  O1_19 
REMARK    6  A    between atoms: O1_19  and  N6_20 
REMARK    7  A    between atoms: C8_25  and  O2_26 
REMARK    8  A    between atoms: N9_31  and  N10_33 
ROOT
HETATM    1  C4  UNL     1      55.227 -12.702  15.474  1.00  0.00     0.679 C 
HETATM    2  N4  UNL     1      56.033 -12.225  16.389  1.00  0.00    -0.224 N 
ATOM      3  H4  UNL     1      57.053 -12.225  16.342  1.00  0.00     0.177 HD
HETATM    4  C5  UNL     1      55.224 -11.687  17.501  1.00  0.00     0.172 C 
HETATM    5  C6  UNL     1      53.993 -12.585  17.352  1.00  0.00     0.198 C 
HETATM    6  C7  UNL     1      52.801 -12.116  18.028  1.00  0.00     0.128 C 
HETATM    7  N5  UNL     1      52.643 -12.318  19.282  1.00  0.00    -0.228 N 
ATOM      8  H5  UNL     1      51.805 -11.988  19.763  1.00  0.00     0.198 HD
HETATM    9  N7  UNL     1      51.803 -11.447  17.272  1.00  0.00    -0.343 N 
ATOM     10  H7  UNL     1      51.262 -10.707  17.719  1.00  0.00     0.164 HD
HETATM   11  C8  UNL     1      51.524 -11.775  15.892  1.00  0.00     0.314 C 
HETATM   12  C9  UNL     1      52.690 -12.359  15.184  1.00  0.00     0.287 C 
HETATM   13  O3  UNL     1      52.588 -12.672  13.998  1.00  0.00    -0.267 OA
HETATM   14  N8  UNL     1      53.888 -12.538  15.899  1.00  0.00    -0.134 N 
ENDROOT
BRANCH   1  15
HETATM   15  N3  UNL     1      55.655 -13.314  14.234  1.00  0.00    -0.225 N 
ATOM     16  H3  UNL     1      55.784 -12.742  13.401  1.00  0.00     0.177 HD
BRANCH  15  17
HETATM   17  C3  UNL     1      55.900 -14.738  14.179  1.00  0.00     0.158 C 
BRANCH  17  18
HETATM   18  C2  UNL     1      54.914 -15.364  13.238  1.00  0.00     0.158 C 
BRANCH  18  19
HETATM   19  N2  UNL     1      53.650 -15.596  13.920  1.00  0.00    -0.224 N 
HETATM   20  C1  UNL     1      52.764 -16.620  13.494  1.00  0.00     0.691 C 
HETATM   21  N1  UNL     1      51.609 -16.335  12.949  1.00  0.00    -0.233 N 
HETATM   22  N9  UNL     1      53.151 -17.966  13.668  1.00  0.00    -0.072 N 
ATOM     23  H12 UNL     1      51.330 -15.363  12.823  1.00  0.00     0.174 HD
ATOM     24  H11 UNL     1      50.973 -17.071  12.643  1.00  0.00     0.174 HD
ATOM     25  H9  UNL     1      53.432 -18.534  12.869  1.00  0.00     0.212 HD
ATOM     26  H2  UNL     1      53.396 -15.013  14.717  1.00  0.00     0.177 HD
BRANCH  22  27
HETATM   27  N10 UNL     1      53.141 -18.500  14.949  1.00  0.00    -0.024 N 
HETATM   28  O4  UNL     1      53.077 -17.751  15.937  1.00  0.00    -0.516 OA
HETATM   29  O5  UNL     1      53.196 -19.857  15.124  1.00  0.00    -0.516 OA
ENDBRANCH  22  27
ENDBRANCH  18  19
ENDBRANCH  17  18
ENDBRANCH  15  17
ENDBRANCH   1  15
BRANCH  11  30
HETATM   30  O2  UNL     1      51.076 -10.614  15.262  1.00  0.00    -0.368 OA
ATOM     31  H2  UNL     1      51.647  -9.902  15.528  1.00  0.00     0.212 HD
ENDBRANCH  11  30
BRANCH   7  32
HETATM   32  O1  UNL     1      53.626 -12.987  19.966  1.00  0.00    -0.163 OA
BRANCH  32  33
HETATM   33  N6  UNL     1      54.250 -12.300  20.983  1.00  0.00    -0.286 N 
ATOM     34  H62 UNL     1      54.745 -12.799  21.721  1.00  0.00     0.186 HD
ATOM     35  H61 UNL     1      54.188 -11.282  20.954  1.00  0.00     0.186 HD
ENDBRANCH  32  33
ENDBRANCH   7  32
TORSDOF 8
ENDMDL
MODEL 5
REMARK VINA RESULT: -6.174514725      1.116      1.699
REMARK  8 active torsions:
REMARK  status: ('A' for Active; 'I' for Inactive)
REMARK       I    between atoms: C1_4  and  N2_5 
REMARK       I    between atoms: C1_4  and  N9_31 
REMARK    1  A    between atoms: N2_5  and  C2_7 
REMARK    2  A    between atoms: C2_7  and  C3_8 
REMARK    3  A    between atoms: C3_8  and  N3_9 
REMARK    4  A    between atoms: N3_9  and  C4_11 
REMARK    5  A    between atoms: N5_17  and  O1_19 
REMARK    6  A    between atoms: O1_19  and  N6_20 
REMARK    7  A    between atoms: C8_25  and  O2_26 
REMARK    8  A    between atoms: N9_31  and  N10_33 
ROOT
HETATM    1  C4  UNL     1      54.946 -13.231  15.590  1.00  0.00     0.679 C 
HETATM    2  N4  UNL     1      55.938 -12.663  16.230  1.00  0.00    -0.224 N 
ATOM      3  H4  UNL     1      56.929 -12.823  16.053  1.00  0.00     0.177 HD
HETATM    4  C5  UNL     1      55.384 -11.752  17.251  1.00  0.00     0.172 C 
HETATM    5  C6  UNL     1      54.056 -12.468  17.511  1.00  0.00     0.198 C 
HETATM    6  C7  UNL     1      53.047 -11.676  18.185  1.00  0.00     0.128 C 
HETATM    7  N5  UNL     1      53.076 -11.532  19.456  1.00  0.00    -0.228 N 
ATOM      8  H5  UNL     1      52.369 -10.973  19.935  1.00  0.00     0.198 HD
HETATM    9  N7  UNL     1      52.016 -11.078  17.412  1.00  0.00    -0.343 N 
ATOM     10  H7  UNL     1      51.638 -10.179  17.710  1.00  0.00     0.164 HD
HETATM   11  C8  UNL     1      51.482 -11.696  16.220  1.00  0.00     0.314 C 
HETATM   12  C9  UNL     1      52.447 -12.603  15.550  1.00  0.00     0.287 C 
HETATM   13  O3  UNL     1      52.119 -13.185  14.516  1.00  0.00    -0.267 OA
HETATM   14  N8  UNL     1      53.719 -12.771  16.126  1.00  0.00    -0.134 N 
ENDROOT
BRANCH   1  15
HETATM   15  N3  UNL     1      55.097 -14.189  14.517  1.00  0.00    -0.225 N 
ATOM     16  H3  UNL     1      55.053 -15.188  14.715  1.00  0.00     0.177 HD
BRANCH  15  17
HETATM   17  C3  UNL     1      55.310 -13.728  13.162  1.00  0.00     0.158 C 
BRANCH  17  18
HETATM   18  C2  UNL     1      54.553 -14.619  12.222  1.00  0.00     0.158 C 
BRANCH  18  19
HETATM   19  N2  UNL     1      53.414 -13.906  11.665  1.00  0.00    -0.224 N 
HETATM   20  C1  UNL     1      53.468 -12.507  11.430  1.00  0.00     0.691 C 
HETATM   21  N1  UNL     1      52.748 -11.673  12.136  1.00  0.00    -0.233 N 
HETATM   22  N9  UNL     1      54.319 -12.023  10.414  1.00  0.00    -0.072 N 
ATOM     23  H12 UNL     1      52.134 -12.022  12.870  1.00  0.00     0.174 HD
ATOM     24  H11 UNL     1      52.786 -10.668  11.967  1.00  0.00     0.174 HD
ATOM     25  H9  UNL     1      55.184 -11.536  10.648  1.00  0.00     0.212 HD
ATOM     26  H2  UNL     1      52.563 -14.419  11.439  1.00  0.00     0.177 HD
BRANCH  22  27
HETATM   27  N10 UNL     1      53.954 -12.223   9.090  1.00  0.00    -0.024 N 
HETATM   28  O4  UNL     1      53.425 -11.305   8.444  1.00  0.00    -0.516 OA
HETATM   29  O5  UNL     1      54.182 -13.434   8.493  1.00  0.00    -0.516 OA
ENDBRANCH  22  27
ENDBRANCH  18  19
ENDBRANCH  17  18
ENDBRANCH  15  17
ENDBRANCH   1  15
BRANCH  11  30
HETATM   30  O2  UNL     1      51.064 -10.677  15.364  1.00  0.00    -0.368 OA
ATOM     31  H2  UNL     1      50.129 -10.777  15.230  1.00  0.00     0.212 HD
ENDBRANCH  11  30
BRANCH   7  32
HETATM   32  O1  UNL     1      54.080 -12.145  20.161  1.00  0.00    -0.163 OA
BRANCH  32  33
HETATM   33  N6  UNL     1      54.982 -11.322  20.797  1.00  0.00    -0.286 N 
ATOM     34  H62 UNL     1      55.630 -10.746  20.260  1.00  0.00     0.186 HD
ATOM     35  H61 UNL     1      54.964 -11.322  21.817  1.00  0.00     0.186 HD
ENDBRANCH  32  33
ENDBRANCH   7  32
TORSDOF 8
ENDMDL
