MODEL 1
REMARK VINA RESULT: -6.987213596      0.000      0.000
REMARK  8 active torsions:
REMARK  status: ('A' for Active; 'I' for Inactive)
REMARK    1  A    between atoms: N1_2  and  N2_3 
REMARK       I    between atoms: N1_2  and  C8_32 
REMARK    2  A    between atoms: N3_5  and  C2_7 
REMARK    3  A    between atoms: C3_8  and  C4_9 
REMARK    4  A    between atoms: C4_9  and  O1_10 
REMARK    5  A    between atoms: C4_9  and  O2_12 
REMARK    6  A    between atoms: C5_16  and  N5_17 
REMARK       I    between atoms: N5_17  and  C6_19 
REMARK       I    between atoms: C6_19  and  N6_20 
REMARK       I    between atoms: C6_19  and  N7_24 
REMARK    7  A    between atoms: C8_32  and  C9_34 
REMARK       I    between atoms: C9_34  and  N9_36 
REMARK    8  A    between atoms: N9_36  and  N10_38 
ROOT
HETATM    1  C2  UNL     1      54.111 -12.706  17.102  1.00  0.00     0.146 A 
HETATM    2  C3  UNL     1      53.259 -12.156  18.031  1.00  0.00     0.114 A 
HETATM    3  N4  UNL     1      53.501 -12.436  19.332  1.00  0.00    -0.188 N 
ATOM      4  H4  UNL     1      52.879 -12.036  20.035  1.00  0.00     0.184 HD
HETATM    5  C5  UNL     1      54.514 -13.211  19.749  1.00  0.00     0.684 A 
HETATM    6  N8  UNL     1      55.346 -13.746  18.836  1.00  0.00    -0.154 N 
ATOM      7  H8  UNL     1      56.121 -14.337  19.136  1.00  0.00     0.187 HD
HETATM    8  C7  UNL     1      55.154 -13.502  17.530  1.00  0.00     0.290 A 
HETATM    9  O3  UNL     1      55.964 -14.031  16.710  1.00  0.00    -0.265 OA
ENDROOT
BRANCH   1  10
HETATM   10  N3  UNL     1      53.927 -12.463  15.725  1.00  0.00    -0.279 N 
HETATM   11  N2  UNL     1      53.348 -13.337  15.028  1.00  0.00    -0.237 N 
ATOM     12  H2  UNL     1      53.029 -14.195  15.478  1.00  0.00     0.208 HD
ATOM     13  H3  UNL     1      54.256 -11.595  15.303  1.00  0.00     0.189 HD
BRANCH  11  14
HETATM   14  N1  UNL     1      53.126 -13.169  13.647  1.00  0.00    -0.243 N 
HETATM   15  C1  UNL     1      53.723 -14.123  12.759  1.00  0.00     0.183 C 
HETATM   16  C8  UNL     1      52.350 -12.098  13.229  1.00  0.00     0.332 C 
HETATM   17  O4  UNL     1      51.866 -11.310  14.074  1.00  0.00    -0.260 OA
BRANCH  16  18
HETATM   18  C9  UNL     1      52.074 -11.852  11.836  1.00  0.00     0.329 C 
HETATM   19  O5  UNL     1      50.874 -11.755  11.474  1.00  0.00    -0.261 OA
HETATM   20  N9  UNL     1      53.111 -11.715  10.859  1.00  0.00    -0.268 N 
ATOM     21  H9  UNL     1      54.081 -11.795  11.163  1.00  0.00     0.190 HD
BRANCH  20  22
HETATM   22  N10 UNL     1      52.852 -11.479   9.518  1.00  0.00    -0.342 N 
ATOM     23 2H10 UNL     1      52.686 -12.288   8.919  1.00  0.00     0.176 HD
ATOM     24 1H10 UNL     1      52.821 -10.541   9.118  1.00  0.00     0.176 HD
ENDBRANCH  20  22
ENDBRANCH  16  18
ENDBRANCH  11  14
ENDBRANCH   1  10
BRANCH   2  25
HETATM   25  C4  UNL     1      52.112 -11.283  17.614  1.00  0.00     0.308 C 
BRANCH  25  26
HETATM   26  O1  UNL     1      51.394 -10.846  18.726  1.00  0.00    -0.366 OA
ATOM     27  H1  UNL     1      51.813 -10.091  19.123  1.00  0.00     0.213 HD
ENDBRANCH  25  26
BRANCH  25  28
HETATM   28  O2  UNL     1      51.231 -11.956  16.785  1.00  0.00    -0.366 OA
ATOM     29  H2  UNL     1      50.445 -12.222  17.248  1.00  0.00     0.213 HD
ENDBRANCH  25  28
ENDBRANCH   2  25
BRANCH   5  30
HETATM   30  N5  UNL     1      54.650 -13.411  21.011  1.00  0.00    -0.173 N 
HETATM   31  C6  UNL     1      55.906 -13.701  21.628  1.00  0.00     0.494 C 
HETATM   32  N6  UNL     1      55.699 -13.547  23.080  1.00  0.00    -0.032 N 
HETATM   33  N7  UNL     1      56.371 -15.057  21.389  1.00  0.00    -0.032 N 
ATOM     34  H63 UNL     1      55.320 -12.637  23.341  1.00  0.00     0.278 HD
ATOM     35  H62 UNL     1      54.930 -14.111  23.442  1.00  0.00     0.278 HD
ATOM     36  H61 UNL     1      56.595 -13.754  23.520  1.00  0.00     0.278 HD
ATOM     37  H73 UNL     1      55.664 -15.736  21.673  1.00  0.00     0.278 HD
ATOM     38  H72 UNL     1      56.405 -15.255  20.389  1.00  0.00     0.278 HD
ATOM     39  H71 UNL     1      57.267 -15.265  21.829  1.00  0.00     0.278 HD
ATOM     40  H5  UNL     1      53.820 -13.360  21.602  1.00  0.00     0.181 HD
ENDBRANCH   5  30
TORSDOF 8
ENDMDL
MODEL 2
REMARK VINA RESULT: -6.785582424      1.900      3.686
REMARK  8 active torsions:
REMARK  status: ('A' for Active; 'I' for Inactive)
REMARK    1  A    between atoms: N1_2  and  N2_3 
REMARK       I    between atoms: N1_2  and  C8_32 
REMARK    2  A    between atoms: N3_5  and  C2_7 
REMARK    3  A    between atoms: C3_8  and  C4_9 
REMARK    4  A    between atoms: C4_9  and  O1_10 
REMARK    5  A    between atoms: C4_9  and  O2_12 
REMARK    6  A    between atoms: C5_16  and  N5_17 
REMARK       I    between atoms: N5_17  and  C6_19 
REMARK       I    between atoms: C6_19  and  N6_20 
REMARK       I    between atoms: C6_19  and  N7_24 
REMARK    7  A    between atoms: C8_32  and  C9_34 
REMARK       I    between atoms: C9_34  and  N9_36 
REMARK    8  A    between atoms: N9_36  and  N10_38 
ROOT
HETATM    1  C2  UNL     1      54.349 -13.434  19.700  1.00  0.00     0.146 A 
HETATM    2  C3  UNL     1      55.217 -14.493  19.825  1.00  0.00     0.114 A 
HETATM    3  N4  UNL     1      55.937 -14.570  20.968  1.00  0.00    -0.188 N 
ATOM      4  H4  UNL     1      56.585 -15.349  21.078  1.00  0.00     0.184 HD
HETATM    5  C5  UNL     1      55.843 -13.677  21.965  1.00  0.00     0.684 A 
HETATM    6  N8  UNL     1      54.991 -12.642  21.838  1.00  0.00    -0.154 N 
ATOM      7  H8  UNL     1      54.908 -11.955  22.587  1.00  0.00     0.187 HD
HETATM    8  C7  UNL     1      54.252 -12.516  20.725  1.00  0.00     0.290 A 
HETATM    9  O3  UNL     1      53.465 -11.524  20.654  1.00  0.00    -0.265 OA
ENDROOT
BRANCH   1  10
HETATM   10  N3  UNL     1      53.563 -13.283  18.539  1.00  0.00    -0.279 N 
HETATM   11  N2  UNL     1      53.868 -12.380  17.715  1.00  0.00    -0.237 N 
ATOM     12  H2  UNL     1      54.673 -11.786  17.910  1.00  0.00     0.208 HD
ATOM     13  H3  UNL     1      52.764 -13.892  18.370  1.00  0.00     0.189 HD
BRANCH  11  14
HETATM   14  N1  UNL     1      53.134 -12.165  16.532  1.00  0.00    -0.243 N 
HETATM   15  C1  UNL     1      52.159 -11.114  16.539  1.00  0.00     0.183 C 
HETATM   16  C8  UNL     1      53.393 -12.977  15.438  1.00  0.00     0.332 C 
HETATM   17  O4  UNL     1      54.264 -13.874  15.517  1.00  0.00    -0.260 OA
BRANCH  16  18
HETATM   18  C9  UNL     1      52.689 -12.826  14.190  1.00  0.00     0.329 C 
HETATM   19  O5  UNL     1      51.691 -13.559  13.975  1.00  0.00    -0.261 OA
HETATM   20  N9  UNL     1      53.084 -11.876  13.194  1.00  0.00    -0.268 N 
ATOM     21  H9  UNL     1      53.894 -11.284  13.378  1.00  0.00     0.190 HD
BRANCH  20  22
HETATM   22  N10 UNL     1      52.411 -11.726  11.992  1.00  0.00    -0.342 N 
ATOM     23 2H10 UNL     1      51.522 -12.214  11.883  1.00  0.00     0.176 HD
ATOM     24 1H10 UNL     1      52.769 -11.153  11.226  1.00  0.00     0.176 HD
ENDBRANCH  20  22
ENDBRANCH  16  18
ENDBRANCH  11  14
ENDBRANCH   1  10
BRANCH   2  25
HETATM   25  C4  UNL     1      55.357 -15.517  18.737  1.00  0.00     0.308 C 
BRANCH  25  26
HETATM   26  O1  UNL     1      55.850 -14.936  17.570  1.00  0.00    -0.366 OA
ATOM     27  H1  UNL     1      55.550 -15.411  16.804  1.00  0.00     0.213 HD
ENDBRANCH  25  26
BRANCH  25  28
HETATM   28  O2  UNL     1      54.144 -16.109  18.430  1.00  0.00    -0.366 OA
ATOM     29  H2  UNL     1      54.213 -16.683  17.676  1.00  0.00     0.213 HD
ENDBRANCH  25  28
ENDBRANCH   2  25
BRANCH   5  30
HETATM   30  N5  UNL     1      56.575 -13.847  23.008  1.00  0.00    -0.173 N 
HETATM   31  C6  UNL     1      56.274 -14.799  24.030  1.00  0.00     0.494 C 
HETATM   32  N6  UNL     1      57.487 -14.910  24.861  1.00  0.00    -0.032 N 
HETATM   33  N7  UNL     1      55.179 -14.395  24.896  1.00  0.00    -0.032 N 
ATOM     34  H63 UNL     1      58.324 -15.141  24.327  1.00  0.00     0.278 HD
ATOM     35  H62 UNL     1      57.813 -14.015  25.225  1.00  0.00     0.278 HD
ATOM     36  H61 UNL     1      57.272 -15.589  25.591  1.00  0.00     0.278 HD
ATOM     37  H73 UNL     1      55.360 -13.476  25.301  1.00  0.00     0.278 HD
ATOM     38  H72 UNL     1      54.347 -14.178  24.348  1.00  0.00     0.278 HD
ATOM     39  H71 UNL     1      54.964 -15.074  25.625  1.00  0.00     0.278 HD
ATOM     40  H5  UNL     1      57.413 -13.275  23.110  1.00  0.00     0.181 HD
ENDBRANCH   5  30
TORSDOF 8
ENDMDL
MODEL 3
REMARK VINA RESULT: -6.714414084      2.137      2.576
REMARK  8 active torsions:
REMARK  status: ('A' for Active; 'I' for Inactive)
REMARK    1  A    between atoms: N1_2  and  N2_3 
REMARK       I    between atoms: N1_2  and  C8_32 
REMARK    2  A    between atoms: N3_5  and  C2_7 
REMARK    3  A    between atoms: C3_8  and  C4_9 
REMARK    4  A    between atoms: C4_9  and  O1_10 
REMARK    5  A    between atoms: C4_9  and  O2_12 
REMARK    6  A    between atoms: C5_16  and  N5_17 
REMARK       I    between atoms: N5_17  and  C6_19 
REMARK       I    between atoms: C6_19  and  N6_20 
REMARK       I    between atoms: C6_19  and  N7_24 
REMARK    7  A    between atoms: C8_32  and  C9_34 
REMARK       I    between atoms: C9_34  and  N9_36 
REMARK    8  A    between atoms: N9_36  and  N10_38 
ROOT
HETATM    1  C2  UNL     1      54.190 -11.585  15.628  1.00  0.00     0.146 A 
HETATM    2  C3  UNL     1      53.023 -11.923  16.273  1.00  0.00     0.114 A 
HETATM    3  N4  UNL     1      53.080 -12.061  17.617  1.00  0.00    -0.188 N 
ATOM      4  H4  UNL     1      52.225 -12.311  18.113  1.00  0.00     0.184 HD
HETATM    5  C5  UNL     1      54.201 -11.886  18.335  1.00  0.00     0.684 A 
HETATM    6  N8  UNL     1      55.340 -11.554  17.698  1.00  0.00    -0.154 N 
ATOM      7  H8  UNL     1      56.199 -11.417  18.229  1.00  0.00     0.187 HD
HETATM    8  C7  UNL     1      55.342 -11.404  16.365  1.00  0.00     0.290 A 
HETATM    9  O3  UNL     1      56.440 -11.092  15.812  1.00  0.00    -0.265 OA
ENDROOT
BRANCH   1  10
HETATM   10  N3  UNL     1      54.214 -11.423  14.227  1.00  0.00    -0.279 N 
HETATM   11  N2  UNL     1      54.879 -12.238  13.534  1.00  0.00    -0.237 N 
ATOM     12  H2  UNL     1      55.380 -12.991  14.005  1.00  0.00     0.208 HD
ATOM     13  H3  UNL     1      53.703 -10.660  13.783  1.00  0.00     0.189 HD
BRANCH  11  14
HETATM   14  N1  UNL     1      54.954 -12.144  12.131  1.00  0.00    -0.243 N 
HETATM   15  C1  UNL     1      56.161 -11.617  11.564  1.00  0.00     0.183 C 
HETATM   16  C8  UNL     1      53.863 -12.562  11.383  1.00  0.00     0.332 C 
HETATM   17  O4  UNL     1      52.845 -13.010  11.959  1.00  0.00    -0.260 OA
BRANCH  16  18
HETATM   18  C9  UNL     1      53.854 -12.500   9.943  1.00  0.00     0.329 C 
HETATM   19  O5  UNL     1      54.252 -13.504   9.300  1.00  0.00    -0.261 OA
HETATM   20  N9  UNL     1      53.411 -11.343   9.226  1.00  0.00    -0.268 N 
ATOM     21  H9  UNL     1      53.089 -10.534   9.756  1.00  0.00     0.190 HD
BRANCH  20  22
HETATM   22  N10 UNL     1      53.400 -11.277   7.841  1.00  0.00    -0.342 N 
ATOM     23 2H10 UNL     1      53.508 -12.150   7.326  1.00  0.00     0.176 HD
ATOM     24 1H10 UNL     1      53.290 -10.400   7.331  1.00  0.00     0.176 HD
ENDBRANCH  20  22
ENDBRANCH  16  18
ENDBRANCH  11  14
ENDBRANCH   1  10
BRANCH   2  25
HETATM   25  C4  UNL     1      51.746 -12.130  15.515  1.00  0.00     0.308 C 
BRANCH  25  26
HETATM   26  O1  UNL     1      51.921 -13.065  14.496  1.00  0.00    -0.366 OA
ATOM     27  H1  UNL     1      51.184 -13.664  14.457  1.00  0.00     0.213 HD
ENDBRANCH  25  26
BRANCH  25  28
HETATM   28  O2  UNL     1      51.299 -10.956  14.933  1.00  0.00    -0.366 OA
ATOM     29  H2  UNL     1      51.551 -10.897  14.019  1.00  0.00     0.213 HD
ENDBRANCH  25  28
ENDBRANCH   2  25
BRANCH   5  30
HETATM   30  N5  UNL     1      54.140 -12.043  19.609  1.00  0.00    -0.173 N 
HETATM   31  C6  UNL     1      55.084 -12.820  20.349  1.00  0.00     0.494 C 
HETATM   32  N6  UNL     1      54.863 -12.495  21.771  1.00  0.00    -0.032 N 
HETATM   33  N7  UNL     1      54.909 -14.254  20.190  1.00  0.00    -0.032 N 
ATOM     34  H63 UNL     1      54.914 -11.497  21.971  1.00  0.00     0.278 HD
ATOM     35  H62 UNL     1      53.898 -12.635  22.073  1.00  0.00     0.278 HD
ATOM     36  H61 UNL     1      55.536 -13.050  22.299  1.00  0.00     0.278 HD
ATOM     37  H73 UNL     1      53.954 -14.528  20.422  1.00  0.00     0.278 HD
ATOM     38  H72 UNL     1      54.924 -14.511  19.203  1.00  0.00     0.278 HD
ATOM     39  H71 UNL     1      55.582 -14.808  20.718  1.00  0.00     0.278 HD
ATOM     40  H5  UNL     1      53.381 -11.590  20.117  1.00  0.00     0.181 HD
ENDBRANCH   5  30
TORSDOF 8
ENDMDL
MODEL 4
REMARK VINA RESULT: -6.496628419      2.015      3.721
REMARK  8 active torsions:
REMARK  status: ('A' for Active; 'I' for Inactive)
REMARK    1  A    between atoms: N1_2  and  N2_3 
REMARK       I    between atoms: N1_2  and  C8_32 
REMARK    2  A    between atoms: N3_5  and  C2_7 
REMARK    3  A    between atoms: C3_8  and  C4_9 
REMARK    4  A    between atoms: C4_9  and  O1_10 
REMARK    5  A    between atoms: C4_9  and  O2_12 
REMARK    6  A    between atoms: C5_16  and  N5_17 
REMARK       I    between atoms: N5_17  and  C6_19 
REMARK       I    between atoms: C6_19  and  N6_20 
REMARK       I    between atoms: C6_19  and  N7_24 
REMARK    7  A    between atoms: C8_32  and  C9_34 
REMARK       I    between atoms: C9_34  and  N9_36 
REMARK    8  A    between atoms: N9_36  and  N10_38 
ROOT
HETATM    1  C2  UNL     1      54.720 -13.625  19.484  1.00  0.00     0.146 A 
HETATM    2  C3  UNL     1      55.671 -14.508  19.941  1.00  0.00     0.114 A 
HETATM    3  N4  UNL     1      56.192 -14.273  21.168  1.00  0.00    -0.188 N 
ATOM      4  H4  UNL     1      56.898 -14.916  21.523  1.00  0.00     0.184 HD
HETATM    5  C5  UNL     1      55.829 -13.238  21.943  1.00  0.00     0.684 A 
HETATM    6  N8  UNL     1      54.896 -12.379  21.490  1.00  0.00    -0.154 N 
ATOM      7  H8  UNL     1      54.609 -11.588  22.067  1.00  0.00     0.187 HD
HETATM    8  C7  UNL     1      54.346 -12.563  20.281  1.00  0.00     0.290 A 
HETATM    9  O3  UNL     1      53.473 -11.725  19.900  1.00  0.00    -0.265 OA
ENDROOT
BRANCH   1  10
HETATM   10  N3  UNL     1      54.129 -13.801  18.215  1.00  0.00    -0.279 N 
HETATM   11  N2  UNL     1      54.424 -12.994  17.294  1.00  0.00    -0.237 N 
ATOM     12  H2  UNL     1      55.080 -12.239  17.490  1.00  0.00     0.208 HD
ATOM     13  H3  UNL     1      53.476 -14.566  18.048  1.00  0.00     0.189 HD
BRANCH  11  14
HETATM   14  N1  UNL     1      53.877 -13.101  16.001  1.00  0.00    -0.243 N 
HETATM   15  C1  UNL     1      54.676 -13.733  14.992  1.00  0.00     0.183 C 
HETATM   16  C8  UNL     1      52.606 -12.592  15.778  1.00  0.00     0.332 C 
HETATM   17  O4  UNL     1      51.974 -12.054  16.716  1.00  0.00    -0.260 OA
BRANCH  16  18
HETATM   18  C9  UNL     1      51.971 -12.658  14.485  1.00  0.00     0.329 C 
HETATM   19  O5  UNL     1      51.793 -11.588  13.851  1.00  0.00    -0.261 OA
HETATM   20  N9  UNL     1      51.541 -13.893  13.903  1.00  0.00    -0.268 N 
ATOM     21  H9  UNL     1      51.691 -14.757  14.424  1.00  0.00     0.190 HD
BRANCH  20  22
HETATM   22  N10 UNL     1      50.930 -13.964  12.661  1.00  0.00    -0.342 N 
ATOM     23 2H10 UNL     1      50.653 -13.088  12.220  1.00  0.00     0.176 HD
ATOM     24 1H10 UNL     1      50.751 -14.848  12.183  1.00  0.00     0.176 HD
ENDBRANCH  20  22
ENDBRANCH  16  18
ENDBRANCH  11  14
ENDBRANCH   1  10
BRANCH   2  25
HETATM   25  C4  UNL     1      56.110 -15.678  19.112  1.00  0.00     0.308 C 
BRANCH  25  26
HETATM   26  O1  UNL     1      56.531 -15.261  17.850  1.00  0.00    -0.366 OA
ATOM     27  H1  UNL     1      56.863 -15.994  17.346  1.00  0.00     0.213 HD
ENDBRANCH  25  26
BRANCH  25  28
HETATM   28  O2  UNL     1      55.086 -16.591  18.931  1.00  0.00    -0.366 OA
ATOM     29  H2  UNL     1      55.188 -17.079  18.122  1.00  0.00     0.213 HD
ENDBRANCH  25  28
ENDBRANCH   2  25
BRANCH   5  30
HETATM   30  N5  UNL     1      56.389 -13.111  23.092  1.00  0.00    -0.173 N 
HETATM   31  C6  UNL     1      56.500 -14.181  24.033  1.00  0.00     0.494 C 
HETATM   32  N6  UNL     1      57.461 -13.732  25.058  1.00  0.00    -0.032 N 
HETATM   33  N7  UNL     1      55.250 -14.495  24.705  1.00  0.00    -0.032 N 
ATOM     34  H63 UNL     1      58.357 -13.438  24.671  1.00  0.00     0.278 HD
ATOM     35  H62 UNL     1      57.210 -12.841  25.486  1.00  0.00     0.278 HD
ATOM     36  H61 UNL     1      57.540 -14.495  25.729  1.00  0.00     0.278 HD
ATOM     37  H73 UNL     1      54.860 -13.663  25.149  1.00  0.00     0.278 HD
ATOM     38  H72 UNL     1      54.514 -14.687  24.026  1.00  0.00     0.278 HD
ATOM     39  H71 UNL     1      55.329 -15.258  25.377  1.00  0.00     0.278 HD
ATOM     40  H5  UNL     1      56.774 -12.201  23.345  1.00  0.00     0.181 HD
ENDBRANCH   5  30
TORSDOF 8
ENDMDL
MODEL 5
REMARK VINA RESULT: -6.431976078      1.598      2.615
REMARK  8 active torsions:
REMARK  status: ('A' for Active; 'I' for Inactive)
REMARK    1  A    between atoms: N1_2  and  N2_3 
REMARK       I    between atoms: N1_2  and  C8_32 
REMARK    2  A    between atoms: N3_5  and  C2_7 
REMARK    3  A    between atoms: C3_8  and  C4_9 
REMARK    4  A    between atoms: C4_9  and  O1_10 
REMARK    5  A    between atoms: C4_9  and  O2_12 
REMARK    6  A    between atoms: C5_16  and  N5_17 
REMARK       I    between atoms: N5_17  and  C6_19 
REMARK       I    between atoms: C6_19  and  N6_20 
REMARK       I    between atoms: C6_19  and  N7_24 
REMARK    7  A    between atoms: C8_32  and  C9_34 
REMARK       I    between atoms: C9_34  and  N9_36 
REMARK    8  A    between atoms: N9_36  and  N10_38 
ROOT
HETATM    1  C2  UNL     1      54.526 -11.672  17.544  1.00  0.00     0.146 A 
HETATM    2  C3  UNL     1      55.850 -11.563  17.900  1.00  0.00     0.114 A 
HETATM    3  N4  UNL     1      56.134 -11.563  19.223  1.00  0.00    -0.188 N 
ATOM      4  H4  UNL     1      57.110 -11.483  19.506  1.00  0.00     0.184 HD
HETATM    5  C5  UNL     1      55.201 -11.663  20.183  1.00  0.00     0.684 A 
HETATM    6  N8  UNL     1      53.907 -11.771  19.827  1.00  0.00    -0.154 N 
ATOM      7  H8  UNL     1      53.187 -11.849  20.545  1.00  0.00     0.187 HD
HETATM    8  C7  UNL     1      53.567 -11.777  18.530  1.00  0.00     0.290 A 
HETATM    9  O3  UNL     1      52.334 -11.880  18.247  1.00  0.00    -0.265 OA
ENDROOT
BRANCH   1  10
HETATM   10  N3  UNL     1      54.147 -11.680  16.185  1.00  0.00    -0.279 N 
HETATM   11  N2  UNL     1      53.792 -12.769  15.661  1.00  0.00    -0.237 N 
ATOM     12  H2  UNL     1      53.787 -13.613  16.233  1.00  0.00     0.208 HD
ATOM     13  H3  UNL     1      54.160 -10.820  15.637  1.00  0.00     0.189 HD
BRANCH  11  14
HETATM   14  N1  UNL     1      53.400 -12.860  14.312  1.00  0.00    -0.243 N 
HETATM   15  C1  UNL     1      54.107 -13.785  13.476  1.00  0.00     0.183 C 
HETATM   16  C8  UNL     1      52.361 -12.053  13.871  1.00  0.00     0.332 C 
HETATM   17  O4  UNL     1      51.795 -11.270  14.669  1.00  0.00    -0.260 OA
BRANCH  16  18
HETATM   18  C9  UNL     1      51.896 -12.082  12.507  1.00  0.00     0.329 C 
HETATM   19  O5  UNL     1      50.761 -12.570  12.273  1.00  0.00    -0.261 OA
HETATM   20  N9  UNL     1      52.676 -11.577  11.418  1.00  0.00    -0.268 N 
ATOM     21  H9  UNL     1      53.596 -11.182  11.618  1.00  0.00     0.190 HD
BRANCH  20  22
HETATM   22  N10 UNL     1      52.236 -11.602  10.104  1.00  0.00    -0.342 N 
ATOM     23 2H10 UNL     1      51.302 -11.970   9.926  1.00  0.00     0.176 HD
ATOM     24 1H10 UNL     1      52.805 -11.270   9.325  1.00  0.00     0.176 HD
ENDBRANCH  20  22
ENDBRANCH  16  18
ENDBRANCH  11  14
ENDBRANCH   1  10
BRANCH   2  25
HETATM   25  C4  UNL     1      56.928 -11.448  16.864  1.00  0.00     0.308 C 
BRANCH  25  26
HETATM   26  O1  UNL     1      56.849 -10.224  16.200  1.00  0.00    -0.366 OA
ATOM     27  H1  UNL     1      56.138 -10.228  15.570  1.00  0.00     0.213 HD
ENDBRANCH  25  26
BRANCH  25  28
HETATM   28  O2  UNL     1      56.833 -12.447  15.911  1.00  0.00    -0.366 OA
ATOM     29  H2  UNL     1      57.339 -12.242  15.133  1.00  0.00     0.213 HD
ENDBRANCH  25  28
ENDBRANCH   2  25
BRANCH   5  30
HETATM   30  N5  UNL     1      55.585 -11.653  21.409  1.00  0.00    -0.173 N 
HETATM   31  C6  UNL     1      56.413 -12.667  21.980  1.00  0.00     0.494 C 
HETATM   32  N6  UNL     1      56.879 -12.139  23.276  1.00  0.00    -0.032 N 
HETATM   33  N7  UNL     1      55.711 -13.914  22.237  1.00  0.00    -0.032 N 
ATOM     34  H63 UNL     1      57.341 -11.234  23.202  1.00  0.00     0.278 HD
ATOM     35  H62 UNL     1      56.120 -11.843  23.890  1.00  0.00     0.278 HD
ATOM     36  H61 UNL     1      57.470 -12.863  23.684  1.00  0.00     0.278 HD
ATOM     37  H73 UNL     1      54.888 -13.751  22.817  1.00  0.00     0.278 HD
ATOM     38  H72 UNL     1      55.258 -14.253  21.389  1.00  0.00     0.278 HD
ATOM     39  H71 UNL     1      56.302 -14.638  22.645  1.00  0.00     0.278 HD
ATOM     40  H5  UNL     1      55.283 -10.881  22.004  1.00  0.00     0.181 HD
ENDBRANCH   5  30
TORSDOF 8
ENDMDL
