MODEL 1
REMARK VINA RESULT: -6.852205777      0.000      0.000
REMARK  7 active torsions:
REMARK  status: ('A' for Active; 'I' for Inactive)
REMARK    1  A    between atoms: C1_2  and  C2_7 
REMARK    2  A    between atoms: N2_3  and  O1_5 
REMARK       I    between atoms: C2_7  and  N3_9 
REMARK    3  A    between atoms: N3_9  and  N4_11 
REMARK    4  A    between atoms: C4_16  and  N6_17 
REMARK    5  A    between atoms: C5_23  and  C6_24 
REMARK    6  A    between atoms: C7_27  and  N8_28 
REMARK    7  A    between atoms: N8_28  and  N9_30 
ROOT
HETATM    1  N4  UNL     1      55.441 -11.012  14.185  1.00  0.00    -0.281 N 
ATOM      2  H4  UNL     1      55.255 -10.998  15.188  1.00  0.00     0.188 HD
HETATM    3  C3  UNL     1      54.852 -11.910  13.459  1.00  0.00     0.149 C 
HETATM    4  N5  UNL     1      55.140 -11.896  12.063  1.00  0.00    -0.330 N 
ATOM      5  H5  UNL     1      55.962 -11.401  11.716  1.00  0.00     0.165 HD
HETATM    6  C4  UNL     1      54.255 -12.593  11.130  1.00  0.00     0.388 C 
HETATM    7  N7  UNL     1      53.698 -13.736  11.783  1.00  0.00    -0.339 N 
ATOM      8  H7  UNL     1      53.510 -14.568  11.224  1.00  0.00     0.163 HD
HETATM    9  C5  UNL     1      53.387 -13.775  13.187  1.00  0.00     0.140 C 
HETATM   10  C7  UNL     1      53.941 -12.891  14.031  1.00  0.00     0.122 C 
ENDROOT
BRANCH   1  11
HETATM   11  N3  UNL     1      56.309 -10.073  13.664  1.00  0.00    -0.262 N 
HETATM   12  C2  UNL     1      56.959  -9.159  14.523  1.00  0.00     0.302 C 
HETATM   13  O2  UNL     1      56.744  -9.205  15.754  1.00  0.00    -0.263 OA
ATOM     14  H3  UNL     1      56.481 -10.038  12.659  1.00  0.00     0.190 HD
BRANCH  12  15
HETATM   15  C1  UNL     1      57.868  -8.183  13.936  1.00  0.00     0.205 C 
HETATM   16  N1  UNL     1      59.102  -8.571  13.354  1.00  0.00    -0.075 NA
HETATM   17  N2  UNL     1      57.541  -6.954  13.949  1.00  0.00    -0.251 N 
ATOM     18  H2  UNL     1      58.195  -6.291  13.531  1.00  0.00     0.195 HD
BRANCH  17  19
HETATM   19  O1  UNL     1      56.393  -6.453  14.473  1.00  0.00    -0.288 OA
ATOM     20  H1  UNL     1      56.035  -6.678  15.323  1.00  0.00     0.244 HD
ENDBRANCH  17  19
ENDBRANCH  12  15
ENDBRANCH   1  11
BRANCH  10  21
HETATM   21  N8  UNL     1      53.664 -12.893  15.421  1.00  0.00    -0.312 N 
ATOM     22  H8  UNL     1      53.865 -13.742  15.950  1.00  0.00     0.181 HD
BRANCH  21  23
HETATM   23  N9  UNL     1      53.136 -11.810  16.100  1.00  0.00    -0.204 NA
HETATM   24  C8  UNL     1      53.691 -11.585  17.398  1.00  0.00     0.143 A 
HETATM   25  C9  UNL     1      52.565 -11.397  18.360  1.00  0.00     0.250 A 
HETATM   26  N10 UNL     1      51.369 -11.589  17.603  1.00  0.00    -0.061 N 
HETATM   27  C10 UNL     1      51.718 -11.820  16.240  1.00  0.00     0.345 A 
ATOM     28 2H10 UNL     1      50.780 -12.328  17.986  1.00  0.00     0.278 HD
ATOM     29 1H10 UNL     1      50.712 -10.816  17.711  1.00  0.00     0.278 HD
ENDBRANCH  21  23
ENDBRANCH  10  21
BRANCH   6  30
HETATM   30  N6  UNL     1      53.253 -11.672  10.633  1.00  0.00    -0.041 N 
ATOM     31  H63 UNL     1      53.263 -10.784  11.135  1.00  0.00     0.279 HD
ATOM     32  H62 UNL     1      53.482 -11.317   9.704  1.00  0.00     0.279 HD
ATOM     33  H61 UNL     1      52.336 -12.118  10.659  1.00  0.00     0.279 HD
ENDBRANCH   6  30
BRANCH   9  34
HETATM   34  C6  UNL     1      52.478 -14.769  13.701  1.00  0.00     0.229 C 
HETATM   35  O3  UNL     1      51.252 -14.567  13.690  1.00  0.00    -0.643 OA
HETATM   36  O4  UNL     1      52.966 -15.947  14.209  1.00  0.00    -0.643 OA
ENDBRANCH   9  34
TORSDOF 7
ENDMDL
MODEL 2
REMARK VINA RESULT: -6.582502525      1.232      1.548
REMARK  7 active torsions:
REMARK  status: ('A' for Active; 'I' for Inactive)
REMARK    1  A    between atoms: C1_2  and  C2_7 
REMARK    2  A    between atoms: N2_3  and  O1_5 
REMARK       I    between atoms: C2_7  and  N3_9 
REMARK    3  A    between atoms: N3_9  and  N4_11 
REMARK    4  A    between atoms: C4_16  and  N6_17 
REMARK    5  A    between atoms: C5_23  and  C6_24 
REMARK    6  A    between atoms: C7_27  and  N8_28 
REMARK    7  A    between atoms: N8_28  and  N9_30 
ROOT
HETATM    1  N4  UNL     1      55.352 -10.366  14.825  1.00  0.00    -0.281 N 
ATOM      2  H4  UNL     1      55.133 -10.319  15.820  1.00  0.00     0.188 HD
HETATM    3  C3  UNL     1      55.109 -11.470  14.190  1.00  0.00     0.149 C 
HETATM    4  N5  UNL     1      55.431 -11.494  12.801  1.00  0.00    -0.330 N 
ATOM      5  H5  UNL     1      56.064 -10.796  12.411  1.00  0.00     0.165 HD
HETATM    6  C4  UNL     1      54.852 -12.523  11.938  1.00  0.00     0.388 C 
HETATM    7  N7  UNL     1      54.664 -13.718  12.699  1.00  0.00    -0.339 N 
ATOM      8  H7  UNL     1      54.774 -14.615  12.225  1.00  0.00     0.163 HD
HETATM    9  C5  UNL     1      54.328 -13.724  14.097  1.00  0.00     0.140 C 
HETATM   10  C7  UNL     1      54.538 -12.634  14.851  1.00  0.00     0.122 C 
ENDROOT
BRANCH   1  11
HETATM   11  N3  UNL     1      55.894  -9.251  14.217  1.00  0.00    -0.262 N 
HETATM   12  C2  UNL     1      56.805  -8.435  14.924  1.00  0.00     0.302 C 
HETATM   13  O2  UNL     1      57.116  -8.727  16.099  1.00  0.00    -0.263 OA
ATOM     14  H3  UNL     1      55.636  -9.016  13.258  1.00  0.00     0.190 HD
BRANCH  12  15
HETATM   15  C1  UNL     1      57.355  -7.267  14.249  1.00  0.00     0.205 C 
HETATM   16  N1  UNL     1      57.189  -5.958  14.770  1.00  0.00    -0.075 NA
HETATM   17  N2  UNL     1      58.000  -7.430  13.164  1.00  0.00    -0.251 N 
ATOM     18  H2  UNL     1      58.375  -6.597  12.712  1.00  0.00     0.195 HD
BRANCH  17  19
HETATM   19  O1  UNL     1      58.229  -8.626  12.562  1.00  0.00    -0.288 OA
ATOM     20  H1  UNL     1      58.815  -8.766  11.827  1.00  0.00     0.244 HD
ENDBRANCH  17  19
ENDBRANCH  12  15
ENDBRANCH   1  11
BRANCH  10  21
HETATM   21  N8  UNL     1      54.222 -12.595  16.232  1.00  0.00    -0.312 N 
ATOM     22  H8  UNL     1      54.562 -13.353  16.825  1.00  0.00     0.181 HD
BRANCH  21  23
HETATM   23  N9  UNL     1      53.480 -11.588  16.823  1.00  0.00    -0.204 NA
HETATM   24  C8  UNL     1      53.631 -11.481  18.241  1.00  0.00     0.143 A 
HETATM   25  C9  UNL     1      52.270 -11.400  18.848  1.00  0.00     0.250 A 
HETATM   26  N10 UNL     1      51.349 -11.533  17.764  1.00  0.00    -0.061 N 
HETATM   27  C10 UNL     1      52.083 -11.629  16.546  1.00  0.00     0.345 A 
ATOM     28 2H10 UNL     1      50.705 -12.313  17.894  1.00  0.00     0.278 HD
ATOM     29 1H10 UNL     1      50.659 -10.782  17.745  1.00  0.00     0.278 HD
ENDBRANCH  21  23
ENDBRANCH  10  21
BRANCH   6  30
HETATM   30  N6  UNL     1      53.628 -12.024  11.344  1.00  0.00    -0.041 N 
ATOM     31  H63 UNL     1      53.422 -11.068  11.631  1.00  0.00     0.279 HD
ATOM     32  H62 UNL     1      53.725 -11.858  10.342  1.00  0.00     0.279 HD
ATOM     33  H61 UNL     1      52.861 -12.663  11.555  1.00  0.00     0.279 HD
ENDBRANCH   6  30
BRANCH   9  34
HETATM   34  C6  UNL     1      53.765 -14.905  14.704  1.00  0.00     0.229 C 
HETATM   35  O3  UNL     1      54.241 -15.361  15.755  1.00  0.00    -0.643 OA
HETATM   36  O4  UNL     1      52.693 -15.531  14.117  1.00  0.00    -0.643 OA
ENDBRANCH   9  34
TORSDOF 7
ENDMDL
MODEL 3
REMARK VINA RESULT: -6.542658239      4.068      6.199
REMARK  7 active torsions:
REMARK  status: ('A' for Active; 'I' for Inactive)
REMARK    1  A    between atoms: C1_2  and  C2_7 
REMARK    2  A    between atoms: N2_3  and  O1_5 
REMARK       I    between atoms: C2_7  and  N3_9 
REMARK    3  A    between atoms: N3_9  and  N4_11 
REMARK    4  A    between atoms: C4_16  and  N6_17 
REMARK    5  A    between atoms: C5_23  and  C6_24 
REMARK    6  A    between atoms: C7_27  and  N8_28 
REMARK    7  A    between atoms: N8_28  and  N9_30 
ROOT
HETATM    1  N4  UNL     1      54.764 -13.853  16.720  1.00  0.00    -0.281 N 
ATOM      2  H4  UNL     1      55.059 -14.634  16.134  1.00  0.00     0.188 HD
HETATM    3  C3  UNL     1      53.858 -13.046  16.262  1.00  0.00     0.149 C 
HETATM    4  N5  UNL     1      53.473 -11.968  17.112  1.00  0.00    -0.330 N 
ATOM      5  H5  UNL     1      54.069 -11.694  17.892  1.00  0.00     0.165 HD
HETATM    6  C4  UNL     1      52.221 -11.254  16.860  1.00  0.00     0.388 C 
HETATM    7  N7  UNL     1      51.963 -11.249  15.454  1.00  0.00    -0.339 N 
ATOM      8  H7  UNL     1      51.494 -10.437  15.052  1.00  0.00     0.163 HD
HETATM    9  C5  UNL     1      52.330 -12.326  14.576  1.00  0.00     0.140 C 
HETATM   10  C7  UNL     1      53.258 -13.222  14.948  1.00  0.00     0.122 C 
ENDROOT
BRANCH   1  11
HETATM   11  N3  UNL     1      55.346 -13.705  17.963  1.00  0.00    -0.262 N 
HETATM   12  C2  UNL     1      54.964 -14.553  19.026  1.00  0.00     0.302 C 
HETATM   13  O2  UNL     1      54.098 -15.435  18.836  1.00  0.00    -0.263 OA
ATOM     14  H3  UNL     1      56.052 -12.984  18.114  1.00  0.00     0.190 HD
BRANCH  12  15
HETATM   15  C1  UNL     1      55.602 -14.367  20.323  1.00  0.00     0.205 C 
HETATM   16  N1  UNL     1      56.801 -15.041  20.668  1.00  0.00    -0.075 NA
HETATM   17  N2  UNL     1      55.065 -13.577  21.165  1.00  0.00    -0.251 N 
ATOM     18  H2  UNL     1      55.531 -13.464  22.065  1.00  0.00     0.195 HD
BRANCH  17  19
HETATM   19  O1  UNL     1      53.921 -12.874  20.959  1.00  0.00    -0.288 OA
ATOM     20  H1  UNL     1      53.786 -11.966  21.201  1.00  0.00     0.244 HD
ENDBRANCH  17  19
ENDBRANCH  12  15
ENDBRANCH   1  11
BRANCH  10  21
HETATM   21  N8  UNL     1      53.650 -14.299  14.114  1.00  0.00    -0.312 N 
ATOM     22  H8  UNL     1      53.934 -14.088  13.157  1.00  0.00     0.181 HD
BRANCH  21  23
HETATM   23  N9  UNL     1      53.669 -15.620  14.525  1.00  0.00    -0.204 NA
HETATM   24  C8  UNL     1      54.842 -16.348  14.156  1.00  0.00     0.143 A 
HETATM   25  C9  UNL     1      54.414 -17.642  13.546  1.00  0.00     0.250 A 
HETATM   26  N10 UNL     1      52.987 -17.605  13.512  1.00  0.00    -0.061 N 
HETATM   27  C10 UNL     1      52.543 -16.393  14.118  1.00  0.00     0.345 A 
ATOM     28 2H10 UNL     1      52.617 -17.728  12.570  1.00  0.00     0.278 HD
ATOM     29 1H10 UNL     1      52.566 -18.430  13.939  1.00  0.00     0.278 HD
ENDBRANCH  21  23
ENDBRANCH  10  21
BRANCH   6  30
HETATM   30  N6  UNL     1      51.156 -11.857  17.635  1.00  0.00    -0.041 N 
ATOM     31  H63 UNL     1      50.374 -11.217  17.779  1.00  0.00     0.279 HD
ATOM     32  H62 UNL     1      50.659 -12.579  17.113  1.00  0.00     0.279 HD
ATOM     33  H61 UNL     1      51.532 -12.209  18.516  1.00  0.00     0.279 HD
ENDBRANCH   6  30
BRANCH   9  34
HETATM   34  C6  UNL     1      51.704 -12.454  13.282  1.00  0.00     0.229 C 
HETATM   35  O3  UNL     1      51.617 -11.474  12.525  1.00  0.00    -0.643 OA
HETATM   36  O4  UNL     1      51.199 -13.667  12.883  1.00  0.00    -0.643 OA
ENDBRANCH   9  34
TORSDOF 7
ENDMDL
MODEL 4
REMARK VINA RESULT: -6.305511733      4.096      6.481
REMARK  7 active torsions:
REMARK  status: ('A' for Active; 'I' for Inactive)
REMARK    1  A    between atoms: C1_2  and  C2_7 
REMARK    2  A    between atoms: N2_3  and  O1_5 
REMARK       I    between atoms: C2_7  and  N3_9 
REMARK    3  A    between atoms: N3_9  and  N4_11 
REMARK    4  A    between atoms: C4_16  and  N6_17 
REMARK    5  A    between atoms: C5_23  and  C6_24 
REMARK    6  A    between atoms: C7_27  and  N8_28 
REMARK    7  A    between atoms: N8_28  and  N9_30 
ROOT
HETATM    1  N4  UNL     1      54.598 -14.117  16.373  1.00  0.00    -0.281 N 
ATOM      2  H4  UNL     1      54.860 -14.882  15.751  1.00  0.00     0.188 HD
HETATM    3  C3  UNL     1      53.720 -13.257  15.959  1.00  0.00     0.149 C 
HETATM    4  N5  UNL     1      53.382 -12.204  16.859  1.00  0.00    -0.330 N 
ATOM      5  H5  UNL     1      53.994 -11.988  17.646  1.00  0.00     0.165 HD
HETATM    6  C4  UNL     1      52.156 -11.434  16.650  1.00  0.00     0.388 C 
HETATM    7  N7  UNL     1      51.888 -11.356  15.248  1.00  0.00    -0.339 N 
ATOM      8  H7  UNL     1      51.447 -10.510  14.887  1.00  0.00     0.163 HD
HETATM    9  C5  UNL     1      52.208 -12.406  14.320  1.00  0.00     0.140 C 
HETATM   10  C7  UNL     1      53.104 -13.351  14.644  1.00  0.00     0.122 C 
ENDROOT
BRANCH   1  11
HETATM   11  N3  UNL     1      55.194 -14.047  17.616  1.00  0.00    -0.262 N 
HETATM   12  C2  UNL     1      54.883 -15.008  18.603  1.00  0.00     0.302 C 
HETATM   13  O2  UNL     1      54.066 -15.919  18.346  1.00  0.00    -0.263 OA
ATOM     14  H3  UNL     1      55.859 -13.301  17.822  1.00  0.00     0.190 HD
BRANCH  12  15
HETATM   15  C1  UNL     1      55.533 -14.900  19.903  1.00  0.00     0.205 C 
HETATM   16  N1  UNL     1      55.315 -13.787  20.755  1.00  0.00    -0.075 NA
HETATM   17  N2  UNL     1      56.315 -15.831  20.279  1.00  0.00    -0.251 N 
ATOM     18  H2  UNL     1      56.757 -15.731  21.192  1.00  0.00     0.195 HD
BRANCH  17  19
HETATM   19  O1  UNL     1      56.608 -16.946  19.560  1.00  0.00    -0.288 OA
ATOM     20  H1  UNL     1      56.321 -17.826  19.773  1.00  0.00     0.244 HD
ENDBRANCH  17  19
ENDBRANCH  12  15
ENDBRANCH   1  11
BRANCH  10  21
HETATM   21  N8  UNL     1      53.449 -14.404  13.760  1.00  0.00    -0.312 N 
ATOM     22  H8  UNL     1      53.698 -14.164  12.800  1.00  0.00     0.181 HD
BRANCH  21  23
HETATM   23  N9  UNL     1      53.468 -15.738  14.125  1.00  0.00    -0.204 NA
HETATM   24  C8  UNL     1      54.618 -16.467  13.687  1.00  0.00     0.143 A 
HETATM   25  C9  UNL     1      54.151 -17.734  13.052  1.00  0.00     0.250 A 
HETATM   26  N10 UNL     1      52.724 -17.681  13.075  1.00  0.00    -0.061 N 
HETATM   27  C10 UNL     1      52.319 -16.485  13.737  1.00  0.00     0.345 A 
ATOM     28 2H10 UNL     1      52.316 -17.768  12.144  1.00  0.00     0.278 HD
ATOM     29 1H10 UNL     1      52.310 -18.515  13.489  1.00  0.00     0.278 HD
ENDBRANCH  21  23
ENDBRANCH  10  21
BRANCH   6  30
HETATM   30  N6  UNL     1      51.074 -12.030  17.408  1.00  0.00    -0.041 N 
ATOM     31  H63 UNL     1      50.643 -12.812  16.914  1.00  0.00     0.279 HD
ATOM     32  H62 UNL     1      51.411 -12.541  18.224  1.00  0.00     0.279 HD
ATOM     33  H61 UNL     1      50.395 -11.311  17.658  1.00  0.00     0.279 HD
ENDBRANCH   6  30
BRANCH   9  34
HETATM   34  C6  UNL     1      51.569 -12.453  13.028  1.00  0.00     0.229 C 
HETATM   35  O3  UNL     1      51.055 -13.506  12.617  1.00  0.00    -0.643 OA
HETATM   36  O4  UNL     1      51.527 -11.327  12.243  1.00  0.00    -0.643 OA
ENDBRANCH   9  34
TORSDOF 7
ENDMDL
MODEL 5
REMARK VINA RESULT: -6.190646573      3.757      6.173
REMARK  7 active torsions:
REMARK  status: ('A' for Active; 'I' for Inactive)
REMARK    1  A    between atoms: C1_2  and  C2_7 
REMARK    2  A    between atoms: N2_3  and  O1_5 
REMARK       I    between atoms: C2_7  and  N3_9 
REMARK    3  A    between atoms: N3_9  and  N4_11 
REMARK    4  A    between atoms: C4_16  and  N6_17 
REMARK    5  A    between atoms: C5_23  and  C6_24 
REMARK    6  A    between atoms: C7_27  and  N8_28 
REMARK    7  A    between atoms: N8_28  and  N9_30 
ROOT
HETATM    1  N4  UNL     1      55.027 -13.323  17.413  1.00  0.00    -0.281 N 
ATOM      2  H4  UNL     1      55.445 -14.067  16.855  1.00  0.00     0.188 HD
HETATM    3  C3  UNL     1      54.004 -12.688  16.930  1.00  0.00     0.149 C 
HETATM    4  N5  UNL     1      53.450 -11.655  17.742  1.00  0.00    -0.330 N 
ATOM      5  H5  UNL     1      53.993 -11.262  18.510  1.00  0.00     0.165 HD
HETATM    6  C4  UNL     1      52.100 -11.161  17.469  1.00  0.00     0.388 C 
HETATM    7  N7  UNL     1      51.848 -11.248  16.065  1.00  0.00    -0.339 N 
ATOM      8  H7  UNL     1      51.256 -10.536  15.636  1.00  0.00     0.163 HD
HETATM    9  C5  UNL     1      52.384 -12.283  15.224  1.00  0.00     0.140 C 
HETATM   10  C7  UNL     1      53.443 -13.004  15.626  1.00  0.00     0.122 C 
ENDROOT
BRANCH   1  11
HETATM   11  N3  UNL     1      55.575 -13.039  18.648  1.00  0.00    -0.262 N 
HETATM   12  C2  UNL     1      54.965 -13.534  19.822  1.00  0.00     0.302 C 
HETATM   13  O2  UNL     1      53.928 -14.228  19.736  1.00  0.00    -0.263 OA
ATOM     14  H3  UNL     1      56.421 -12.471  18.713  1.00  0.00     0.190 HD
BRANCH  12  15
HETATM   15  C1  UNL     1      55.574 -13.214  21.106  1.00  0.00     0.205 C 
HETATM   16  N1  UNL     1      55.955 -14.226  22.023  1.00  0.00    -0.075 NA
HETATM   17  N2  UNL     1      55.765 -11.993  21.408  1.00  0.00    -0.251 N 
ATOM     18  H2  UNL     1      56.193 -11.795  22.313  1.00  0.00     0.195 HD
BRANCH  17  19
HETATM   19  O1  UNL     1      55.446 -10.932  20.623  1.00  0.00    -0.288 OA
ATOM     20  H1  UNL     1      54.693 -10.366  20.745  1.00  0.00     0.244 HD
ENDBRANCH  17  19
ENDBRANCH  12  15
ENDBRANCH   1  11
BRANCH  10  21
HETATM   21  N8  UNL     1      54.004 -14.034  14.830  1.00  0.00    -0.312 N 
ATOM     22  H8  UNL     1      53.439 -14.864  14.648  1.00  0.00     0.181 HD
BRANCH  21  23
HETATM   23  N9  UNL     1      55.274 -13.977  14.284  1.00  0.00    -0.204 NA
HETATM   24  C8  UNL     1      55.341 -13.417  12.970  1.00  0.00     0.143 A 
HETATM   25  C9  UNL     1      56.157 -14.330  12.117  1.00  0.00     0.250 A 
HETATM   26  N10 UNL     1      56.491 -15.445  12.944  1.00  0.00    -0.061 N 
HETATM   27  C10 UNL     1      55.971 -15.220  14.252  1.00  0.00     0.345 A 
ATOM     28 2H10 UNL     1      56.179 -16.331  12.548  1.00  0.00     0.278 HD
ATOM     29 1H10 UNL     1      57.493 -15.638  12.950  1.00  0.00     0.278 HD
ENDBRANCH  21  23
ENDBRANCH  10  21
BRANCH   6  30
HETATM   30  N6  UNL     1      51.144 -11.898  18.270  1.00  0.00    -0.041 N 
ATOM     31  H63 UNL     1      51.566 -12.290  19.111  1.00  0.00     0.279 HD
ATOM     32  H62 UNL     1      50.464 -11.284  18.720  1.00  0.00     0.279 HD
ATOM     33  H61 UNL     1      50.696 -12.612  17.695  1.00  0.00     0.279 HD
ENDBRANCH   6  30
BRANCH   9  34
HETATM   34  C6  UNL     1      51.790 -12.556  13.939  1.00  0.00     0.229 C 
HETATM   35  O3  UNL     1      51.492 -13.717  13.616  1.00  0.00    -0.643 OA
HETATM   36  O4  UNL     1      51.550 -11.526  13.063  1.00  0.00    -0.643 OA
ENDBRANCH   9  34
TORSDOF 7
ENDMDL
