MODEL 1
REMARK VINA RESULT: -0.947569469      0.000      0.000
REMARK  3 active torsions:
REMARK  status: ('A' for Active; 'I' for Inactive)
REMARK    1  A    between atoms: N1_2  and  C2_4 
REMARK    2  A    between atoms: C2_4  and  N2_6 
REMARK    3  A    between atoms: N2_6  and  N3_8 
ROOT
HETATM    1  C2  UNL     1      54.062  92.679   7.840  1.00  0.00     0.185 C 
HETATM    2  S1  UNL     1      52.434  92.669   7.833  1.00  0.00    -0.040 SA
ENDROOT
BRANCH   1   3
HETATM    3  N1  UNL     1      54.777  91.547   7.379  1.00  0.00    -0.370 N 
HETATM    4  C1  UNL     1      55.010  91.291   5.977  1.00  0.00     0.148 C 
ATOM      5  H1  UNL     1      55.142  90.887   8.064  1.00  0.00     0.161 HD
ENDBRANCH   1   3
BRANCH   1   6
HETATM    6  N2  UNL     1      54.716  93.839   8.314  1.00  0.00    -0.279 N 
ATOM      7  H2  UNL     1      54.528  94.123   9.276  1.00  0.00     0.189 HD
BRANCH   6   8
HETATM    8  N3  UNL     1      55.586  94.616   7.582  1.00  0.00    -0.334 N 
HETATM    9  C3  UNL     1      56.959  94.264   7.704  1.00  0.00     0.170 C 
HETATM   10  C4  UNL     1      55.146  95.011   6.302  1.00  0.00     0.170 C 
ENDBRANCH   6   8
ENDBRANCH   1   6
TORSDOF 3
ENDMDL
MODEL 2
REMARK VINA RESULT: -0.931271982      1.774      2.329
REMARK  3 active torsions:
REMARK  status: ('A' for Active; 'I' for Inactive)
REMARK    1  A    between atoms: N1_2  and  C2_4 
REMARK    2  A    between atoms: C2_4  and  N2_6 
REMARK    3  A    between atoms: N2_6  and  N3_8 
ROOT
HETATM    1  C2  UNL     1      54.482  92.103   7.219  1.00  0.00     0.185 C 
HETATM    2  S1  UNL     1      54.957  91.174   5.970  1.00  0.00    -0.040 SA
ENDROOT
BRANCH   1   3
HETATM    3  N1  UNL     1      53.115  92.147   7.586  1.00  0.00    -0.370 N 
HETATM    4  C1  UNL     1      52.446  93.373   7.954  1.00  0.00     0.148 C 
ATOM      5  H1  UNL     1      52.581  91.278   7.590  1.00  0.00     0.161 HD
ENDBRANCH   1   3
BRANCH   1   6
HETATM    6  N2  UNL     1      55.469  92.845   7.906  1.00  0.00    -0.279 N 
ATOM      7  H2  UNL     1      56.010  92.358   8.620  1.00  0.00     0.189 HD
BRANCH   6   8
HETATM    8  N3  UNL     1      55.759  94.174   7.688  1.00  0.00    -0.334 N 
HETATM    9  C3  UNL     1      55.420  94.662   6.396  1.00  0.00     0.170 C 
HETATM   10  C4  UNL     1      55.538  95.048   8.772  1.00  0.00     0.170 C 
ENDBRANCH   6   8
ENDBRANCH   1   6
TORSDOF 3
ENDMDL
MODEL 3
REMARK VINA RESULT: -0.859251779      0.939      1.301
REMARK  3 active torsions:
REMARK  status: ('A' for Active; 'I' for Inactive)
REMARK    1  A    between atoms: N1_2  and  C2_4 
REMARK    2  A    between atoms: C2_4  and  N2_6 
REMARK    3  A    between atoms: N2_6  and  N3_8 
ROOT
HETATM    1  C2  UNL     1      54.010  92.435   7.526  1.00  0.00     0.185 C 
HETATM    2  S1  UNL     1      52.636  93.190   7.963  1.00  0.00    -0.040 SA
ENDROOT
BRANCH   1   3
HETATM    3  N1  UNL     1      53.951  91.282   6.705  1.00  0.00    -0.370 N 
HETATM    4  C1  UNL     1      55.003  90.928   5.782  1.00  0.00     0.148 C 
ATOM      5  H1  UNL     1      53.131  90.678   6.767  1.00  0.00     0.161 HD
ENDBRANCH   1   3
BRANCH   1   6
HETATM    6  N2  UNL     1      55.235  92.965   7.990  1.00  0.00    -0.279 N 
ATOM      7  H2  UNL     1      55.807  92.369   8.587  1.00  0.00     0.189 HD
BRANCH   6   8
HETATM    8  N3  UNL     1      55.717  94.222   7.699  1.00  0.00    -0.334 N 
HETATM    9  C3  UNL     1      55.452  94.679   6.378  1.00  0.00     0.170 C 
HETATM   10  C4  UNL     1      55.630  95.179   8.729  1.00  0.00     0.170 C 
ENDBRANCH   6   8
ENDBRANCH   1   6
TORSDOF 3
ENDMDL
MODEL 4
REMARK VINA RESULT: -0.649832804      8.086      9.160
REMARK  3 active torsions:
REMARK  status: ('A' for Active; 'I' for Inactive)
REMARK    1  A    between atoms: N1_2  and  C2_4 
REMARK    2  A    between atoms: C2_4  and  N2_6 
REMARK    3  A    between atoms: N2_6  and  N3_8 
ROOT
HETATM    1  C2  UNL     1      60.476  99.846   3.603  1.00  0.00     0.185 C 
HETATM    2  S1  UNL     1      61.778 100.231   4.501  1.00  0.00    -0.040 SA
ENDROOT
BRANCH   1   3
HETATM    3  N1  UNL     1      59.371 100.729   3.546  1.00  0.00    -0.370 N 
HETATM    4  C1  UNL     1      58.038 100.335   3.937  1.00  0.00     0.148 C 
ATOM      5  H1  UNL     1      59.523 101.682   3.217  1.00  0.00     0.161 HD
ENDBRANCH   1   3
BRANCH   1   6
HETATM    6  N2  UNL     1      60.497  98.621   2.897  1.00  0.00    -0.279 N 
ATOM      7  H2  UNL     1      60.781  98.649   1.918  1.00  0.00     0.189 HD
BRANCH   6   8
HETATM    8  N3  UNL     1      60.165  97.394   3.426  1.00  0.00    -0.334 N 
HETATM    9  C3  UNL     1      60.633  97.160   4.749  1.00  0.00     0.170 C 
HETATM   10  C4  UNL     1      58.880  96.905   3.115  1.00  0.00     0.170 C 
ENDBRANCH   6   8
ENDBRANCH   1   6
TORSDOF 3
ENDMDL
MODEL 5
REMARK VINA RESULT: -0.536207940      1.611      2.008
REMARK  3 active torsions:
REMARK  status: ('A' for Active; 'I' for Inactive)
REMARK    1  A    between atoms: N1_2  and  C2_4 
REMARK    2  A    between atoms: C2_4  and  N2_6 
REMARK    3  A    between atoms: N2_6  and  N3_8 
ROOT
HETATM    1  C2  UNL     1      54.507  92.146   7.312  1.00  0.00     0.185 C 
HETATM    2  S1  UNL     1      55.109  91.314   6.049  1.00  0.00    -0.040 SA
ENDROOT
BRANCH   1   3
HETATM    3  N1  UNL     1      53.151  91.980   7.684  1.00  0.00    -0.370 N 
HETATM    4  C1  UNL     1      52.296  93.091   8.032  1.00  0.00     0.148 C 
ATOM      5  H1  UNL     1      52.762  91.038   7.707  1.00  0.00     0.161 HD
ENDBRANCH   1   3
BRANCH   1   6
HETATM    6  N2  UNL     1      55.375  93.021   8.004  1.00  0.00    -0.279 N 
ATOM      7  H2  UNL     1      55.764  92.692   8.887  1.00  0.00     0.189 HD
BRANCH   6   8
HETATM    8  N3  UNL     1      55.737  94.280   7.581  1.00  0.00    -0.334 N 
HETATM    9  C3  UNL     1      57.137  94.530   7.556  1.00  0.00     0.170 C 
HETATM   10  C4  UNL     1      54.978  94.829   6.527  1.00  0.00     0.170 C 
ENDBRANCH   6   8
ENDBRANCH   1   6
TORSDOF 3
ENDMDL
