MODEL 1
REMARK VINA RESULT: -0.542621819      0.000      0.000
REMARK  1 active torsions:
REMARK  status: ('A' for Active; 'I' for Inactive)
REMARK    1  A    between atoms: O1_3  and  N1_4 
REMARK       I    between atoms: N1_4  and  C3_6 
REMARK       I    between atoms: C3_6  and  N3_10 
ROOT
HETATM    1  C1  UNL     1      62.873  91.643  10.266  1.00  0.00     0.047 C 
HETATM    2  C2  UNL     1      62.368  92.693   9.909  1.00  0.00     0.074 C 
HETATM    3  O1  UNL     1      61.823  93.881   9.509  1.00  0.00    -0.172 OA
ENDROOT
BRANCH   3   4
HETATM    4  N1  UNL     1      61.209  93.983   8.291  1.00  0.00    -0.082 N 
HETATM    5  C3  UNL     1      61.946  94.298   7.128  1.00  0.00     0.694 C 
HETATM    6  N2  UNL     1      61.798  95.376   6.440  1.00  0.00    -0.229 N 
HETATM    7  N3  UNL     1      62.919  93.366   6.680  1.00  0.00    -0.229 N 
HETATM    8  C4  UNL     1      60.846  96.379   6.806  1.00  0.00     0.165 C 
ATOM      9  H2  UNL     1      62.375  95.520   5.611  1.00  0.00     0.177 HD
HETATM   10  C5  UNL     1      62.472  92.015   6.355  1.00  0.00     0.165 C 
ATOM     11  H3  UNL     1      63.899  93.633   6.587  1.00  0.00     0.177 HD
ATOM     12  H1  UNL     1      60.203  93.828   8.221  1.00  0.00     0.214 HD
ENDBRANCH   3   4
TORSDOF 1
ENDMDL
MODEL 2
REMARK VINA RESULT: -0.281057314      5.136      6.881
REMARK  1 active torsions:
REMARK  status: ('A' for Active; 'I' for Inactive)
REMARK    1  A    between atoms: O1_3  and  N1_4 
REMARK       I    between atoms: N1_4  and  C3_6 
REMARK       I    between atoms: C3_6  and  N3_10 
ROOT
HETATM    1  C1  UNL     1      61.402  96.436   6.405  1.00  0.00     0.047 C 
HETATM    2  C2  UNL     1      61.512  97.417   5.690  1.00  0.00     0.074 C 
HETATM    3  O1  UNL     1      61.657  98.513   4.887  1.00  0.00    -0.172 OA
ENDROOT
BRANCH   3   4
HETATM    4  N1  UNL     1      60.992  98.587   3.693  1.00  0.00    -0.082 N 
HETATM    5  C3  UNL     1      59.642  98.998   3.637  1.00  0.00     0.694 C 
HETATM    6  N2  UNL     1      58.664  98.246   3.265  1.00  0.00    -0.229 N 
HETATM    7  N3  UNL     1      59.332 100.331   4.014  1.00  0.00    -0.229 N 
HETATM    8  C4  UNL     1      58.868  96.888   2.866  1.00  0.00     0.165 C 
ATOM      9  H2  UNL     1      57.719  98.629   3.255  1.00  0.00     0.177 HD
HETATM   10  C5  UNL     1      59.973 101.415   3.276  1.00  0.00     0.165 C 
ATOM     11  H3  UNL     1      58.683 100.525   4.776  1.00  0.00     0.177 HD
ATOM     12  H1  UNL     1      61.478  98.341   2.831  1.00  0.00     0.214 HD
ENDBRANCH   3   4
TORSDOF 1
ENDMDL
MODEL 3
REMARK VINA RESULT: 0.356251026      6.907      7.963
REMARK  1 active torsions:
REMARK  status: ('A' for Active; 'I' for Inactive)
REMARK    1  A    between atoms: O1_3  and  N1_4 
REMARK       I    between atoms: N1_4  and  C3_6 
REMARK       I    between atoms: C3_6  and  N3_10 
ROOT
HETATM    1  C1  UNL     1      58.179  96.398   3.022  1.00  0.00     0.047 C 
HETATM    2  C2  UNL     1      59.146  97.128   3.157  1.00  0.00     0.074 C 
HETATM    3  O1  UNL     1      60.227  97.954   3.286  1.00  0.00    -0.172 OA
ENDROOT
BRANCH   3   4
HETATM    4  N1  UNL     1      60.241  98.926   4.249  1.00  0.00    -0.082 N 
HETATM    5  C3  UNL     1      60.133 100.292   3.905  1.00  0.00     0.694 C 
HETATM    6  N2  UNL     1      61.061 101.166   4.089  1.00  0.00    -0.229 N 
HETATM    7  N3  UNL     1      58.921 100.740   3.318  1.00  0.00    -0.229 N 
HETATM    8  C4  UNL     1      62.319 100.818   4.673  1.00  0.00     0.165 C 
ATOM      9  H2  UNL     1      60.894 102.133   3.810  1.00  0.00     0.177 HD
HETATM   10  C5  UNL     1      57.686 100.557   4.075  1.00  0.00     0.165 C 
ATOM     11  H3  UNL     1      58.913 101.177   2.396  1.00  0.00     0.177 HD
ATOM     12  H1  UNL     1      60.330  98.661   5.229  1.00  0.00     0.214 HD
ENDBRANCH   3   4
TORSDOF 1
ENDMDL
MODEL 4
REMARK VINA RESULT: 0.459842080      7.194      8.243
REMARK  1 active torsions:
REMARK  status: ('A' for Active; 'I' for Inactive)
REMARK    1  A    between atoms: O1_3  and  N1_4 
REMARK       I    between atoms: N1_4  and  C3_6 
REMARK       I    between atoms: C3_6  and  N3_10 
ROOT
HETATM    1  C1  UNL     1      55.719  95.348   8.887  1.00  0.00     0.047 C 
HETATM    2  C2  UNL     1      55.916  94.589   7.954  1.00  0.00     0.074 C 
HETATM    3  O1  UNL     1      56.148  93.724   6.922  1.00  0.00    -0.172 OA
ENDROOT
BRANCH   3   4
HETATM    4  N1  UNL     1      55.101  93.149   6.254  1.00  0.00    -0.082 N 
HETATM    5  C3  UNL     1      54.188  92.303   6.923  1.00  0.00     0.694 C 
HETATM    6  N2  UNL     1      54.042  91.047   6.676  1.00  0.00    -0.229 N 
HETATM    7  N3  UNL     1      53.372  92.868   7.937  1.00  0.00    -0.229 N 
HETATM    8  C4  UNL     1      54.816  90.381   5.674  1.00  0.00     0.165 C 
ATOM      9  H2  UNL     1      53.357  90.513   7.209  1.00  0.00     0.177 HD
HETATM   10  C5  UNL     1      52.491  93.972   7.569  1.00  0.00     0.165 C 
ATOM     11  H3  UNL     1      53.399  92.513   8.893  1.00  0.00     0.177 HD
ATOM     12  H1  UNL     1      54.976  93.335   5.259  1.00  0.00     0.214 HD
ENDBRANCH   3   4
TORSDOF 1
ENDMDL
MODEL 5
REMARK VINA RESULT: 0.589778770      4.369      5.833
REMARK  1 active torsions:
REMARK  status: ('A' for Active; 'I' for Inactive)
REMARK    1  A    between atoms: O1_3  and  N1_4 
REMARK       I    between atoms: N1_4  and  C3_6 
REMARK       I    between atoms: C3_6  and  N3_10 
ROOT
HETATM    1  C1  UNL     1      61.468  95.463   6.710  1.00  0.00     0.047 C 
HETATM    2  C2  UNL     1      61.558  96.485   6.051  1.00  0.00     0.074 C 
HETATM    3  O1  UNL     1      61.668  97.618   5.295  1.00  0.00    -0.172 OA
ENDROOT
BRANCH   3   4
HETATM    4  N1  UNL     1      60.554  98.350   4.983  1.00  0.00    -0.082 N 
HETATM    5  C3  UNL     1      60.226  98.638   3.640  1.00  0.00     0.694 C 
HETATM    6  N2  UNL     1      60.213  99.821   3.130  1.00  0.00    -0.229 N 
HETATM    7  N3  UNL     1      59.886  97.556   2.787  1.00  0.00    -0.229 N 
HETATM    8  C4  UNL     1      60.540 100.979   3.903  1.00  0.00     0.165 C 
ATOM      9  H2  UNL     1      59.962  99.935   2.148  1.00  0.00     0.177 HD
HETATM   10  C5  UNL     1      58.751  96.719   3.165  1.00  0.00     0.165 C 
ATOM     11  H3  UNL     1      60.417  97.369   1.936  1.00  0.00     0.177 HD
ATOM     12  H1  UNL     1      59.951  98.691   5.731  1.00  0.00     0.214 HD
ENDBRANCH   3   4
TORSDOF 1
ENDMDL
