MODEL 1
REMARK VINA RESULT: -0.445300815      0.000      0.000
REMARK  1 active torsions:
REMARK  status: ('A' for Active; 'I' for Inactive)
REMARK    1  A    between atoms: C3_3  and  N1_4 
REMARK       I    between atoms: N1_4  and  C4_6 
REMARK       I    between atoms: C4_6  and  N4_11 
ROOT
HETATM    1  C1  UNL     1      52.325  92.126   7.963  1.00  0.00     0.014 C 
HETATM    2  C2  UNL     1      53.157  91.588   7.271  1.00  0.00    -0.097 C 
HETATM    3  C3  UNL     1      54.192  90.950   6.428  1.00  0.00     0.231 C 
ENDROOT
BRANCH   3   4
HETATM    4  N1  UNL     1      55.321  91.803   6.222  1.00  0.00    -0.215 N 
HETATM    5  C4  UNL     1      55.355  93.133   6.707  1.00  0.00     0.683 C 
HETATM    6  N2  UNL     1      55.523  93.353   7.956  1.00  0.00    -0.126 N 
HETATM    7  N4  UNL     1      55.206  94.231   5.829  1.00  0.00    -0.230 N 
HETATM    8  C5  UNL     1      55.579  94.595   8.569  1.00  0.00     0.196 C 
ATOM      9  H2  UNL     1      55.627  92.536   8.559  1.00  0.00     0.197 HD
HETATM   10  N3  UNL     1      55.627  95.619   9.098  1.00  0.00    -0.171 NA
HETATM   11  C6  UNL     1      56.071  95.382   5.811  1.00  0.00     0.165 C 
ATOM     12  H4  UNL     1      54.433  94.206   5.163  1.00  0.00     0.177 HD
ATOM     13  H1  UNL     1      56.125  91.443   5.709  1.00  0.00     0.178 HD
ENDBRANCH   3   4
TORSDOF 1
ENDMDL
MODEL 2
REMARK VINA RESULT: -0.053565456      7.422      8.145
REMARK  1 active torsions:
REMARK  status: ('A' for Active; 'I' for Inactive)
REMARK    1  A    between atoms: C3_3  and  N1_4 
REMARK       I    between atoms: N1_4  and  C4_6 
REMARK       I    between atoms: C4_6  and  N4_11 
ROOT
HETATM    1  C1  UNL     1      62.158  93.975   7.179  1.00  0.00     0.014 C 
HETATM    2  C2  UNL     1      61.765  95.070   6.854  1.00  0.00    -0.097 C 
HETATM    3  C3  UNL     1      61.285  96.405   6.431  1.00  0.00     0.231 C 
ENDROOT
BRANCH   3   4
HETATM    4  N1  UNL     1      61.282  96.550   5.008  1.00  0.00    -0.215 N 
HETATM    5  C4  UNL     1      60.570  97.589   4.360  1.00  0.00     0.683 C 
HETATM    6  N2  UNL     1      61.015  98.787   4.397  1.00  0.00    -0.126 N 
HETATM    7  N4  UNL     1      59.367  97.321   3.668  1.00  0.00    -0.230 N 
HETATM    8  C5  UNL     1      60.427  99.897   3.812  1.00  0.00     0.196 C 
ATOM      9  H2  UNL     1      61.885  98.941   4.907  1.00  0.00     0.197 HD
HETATM   10  N3  UNL     1      59.952 100.834   3.332  1.00  0.00    -0.171 NA
HETATM   11  C6  UNL     1      59.074  97.785   2.336  1.00  0.00     0.165 C 
ATOM     12  H4  UNL     1      58.658  96.763   4.143  1.00  0.00     0.177 HD
ATOM     13  H1  UNL     1      61.809  95.885   4.442  1.00  0.00     0.178 HD
ENDBRANCH   3   4
TORSDOF 1
ENDMDL
MODEL 3
REMARK VINA RESULT: 0.822915980      7.316      8.246
REMARK  1 active torsions:
REMARK  status: ('A' for Active; 'I' for Inactive)
REMARK    1  A    between atoms: C3_3  and  N1_4 
REMARK       I    between atoms: N1_4  and  C4_6 
REMARK       I    between atoms: C4_6  and  N4_11 
ROOT
HETATM    1  C1  UNL     1      61.695  93.997   8.570  1.00  0.00     0.014 C 
HETATM    2  C2  UNL     1      61.707  94.557   7.499  1.00  0.00    -0.097 C 
HETATM    3  C3  UNL     1      61.714  95.263   6.199  1.00  0.00     0.231 C 
ENDROOT
BRANCH   3   4
HETATM    4  N1  UNL     1      61.176  96.584   6.301  1.00  0.00    -0.215 N 
HETATM    5  C4  UNL     1      61.203  97.493   5.215  1.00  0.00     0.683 C 
HETATM    6  N2  UNL     1      60.404  97.334   4.230  1.00  0.00    -0.126 N 
HETATM    7  N4  UNL     1      62.106  98.581   5.201  1.00  0.00    -0.230 N 
HETATM    8  C5  UNL     1      60.319  98.140   3.105  1.00  0.00     0.196 C 
ATOM      9  H2  UNL     1      59.767  96.538   4.275  1.00  0.00     0.197 HD
HETATM   10  N3  UNL     1      60.234  98.799   2.162  1.00  0.00    -0.171 NA
HETATM   11  C6  UNL     1      61.738  99.940   4.900  1.00  0.00     0.165 C 
ATOM     12  H4  UNL     1      63.085  98.390   5.420  1.00  0.00     0.177 HD
ATOM     13  H1  UNL     1      60.759  96.881   7.184  1.00  0.00     0.178 HD
ENDBRANCH   3   4
TORSDOF 1
ENDMDL
MODEL 4
REMARK VINA RESULT: 1.147467627      7.606      8.912
REMARK  1 active torsions:
REMARK  status: ('A' for Active; 'I' for Inactive)
REMARK    1  A    between atoms: C3_3  and  N1_4 
REMARK       I    between atoms: N1_4  and  C4_6 
REMARK       I    between atoms: C4_6  and  N4_11 
ROOT
HETATM    1  C1  UNL     1      61.355  96.828   5.969  1.00  0.00     0.014 C 
HETATM    2  C2  UNL     1      60.617  96.763   5.015  1.00  0.00    -0.097 C 
HETATM    3  C3  UNL     1      59.724  96.705   3.837  1.00  0.00     0.231 C 
ENDROOT
BRANCH   3   4
HETATM    4  N1  UNL     1      59.815  97.885   3.033  1.00  0.00    -0.215 N 
HETATM    5  C4  UNL     1      60.226  99.129   3.570  1.00  0.00     0.683 C 
HETATM    6  N2  UNL     1      61.457  99.328   3.852  1.00  0.00    -0.126 N 
HETATM    7  N4  UNL     1      59.291 100.165   3.801  1.00  0.00    -0.230 N 
HETATM    8  C5  UNL     1      62.000 100.489   4.380  1.00  0.00     0.196 C 
ATOM      9  H2  UNL     1      62.102  98.558   3.673  1.00  0.00     0.197 HD
HETATM   10  N3  UNL     1      62.470 101.447   4.819  1.00  0.00    -0.171 NA
HETATM   11  C6  UNL     1      59.471 101.532   3.385  1.00  0.00     0.165 C 
ATOM     12  H4  UNL     1      58.430  99.927   4.295  1.00  0.00     0.177 HD
ATOM     13  H1  UNL     1      59.577  97.828   2.043  1.00  0.00     0.178 HD
ENDBRANCH   3   4
TORSDOF 1
ENDMDL
MODEL 5
REMARK VINA RESULT: 1.176265700      1.289      4.286
REMARK  1 active torsions:
REMARK  status: ('A' for Active; 'I' for Inactive)
REMARK    1  A    between atoms: C3_3  and  N1_4 
REMARK       I    between atoms: N1_4  and  C4_6 
REMARK       I    between atoms: C4_6  and  N4_11 
ROOT
HETATM    1  C1  UNL     1      55.835  95.169   5.582  1.00  0.00     0.014 C 
HETATM    2  C2  UNL     1      55.750  95.177   6.787  1.00  0.00    -0.097 C 
HETATM    3  C3  UNL     1      55.635  95.163   8.262  1.00  0.00     0.231 C 
ENDROOT
BRANCH   3   4
HETATM    4  N1  UNL     1      54.959  93.997   8.740  1.00  0.00    -0.215 N 
HETATM    5  C4  UNL     1      54.458  93.007   7.860  1.00  0.00     0.683 C 
HETATM    6  N2  UNL     1      55.264  92.200   7.282  1.00  0.00    -0.126 N 
HETATM    7  N4  UNL     1      53.071  92.893   7.608  1.00  0.00    -0.230 N 
HETATM    8  C5  UNL     1      54.918  91.186   6.402  1.00  0.00     0.196 C 
ATOM      9  H2  UNL     1      56.257  92.312   7.488  1.00  0.00     0.197 HD
HETATM   10  N3  UNL     1      54.650  90.338   5.667  1.00  0.00    -0.171 NA
HETATM   11  C6  UNL     1      52.334  91.658   7.655  1.00  0.00     0.165 C 
ATOM     12  H4  UNL     1      52.558  93.745   7.377  1.00  0.00     0.177 HD
ATOM     13  H1  UNL     1      54.833  93.875   9.744  1.00  0.00     0.178 HD
ENDBRANCH   3   4
TORSDOF 1
ENDMDL
