MODEL 1
REMARK VINA RESULT: -1.684364330      0.000      0.000
REMARK  0 active torsions:
REMARK  status: ('A' for Active; 'I' for Inactive)
REMARK       I    between atoms: N2_5  and  C4_6 
ROOT
HETATM    1  C1  UNL     1      51.768  91.531   8.054  1.00  0.00     0.156 C 
HETATM    2  N1  UNL     1      53.016  92.115   7.575  1.00  0.00    -0.356 N 
HETATM    3  C2  UNL     1      53.939  91.459   6.847  1.00  0.00     0.109 A 
HETATM    4  C3  UNL     1      54.992  92.313   6.568  1.00  0.00     0.117 A 
HETATM    5  N2  UNL     1      54.694  93.495   7.136  1.00  0.00    -0.291 N 
HETATM    6  C4  UNL     1      55.491  94.668   7.107  1.00  0.00     0.193 C 
HETATM    7  N3  UNL     1      56.035  95.176   8.157  1.00  0.00    -0.373 N 
ATOM      8  H31 UNL     1      56.608  96.019   8.136  1.00  0.00     0.158 HD
ATOM      9  H32 UNL     1      55.884  94.709   9.051  1.00  0.00     0.158 HD
HETATM   10  N4  UNL     1      55.701  95.318   5.863  1.00  0.00    -0.063 NA
HETATM   11  C5  UNL     1      53.488  93.357   7.745  1.00  0.00     0.192 A 
ENDROOT
TORSDOF 0
ENDMDL
MODEL 2
REMARK VINA RESULT: -1.363817960      0.858      1.976
REMARK  0 active torsions:
REMARK  status: ('A' for Active; 'I' for Inactive)
REMARK       I    between atoms: N2_5  and  C4_6 
ROOT
HETATM    1  C1  UNL     1      54.029  90.082   6.188  1.00  0.00     0.156 C 
HETATM    2  N1  UNL     1      54.021  91.447   6.700  1.00  0.00    -0.356 N 
HETATM    3  C2  UNL     1      53.014  91.995   7.406  1.00  0.00     0.109 A 
HETATM    4  C3  UNL     1      53.340  93.300   7.729  1.00  0.00     0.117 A 
HETATM    5  N2  UNL     1      54.558  93.537   7.211  1.00  0.00    -0.291 N 
HETATM    6  C4  UNL     1      55.290  94.749   7.297  1.00  0.00     0.193 C 
HETATM    7  N3  UNL     1      55.561  95.481   6.274  1.00  0.00    -0.373 N 
ATOM      8  H31 UNL     1      56.087  96.352   6.336  1.00  0.00     0.158 HD
ATOM      9  H32 UNL     1      55.233  95.171   5.359  1.00  0.00     0.158 HD
HETATM   10  N4  UNL     1      55.747  95.179   8.569  1.00  0.00    -0.063 NA
HETATM   11  C5  UNL     1      54.958  92.398   6.588  1.00  0.00     0.192 A 
ENDROOT
TORSDOF 0
ENDMDL
MODEL 3
REMARK VINA RESULT: -1.062638063      7.881      8.699
REMARK  0 active torsions:
REMARK  status: ('A' for Active; 'I' for Inactive)
REMARK       I    between atoms: N2_5  and  C4_6 
ROOT
HETATM    1  C1  UNL     1      62.918  92.146   6.264  1.00  0.00     0.156 C 
HETATM    2  N1  UNL     1      62.456  92.613   7.566  1.00  0.00    -0.356 N 
HETATM    3  C2  UNL     1      61.840  93.790   7.783  1.00  0.00     0.109 A 
HETATM    4  C3  UNL     1      61.541  93.907   9.129  1.00  0.00     0.117 A 
HETATM    5  N2  UNL     1      61.984  92.786   9.725  1.00  0.00    -0.291 N 
HETATM    6  C4  UNL     1      61.892  92.472  11.105  1.00  0.00     0.193 C 
HETATM    7  N3  UNL     1      62.919  92.362  11.872  1.00  0.00    -0.373 N 
ATOM      8  H31 UNL     1      62.853  92.137  12.865  1.00  0.00     0.158 HD
ATOM      9  H32 UNL     1      63.842  92.509  11.464  1.00  0.00     0.158 HD
HETATM   10  N4  UNL     1      60.607  92.267  11.672  1.00  0.00    -0.063 NA
HETATM   11  C5  UNL     1      62.538  92.009   8.759  1.00  0.00     0.192 A 
ENDROOT
TORSDOF 0
ENDMDL
MODEL 4
REMARK VINA RESULT: -0.244094283      0.797      1.804
REMARK  0 active torsions:
REMARK  status: ('A' for Active; 'I' for Inactive)
REMARK       I    between atoms: N2_5  and  C4_6 
ROOT
HETATM    1  C1  UNL     1      52.642  90.756   7.205  1.00  0.00     0.156 C 
HETATM    2  N1  UNL     1      53.276  92.057   7.392  1.00  0.00    -0.356 N 
HETATM    3  C2  UNL     1      52.757  93.064   8.119  1.00  0.00     0.109 A 
HETATM    4  C3  UNL     1      53.620  94.145   8.081  1.00  0.00     0.117 A 
HETATM    5  N2  UNL     1      54.669  93.780   7.322  1.00  0.00    -0.291 N 
HETATM    6  C4  UNL     1      55.800  94.576   7.008  1.00  0.00     0.193 C 
HETATM    7  N3  UNL     1      56.065  94.982   5.816  1.00  0.00    -0.373 N 
ATOM      8  H31 UNL     1      56.878  95.555   5.589  1.00  0.00     0.158 HD
ATOM      9  H32 UNL     1      55.429  94.716   5.064  1.00  0.00     0.158 HD
HETATM   10  N4  UNL     1      56.684  94.945   8.054  1.00  0.00    -0.063 NA
HETATM   11  C5  UNL     1      54.442  92.506   6.911  1.00  0.00     0.192 A 
ENDROOT
TORSDOF 0
ENDMDL
MODEL 5
REMARK VINA RESULT: 0.168334541      8.129      9.078
REMARK  0 active torsions:
REMARK  status: ('A' for Active; 'I' for Inactive)
REMARK       I    between atoms: N2_5  and  C4_6 
ROOT
HETATM    1  C1  UNL     1      57.269 101.179   3.792  1.00  0.00     0.156 C 
HETATM    2  N1  UNL     1      58.494 100.387   3.825  1.00  0.00    -0.356 N 
HETATM    3  C2  UNL     1      59.733 100.886   3.660  1.00  0.00     0.109 A 
HETATM    4  C3  UNL     1      60.655  99.858   3.750  1.00  0.00     0.117 A 
HETATM    5  N2  UNL     1      59.958  98.729   3.972  1.00  0.00    -0.291 N 
HETATM    6  C4  UNL     1      60.494  97.425   4.130  1.00  0.00     0.193 C 
HETATM    7  N3  UNL     1      60.286  96.472   3.291  1.00  0.00    -0.373 N 
ATOM      8  H31 UNL     1      60.671  95.535   3.404  1.00  0.00     0.158 HD
ATOM      9  H32 UNL     1      59.707  96.668   2.473  1.00  0.00     0.158 HD
HETATM   10  N4  UNL     1      61.297  97.153   5.267  1.00  0.00    -0.063 NA
HETATM   11  C5  UNL     1      58.644  99.070   4.014  1.00  0.00     0.192 A 
ENDROOT
TORSDOF 0
ENDMDL
