MODEL 1
REMARK VINA RESULT: -2.211424138      0.000      0.000
REMARK  3 active torsions:
REMARK  status: ('A' for Active; 'I' for Inactive)
REMARK    1  A    between atoms: N1_2  and  C2_4 
REMARK    2  A    between atoms: C2_4  and  N2_6 
REMARK    3  A    between atoms: N2_6  and  C3_8 
ROOT
HETATM    1  C3  UNL     1      55.685  94.190   8.278  1.00  0.00     0.246 C 
HETATM    2  C4  UNL     1      55.502  94.855   6.993  1.00  0.00     0.078 C 
HETATM    3  N3  UNL     1      55.338  95.374   5.987  1.00  0.00    -0.196 NA
ENDROOT
BRANCH   1   4
HETATM    4  N2  UNL     1      55.333  92.808   8.153  1.00  0.00    -0.355 N 
ATOM      5  H2  UNL     1      55.985  92.088   8.462  1.00  0.00     0.162 HD
BRANCH   4   6
HETATM    6  C2  UNL     1      54.089  92.437   7.605  1.00  0.00     0.167 C 
HETATM    7  S1  UNL     1      52.766  93.305   8.009  1.00  0.00    -0.041 SA
BRANCH   6   8
HETATM    8  N1  UNL     1      53.998  91.322   6.712  1.00  0.00    -0.372 N 
HETATM    9  C1  UNL     1      55.049  91.008   5.793  1.00  0.00     0.148 C 
ATOM     10  H1  UNL     1      53.163  90.737   6.732  1.00  0.00     0.161 HD
ENDBRANCH   6   8
ENDBRANCH   4   6
ENDBRANCH   1   4
TORSDOF 3
ENDMDL
MODEL 2
REMARK VINA RESULT: -2.072166839      1.344      1.412
REMARK  3 active torsions:
REMARK  status: ('A' for Active; 'I' for Inactive)
REMARK    1  A    between atoms: N1_2  and  C2_4 
REMARK    2  A    between atoms: C2_4  and  N2_6 
REMARK    3  A    between atoms: N2_6  and  C3_8 
ROOT
HETATM    1  C3  UNL     1      54.711  94.216   8.271  1.00  0.00     0.246 C 
HETATM    2  C4  UNL     1      56.120  94.259   7.896  1.00  0.00     0.078 C 
HETATM    3  N3  UNL     1      57.220  94.306   7.588  1.00  0.00    -0.196 NA
ENDROOT
BRANCH   1   4
HETATM    4  N2  UNL     1      53.950  93.651   7.198  1.00  0.00    -0.355 N 
ATOM      5  H2  UNL     1      53.811  94.183   6.340  1.00  0.00     0.162 HD
BRANCH   4   6
HETATM    6  C2  UNL     1      53.394  92.363   7.322  1.00  0.00     0.167 C 
HETATM    7  S1  UNL     1      52.002  92.188   8.160  1.00  0.00    -0.041 SA
BRANCH   6   8
HETATM    8  N1  UNL     1      54.041  91.236   6.722  1.00  0.00    -0.372 N 
HETATM    9  C1  UNL     1      55.274  91.371   6.008  1.00  0.00     0.148 C 
ATOM     10  H1  UNL     1      53.613  90.315   6.805  1.00  0.00     0.161 HD
ENDBRANCH   6   8
ENDBRANCH   4   6
ENDBRANCH   1   4
TORSDOF 3
ENDMDL
MODEL 3
REMARK VINA RESULT: -2.014546967      1.617      2.073
REMARK  3 active torsions:
REMARK  status: ('A' for Active; 'I' for Inactive)
REMARK    1  A    between atoms: N1_2  and  C2_4 
REMARK    2  A    between atoms: C2_4  and  N2_6 
REMARK    3  A    between atoms: N2_6  and  C3_8 
ROOT
HETATM    1  C3  UNL     1      56.255  93.828   7.736  1.00  0.00     0.246 C 
HETATM    2  C4  UNL     1      55.488  94.768   6.926  1.00  0.00     0.078 C 
HETATM    3  N3  UNL     1      54.877  95.510   6.307  1.00  0.00    -0.196 NA
ENDROOT
BRANCH   1   4
HETATM    4  N2  UNL     1      55.390  92.790   8.208  1.00  0.00    -0.355 N 
ATOM      5  H2  UNL     1      55.425  92.506   9.187  1.00  0.00     0.162 HD
BRANCH   4   6
HETATM    6  C2  UNL     1      54.491  92.158   7.327  1.00  0.00     0.167 C 
HETATM    7  S1  UNL     1      55.094  91.340   6.047  1.00  0.00    -0.041 SA
BRANCH   6   8
HETATM    8  N1  UNL     1      53.081  92.236   7.557  1.00  0.00    -0.372 N 
HETATM    9  C1  UNL     1      52.452  93.456   7.961  1.00  0.00     0.148 C 
ATOM     10  H1  UNL     1      52.510  91.401   7.430  1.00  0.00     0.161 HD
ENDBRANCH   6   8
ENDBRANCH   4   6
ENDBRANCH   1   4
TORSDOF 3
ENDMDL
MODEL 4
REMARK VINA RESULT: -1.632206458      1.832      3.312
REMARK  3 active torsions:
REMARK  status: ('A' for Active; 'I' for Inactive)
REMARK    1  A    between atoms: N1_2  and  C2_4 
REMARK    2  A    between atoms: C2_4  and  N2_6 
REMARK    3  A    between atoms: N2_6  and  C3_8 
ROOT
HETATM    1  C3  UNL     1      53.242  91.945   7.460  1.00  0.00     0.246 C 
HETATM    2  C4  UNL     1      54.381  91.465   6.685  1.00  0.00     0.078 C 
HETATM    3  N3  UNL     1      55.285  91.091   6.094  1.00  0.00    -0.196 NA
ENDROOT
BRANCH   1   4
HETATM    4  N2  UNL     1      53.473  93.301   7.855  1.00  0.00    -0.355 N 
ATOM      5  H2  UNL     1      52.756  93.806   8.376  1.00  0.00     0.162 HD
BRANCH   4   6
HETATM    6  C2  UNL     1      54.684  93.941   7.529  1.00  0.00     0.167 C 
HETATM    7  S1  UNL     1      54.677  95.082   6.359  1.00  0.00    -0.041 SA
BRANCH   6   8
HETATM    8  N1  UNL     1      55.891  93.594   8.215  1.00  0.00    -0.372 N 
HETATM    9  C1  UNL     1      57.166  94.087   7.790  1.00  0.00     0.148 C 
ATOM     10  H1  UNL     1      55.841  92.979   9.027  1.00  0.00     0.161 HD
ENDBRANCH   6   8
ENDBRANCH   4   6
ENDBRANCH   1   4
TORSDOF 3
ENDMDL
MODEL 5
REMARK VINA RESULT: -1.594167068      2.003      2.380
REMARK  3 active torsions:
REMARK  status: ('A' for Active; 'I' for Inactive)
REMARK    1  A    between atoms: N1_2  and  C2_4 
REMARK    2  A    between atoms: C2_4  and  N2_6 
REMARK    3  A    between atoms: N2_6  and  C3_8 
ROOT
HETATM    1  C3  UNL     1      54.851  94.210   8.220  1.00  0.00     0.246 C 
HETATM    2  C4  UNL     1      56.252  94.335   7.832  1.00  0.00     0.078 C 
HETATM    3  N3  UNL     1      57.344  94.447   7.515  1.00  0.00    -0.196 NA
ENDROOT
BRANCH   1   4
HETATM    4  N2  UNL     1      54.109  93.631   7.142  1.00  0.00    -0.355 N 
ATOM      5  H2  UNL     1      53.637  94.234   6.469  1.00  0.00     0.162 HD
BRANCH   4   6
HETATM    6  C2  UNL     1      54.027  92.231   7.006  1.00  0.00     0.167 C 
HETATM    7  S1  UNL     1      55.176  91.460   6.138  1.00  0.00    -0.041 SA
BRANCH   6   8
HETATM    8  N1  UNL     1      52.955  91.508   7.621  1.00  0.00    -0.372 N 
HETATM    9  C1  UNL     1      51.866  92.180   8.262  1.00  0.00     0.148 C 
ATOM     10  H1  UNL     1      52.969  90.489   7.603  1.00  0.00     0.161 HD
ENDBRANCH   6   8
ENDBRANCH   4   6
ENDBRANCH   1   4
TORSDOF 3
ENDMDL
