MODEL 1
REMARK VINA RESULT: 0.275586665      0.000      0.000
REMARK  2 active torsions:
REMARK  status: ('A' for Active; 'I' for Inactive)
REMARK       I    between atoms: N1_4  and  C4_6 
REMARK       I    between atoms: C4_6  and  N3_11 
REMARK    1  A    between atoms: N2_7  and  C5_9 
REMARK    2  A    between atoms: N3_11  and  N4_13 
ROOT
HETATM    1  C1  UNL     1      61.619  94.715   7.116  1.00  0.00     0.018 C 
HETATM    2  C2  UNL     1      61.546  95.814   6.608  1.00  0.00    -0.072 C 
HETATM    3  C3  UNL     1      61.473  97.102   5.992  1.00  0.00     0.170 C 
HETATM    4  N1  UNL     1      60.948  97.273   4.830  1.00  0.00    -0.193 N 
ATOM      5  H1  UNL     1      60.569  96.472   4.325  1.00  0.00     0.184 HD
HETATM    6  C4  UNL     1      60.890  98.552   4.250  1.00  0.00     0.692 C 
HETATM    7  N2  UNL     1      59.962  98.986   3.495  1.00  0.00    -0.225 N 
ATOM      8  H2  UNL     1      60.064  99.941   3.151  1.00  0.00     0.177 HD
HETATM    9  N3  UNL     1      61.975  99.435   4.541  1.00  0.00    -0.139 N 
ATOM     10  H3  UNL     1      62.936  99.097   4.598  1.00  0.00     0.205 HD
ENDROOT
BRANCH   7  11
HETATM   11  C5  UNL     1      58.795  98.276   3.080  1.00  0.00     0.134 C 
HETATM   12  C6  UNL     1      58.986  96.775   3.071  1.00  0.00     0.027 C 
ENDBRANCH   7  11
BRANCH   9  13
HETATM   13  N4  UNL     1      61.662 100.778   4.744  1.00  0.00    -0.331 N 
ATOM     14  H42 UNL     1      61.572 101.153   5.688  1.00  0.00     0.177 HD
ATOM     15  H41 UNL     1      61.532 101.355   3.913  1.00  0.00     0.177 HD
ENDBRANCH   9  13
TORSDOF 2
ENDMDL
MODEL 2
REMARK VINA RESULT: 0.703185363      3.934      6.759
REMARK  2 active torsions:
REMARK  status: ('A' for Active; 'I' for Inactive)
REMARK       I    between atoms: N1_4  and  C4_6 
REMARK       I    between atoms: C4_6  and  N3_11 
REMARK    1  A    between atoms: N2_7  and  C5_9 
REMARK    2  A    between atoms: N3_11  and  N4_13 
ROOT
HETATM    1  C1  UNL     1      61.187  97.797   5.858  1.00  0.00     0.018 C 
HETATM    2  C2  UNL     1      61.428  96.618   6.013  1.00  0.00    -0.072 C 
HETATM    3  C3  UNL     1      61.733  95.233   6.196  1.00  0.00     0.170 C 
HETATM    4  N1  UNL     1      62.363  94.805   7.232  1.00  0.00    -0.193 N 
ATOM      5  H1  UNL     1      62.658  95.465   7.952  1.00  0.00     0.184 HD
HETATM    6  C4  UNL     1      62.649  93.437   7.384  1.00  0.00     0.692 C 
HETATM    7  N2  UNL     1      62.688  92.803   8.486  1.00  0.00    -0.225 N 
ATOM      8  H2  UNL     1      62.911  91.809   8.433  1.00  0.00     0.177 HD
HETATM    9  N3  UNL     1      62.919  92.705   6.188  1.00  0.00    -0.139 N 
ATOM     10  H3  UNL     1      63.457  93.113   5.423  1.00  0.00     0.205 HD
ENDROOT
BRANCH   7  11
HETATM   11  C5  UNL     1      62.452  93.337   9.789  1.00  0.00     0.134 C 
HETATM   12  C6  UNL     1      62.870  92.397  10.900  1.00  0.00     0.027 C 
ENDBRANCH   7  11
BRANCH   9  13
HETATM   13  N4  UNL     1      62.415  91.408   6.112  1.00  0.00    -0.331 N 
ATOM     14  H42 UNL     1      61.656  91.183   5.467  1.00  0.00     0.177 HD
ATOM     15  H41 UNL     1      62.837  90.709   6.722  1.00  0.00     0.177 HD
ENDBRANCH   9  13
TORSDOF 2
ENDMDL
MODEL 3
REMARK VINA RESULT: 1.925443780      2.847      5.012
REMARK  2 active torsions:
REMARK  status: ('A' for Active; 'I' for Inactive)
REMARK       I    between atoms: N1_4  and  C4_6 
REMARK       I    between atoms: C4_6  and  N3_11 
REMARK    1  A    between atoms: N2_7  and  C5_9 
REMARK    2  A    between atoms: N3_11  and  N4_13 
ROOT
HETATM    1  C1  UNL     1      56.164 101.532   4.198  1.00  0.00     0.018 C 
HETATM    2  C2  UNL     1      57.019 100.677   4.099  1.00  0.00    -0.072 C 
HETATM    3  C3  UNL     1      58.032  99.678   3.962  1.00  0.00     0.170 C 
HETATM    4  N1  UNL     1      59.277  99.981   3.838  1.00  0.00    -0.193 N 
ATOM      5  H1  UNL     1      59.559 100.961   3.836  1.00  0.00     0.184 HD
HETATM    6  C4  UNL     1      60.250  98.976   3.704  1.00  0.00     0.692 C 
HETATM    7  N2  UNL     1      61.439  99.027   4.154  1.00  0.00    -0.225 N 
ATOM      8  H2  UNL     1      62.030  98.215   3.976  1.00  0.00     0.177 HD
HETATM    9  N3  UNL     1      59.859  97.797   3.000  1.00  0.00    -0.139 N 
ATOM     10  H3  UNL     1      59.259  97.843   2.175  1.00  0.00     0.205 HD
ENDROOT
BRANCH   7  11
HETATM   11  C5  UNL     1      62.033 100.103   4.882  1.00  0.00     0.134 C 
HETATM   12  C6  UNL     1      61.820 101.451   4.227  1.00  0.00     0.027 C 
ENDBRANCH   7  11
BRANCH   9  13
HETATM   13  N4  UNL     1      60.332  96.580   3.488  1.00  0.00    -0.331 N 
ATOM     14  H42 UNL     1      60.780  96.527   4.403  1.00  0.00     0.177 HD
ATOM     15  H41 UNL     1      60.207  95.761   2.893  1.00  0.00     0.177 HD
ENDBRANCH   9  13
TORSDOF 2
ENDMDL
MODEL 4
REMARK VINA RESULT: 2.057842718      1.608      2.884
REMARK  2 active torsions:
REMARK  status: ('A' for Active; 'I' for Inactive)
REMARK       I    between atoms: N1_4  and  C4_6 
REMARK       I    between atoms: C4_6  and  N3_11 
REMARK    1  A    between atoms: N2_7  and  C5_9 
REMARK    2  A    between atoms: N3_11  and  N4_13 
ROOT
HETATM    1  C1  UNL     1      62.142  94.892   7.165  1.00  0.00     0.018 C 
HETATM    2  C2  UNL     1      61.524  95.454   6.286  1.00  0.00    -0.072 C 
HETATM    3  C3  UNL     1      60.781  96.124   5.264  1.00  0.00     0.170 C 
HETATM    4  N1  UNL     1      60.614  97.400   5.269  1.00  0.00    -0.193 N 
ATOM      5  H1  UNL     1      61.019  97.959   6.019  1.00  0.00     0.184 HD
HETATM    6  C4  UNL     1      59.878  98.030   4.251  1.00  0.00     0.692 C 
HETATM    7  N2  UNL     1      60.104  99.190   3.778  1.00  0.00    -0.225 N 
ATOM      8  H2  UNL     1      59.479  99.511   3.038  1.00  0.00     0.177 HD
HETATM    9  N3  UNL     1      58.781  97.295   3.706  1.00  0.00    -0.139 N 
ATOM     10  H3  UNL     1      58.179  96.721   4.296  1.00  0.00     0.205 HD
ENDROOT
BRANCH   7  11
HETATM   11  C5  UNL     1      61.140 100.088   4.175  1.00  0.00     0.134 C 
HETATM   12  C6  UNL     1      60.835 101.532   3.837  1.00  0.00     0.027 C 
ENDBRANCH   7  11
BRANCH   9  13
HETATM   13  N4  UNL     1      58.570  97.396   2.332  1.00  0.00    -0.331 N 
ATOM     14  H42 UNL     1      58.912  98.205   1.813  1.00  0.00     0.177 HD
ATOM     15  H41 UNL     1      58.066  96.632   1.882  1.00  0.00     0.177 HD
ENDBRANCH   9  13
TORSDOF 2
ENDMDL
MODEL 5
REMARK VINA RESULT: 2.151858002      2.279      3.553
REMARK  2 active torsions:
REMARK  status: ('A' for Active; 'I' for Inactive)
REMARK       I    between atoms: N1_4  and  C4_6 
REMARK       I    between atoms: C4_6  and  N3_11 
REMARK    1  A    between atoms: N2_7  and  C5_9 
REMARK    2  A    between atoms: N3_11  and  N4_13 
ROOT
HETATM    1  C1  UNL     1      57.035  95.957   2.453  1.00  0.00     0.018 C 
HETATM    2  C2  UNL     1      57.960  96.450   3.064  1.00  0.00    -0.072 C 
HETATM    3  C3  UNL     1      59.063  97.027   3.767  1.00  0.00     0.170 C 
HETATM    4  N1  UNL     1      59.646  98.099   3.358  1.00  0.00    -0.193 N 
ATOM      5  H1  UNL     1      59.319  98.558   2.508  1.00  0.00     0.184 HD
HETATM    6  C4  UNL     1      60.729  98.643   4.070  1.00  0.00     0.692 C 
HETATM    7  N2  UNL     1      60.999  99.881   4.181  1.00  0.00    -0.225 N 
ATOM      8  H2  UNL     1      61.823 100.120   4.734  1.00  0.00     0.177 HD
HETATM    9  N3  UNL     1      61.595  97.714   4.723  1.00  0.00    -0.139 N 
ATOM     10  H3  UNL     1      61.847  96.825   4.290  1.00  0.00     0.205 HD
ENDROOT
BRANCH   7  11
HETATM   11  C5  UNL     1      60.271 100.970   3.614  1.00  0.00     0.134 C 
HETATM   12  C6  UNL     1      58.771 100.785   3.693  1.00  0.00     0.027 C 
ENDBRANCH   7  11
BRANCH   9  13
HETATM   13  N4  UNL     1      62.083  98.076   5.977  1.00  0.00    -0.331 N 
ATOM     14  H42 UNL     1      62.662  98.908   6.089  1.00  0.00     0.177 HD
ATOM     15  H41 UNL     1      61.833  97.475   6.763  1.00  0.00     0.177 HD
ENDBRANCH   9  13
TORSDOF 2
ENDMDL
