MODEL 1
REMARK VINA RESULT: -9.152979165      0.000      0.000
REMARK  4 active torsions:
REMARK  status: ('A' for Active; 'I' for Inactive)
REMARK    1  A    between atoms: N1_1  and  C1_5 
REMARK    2  A    between atoms: C16_37  and  O6_38 
REMARK    3  A    between atoms: C18_41  and  O7_42 
REMARK    4  A    between atoms: C20_47  and  O8_48 
ROOT
HETATM    1  C1  UNL     1       3.861  -3.094   6.637  1.00  0.00     0.219 C 
HETATM    2  C2  UNL     1       3.878  -1.614   6.338  1.00  0.00     0.114 C 
HETATM    3  C3  UNL     1       4.851  -0.871   7.171  1.00  0.00     0.117 A 
HETATM    4  N2  UNL     1       5.347  -1.117   8.390  1.00  0.00    -0.272 N 
ATOM      5  H2  UNL     1       5.106  -1.919   8.972  1.00  0.00     0.190 HD
HETATM    6  N3  UNL     1       6.190  -0.170   8.721  1.00  0.00    -0.227 N 
ATOM      7  H3  UNL     1       6.709  -0.114   9.597  1.00  0.00     0.210 HD
HETATM    8  N4  UNL     1       6.254   0.694   7.736  1.00  0.00    -0.225 N 
ATOM      9  H4  UNL     1       6.828   1.537   7.711  1.00  0.00     0.210 HD
HETATM   10  N5  UNL     1       5.441   0.276   6.783  1.00  0.00    -0.263 N 
HETATM   11  C4  UNL     1       5.134   0.864   5.471  1.00  0.00     0.162 C 
HETATM   12  C5  UNL     1       5.241   2.374   5.573  1.00  0.00     0.096 C 
HETATM   13  S1  UNL     1       6.336   3.002   4.272  1.00  0.00    -0.158 SA
HETATM   14  C6  UNL     1       7.951   2.217   4.337  1.00  0.00     0.176 C 
HETATM   15  C7  UNL     1       8.749   2.821   5.437  1.00  0.00     0.226 C 
HETATM   16  O1  UNL     1       8.204   3.592   6.249  1.00  0.00    -0.273 OA
HETATM   17  N6  UNL     1      10.146   2.487   5.525  1.00  0.00    -0.358 N 
ATOM     18  H6  UNL     1      10.789   3.117   6.006  1.00  0.00     0.162 HD
HETATM   19  C8  UNL     1      10.652   1.252   4.929  1.00  0.00     0.149 C 
HETATM   20  C9  UNL     1      11.781   0.713   5.751  1.00  0.00     0.198 C 
HETATM   21  O2  UNL     1      11.337  -0.131   6.796  1.00  0.00    -0.319 OA
HETATM   22  C10 UNL     1      11.428  -1.512   6.737  1.00  0.00     0.276 C 
HETATM   23  O3  UNL     1      11.745  -2.252   7.700  1.00  0.00    -0.263 OA
HETATM   24  C11 UNL     1      11.128  -2.170   5.437  1.00  0.00     0.233 C 
HETATM   25  N7  UNL     1      11.914  -3.365   5.252  1.00  0.00    -0.350 N 
ATOM     26  H7  UNL     1      12.790  -3.422   5.772  1.00  0.00     0.163 HD
HETATM   27  C12 UNL     1      11.593  -4.462   4.425  1.00  0.00     0.242 C 
HETATM   28  O4  UNL     1      12.441  -4.873   3.555  1.00  0.00    -0.271 OA
HETATM   29  C13 UNL     1      10.328  -5.232   4.449  1.00  0.00     0.280 C 
HETATM   30  O5  UNL     1       9.458  -4.662   5.381  1.00  0.00    -0.326 OA
HETATM   31  C14 UNL     1       8.080  -4.894   5.400  1.00  0.00     0.147 A 
HETATM   32  C15 UNL     1       7.331  -5.825   6.009  1.00  0.00     0.093 A 
HETATM   33  C16 UNL     1       5.906  -5.809   5.835  1.00  0.00     0.080 A 
HETATM   34  C17 UNL     1       5.311  -4.839   5.043  1.00  0.00     0.028 A 
HETATM   35  C18 UNL     1       6.095  -3.909   4.442  1.00  0.00     0.151 A 
HETATM   36  N8  UNL     1       7.461  -3.995   4.661  1.00  0.00    -0.317 N 
ATOM     37  H8  UNL     1       8.045  -3.294   4.205  1.00  0.00     0.170 HD
HETATM   38  C19 UNL     1       3.850  -4.818   4.860  1.00  0.00     0.079 C 
HETATM   39  C20 UNL     1       3.039  -3.895   5.723  1.00  0.00     0.153 C 
ENDROOT
BRANCH   1  40
HETATM   40  N1  UNL     1       3.329  -3.227   8.009  1.00  0.00    -0.072 N 
ATOM     41  H13 UNL     1       3.785  -2.613   8.684  1.00  0.00     0.274 HD
ATOM     42  H12 UNL     1       2.386  -2.852   8.118  1.00  0.00     0.274 HD
ATOM     43  H11 UNL     1       3.402  -4.216   8.245  1.00  0.00     0.274 HD
ENDBRANCH   1  40
BRANCH  39  44
HETATM   44  O8  UNL     1       2.056  -4.591   6.462  1.00  0.00    -0.393 OA
ATOM     45  H8  UNL     1       2.070  -5.510   6.220  1.00  0.00     0.210 HD
ENDBRANCH  39  44
BRANCH  33  46
HETATM   46  O6  UNL     1       5.392  -6.897   6.596  1.00  0.00    -0.360 OA
ATOM     47  H6  UNL     1       5.566  -7.685   6.093  1.00  0.00     0.217 HD
ENDBRANCH  33  46
BRANCH  35  48
HETATM   48  O7  UNL     1       5.961  -2.758   3.578  1.00  0.00    -0.346 OA
ATOM     49  H7  UNL     1       6.430  -1.960   3.366  1.00  0.00     0.219 HD
ENDBRANCH  35  48
TORSDOF 4
ENDMDL
MODEL 2
REMARK VINA RESULT: -9.046116322      2.667      6.836
REMARK  4 active torsions:
REMARK  status: ('A' for Active; 'I' for Inactive)
REMARK    1  A    between atoms: N1_1  and  C1_5 
REMARK    2  A    between atoms: C16_37  and  O6_38 
REMARK    3  A    between atoms: C18_41  and  O7_42 
REMARK    4  A    between atoms: C20_47  and  O8_48 
ROOT
HETATM    1  C1  UNL     1      10.950  -4.053   4.554  1.00  0.00     0.219 C 
HETATM    2  C2  UNL     1      10.592  -2.642   4.154  1.00  0.00     0.114 C 
HETATM    3  C3  UNL     1       9.370  -2.574   3.320  1.00  0.00     0.117 A 
HETATM    4  N2  UNL     1       8.811  -3.462   2.489  1.00  0.00    -0.272 N 
ATOM      5  H2  UNL     1       9.178  -4.393   2.290  1.00  0.00     0.190 HD
HETATM    6  N3  UNL     1       7.721  -2.953   1.969  1.00  0.00    -0.227 N 
ATOM      7  H3  UNL     1       7.105  -3.420   1.304  1.00  0.00     0.210 HD
HETATM    8  N4  UNL     1       7.558  -1.743   2.448  1.00  0.00    -0.225 N 
ATOM      9  H4  UNL     1       6.795  -1.104   2.222  1.00  0.00     0.210 HD
HETATM   10  N5  UNL     1       8.558  -1.500   3.275  1.00  0.00    -0.263 N 
HETATM   11  C4  UNL     1       8.858  -0.305   4.077  1.00  0.00     0.162 C 
HETATM   12  C5  UNL     1       8.359   0.921   3.337  1.00  0.00     0.096 C 
HETATM   13  S1  UNL     1       7.303   1.910   4.428  1.00  0.00    -0.158 SA
HETATM   14  C6  UNL     1       5.945   0.936   5.089  1.00  0.00     0.176 C 
HETATM   15  C7  UNL     1       4.895   0.784   4.048  1.00  0.00     0.226 C 
HETATM   16  O1  UNL     1       5.124   1.139   2.877  1.00  0.00    -0.273 OA
HETATM   17  N6  UNL     1       3.628   0.221   4.438  1.00  0.00    -0.358 N 
ATOM     18  H6  UNL     1       2.794   0.419   3.885  1.00  0.00     0.162 HD
HETATM   19  C8  UNL     1       3.529  -0.631   5.621  1.00  0.00     0.149 C 
HETATM   20  C9  UNL     1       2.485  -1.683   5.407  1.00  0.00     0.198 C 
HETATM   21  O2  UNL     1       3.002  -2.841   4.781  1.00  0.00    -0.319 OA
HETATM   22  C10 UNL     1       3.274  -4.011   5.472  1.00  0.00     0.276 C 
HETATM   23  O3  UNL     1       3.043  -5.168   5.042  1.00  0.00    -0.263 OA
HETATM   24  C11 UNL     1       3.884  -3.891   6.823  1.00  0.00     0.233 C 
HETATM   25  N7  UNL     1       3.456  -4.955   7.696  1.00  0.00    -0.350 N 
ATOM     26  H7  UNL     1       2.569  -5.405   7.470  1.00  0.00     0.163 HD
HETATM   27  C12 UNL     1       4.142  -5.438   8.831  1.00  0.00     0.242 C 
HETATM   28  O4  UNL     1       3.538  -5.508   9.959  1.00  0.00    -0.271 OA
HETATM   29  C13 UNL     1       5.550  -5.899   8.868  1.00  0.00     0.280 C 
HETATM   30  O5  UNL     1       6.128  -5.719   7.610  1.00  0.00    -0.326 OA
HETATM   31  C14 UNL     1       7.507  -5.697   7.386  1.00  0.00     0.147 A 
HETATM   32  C15 UNL     1       8.392  -6.667   7.107  1.00  0.00     0.093 A 
HETATM   33  C16 UNL     1       9.776  -6.330   6.927  1.00  0.00     0.080 A 
HETATM   34  C17 UNL     1      10.193  -5.013   7.043  1.00  0.00     0.028 A 
HETATM   35  C18 UNL     1       9.276  -4.054   7.324  1.00  0.00     0.151 A 
HETATM   36  N8  UNL     1       7.960  -4.463   7.482  1.00  0.00    -0.317 N 
ATOM     37  H8  UNL     1       7.276  -3.737   7.694  1.00  0.00     0.170 HD
HETATM   38  C19 UNL     1      11.612  -4.661   6.862  1.00  0.00     0.079 C 
HETATM   39  C20 UNL     1      12.052  -4.157   5.518  1.00  0.00     0.153 C 
ENDROOT
BRANCH   1  40
HETATM   40  N1  UNL     1      11.332  -4.747   3.307  1.00  0.00    -0.072 N 
ATOM     41  H13 UNL     1      10.539  -5.145   2.803  1.00  0.00     0.274 HD
ATOM     42  H12 UNL     1      11.643  -4.115   2.569  1.00  0.00     0.274 HD
ATOM     43  H11 UNL     1      12.033  -5.438   3.573  1.00  0.00     0.274 HD
ENDBRANCH   1  40
BRANCH  39  44
HETATM   44  O8  UNL     1      13.085  -4.949   4.968  1.00  0.00    -0.393 OA
ATOM     45  H8  UNL     1      13.893  -4.786   5.440  1.00  0.00     0.210 HD
ENDBRANCH  39  44
BRANCH  33  46
HETATM   46  O6  UNL     1      10.455  -7.548   6.641  1.00  0.00    -0.360 OA
ATOM     47  H6  UNL     1      11.062  -7.694   7.358  1.00  0.00     0.217 HD
ENDBRANCH  33  46
BRANCH  35  48
HETATM   48  O7  UNL     1       9.213  -2.624   7.525  1.00  0.00    -0.346 OA
ATOM     49  H7  UNL     1       8.598  -1.966   7.824  1.00  0.00     0.219 HD
ENDBRANCH  35  48
TORSDOF 4
ENDMDL
MODEL 3
REMARK VINA RESULT: -8.960900322      2.350      6.562
REMARK  4 active torsions:
REMARK  status: ('A' for Active; 'I' for Inactive)
REMARK    1  A    between atoms: N1_1  and  C1_5 
REMARK    2  A    between atoms: C16_37  and  O6_38 
REMARK    3  A    between atoms: C18_41  and  O7_42 
REMARK    4  A    between atoms: C20_47  and  O8_48 
ROOT
HETATM    1  C1  UNL     1      11.268  -3.901   4.795  1.00  0.00     0.219 C 
HETATM    2  C2  UNL     1      11.424  -2.419   4.556  1.00  0.00     0.114 C 
HETATM    3  C3  UNL     1      10.455  -1.892   3.568  1.00  0.00     0.117 A 
HETATM    4  N2  UNL     1       9.827  -2.477   2.541  1.00  0.00    -0.272 N 
ATOM      5  H2  UNL     1       9.934  -3.454   2.265  1.00  0.00     0.190 HD
HETATM    6  N3  UNL     1       9.054  -1.605   1.942  1.00  0.00    -0.227 N 
ATOM      7  H3  UNL     1       8.464  -1.789   1.131  1.00  0.00     0.210 HD
HETATM    8  N4  UNL     1       9.166  -0.455   2.563  1.00  0.00    -0.225 N 
ATOM      9  H4  UNL     1       8.682   0.410   2.321  1.00  0.00     0.210 HD
HETATM   10  N5  UNL     1      10.019  -0.618   3.559  1.00  0.00    -0.263 N 
HETATM   11  C4  UNL     1      10.501   0.342   4.563  1.00  0.00     0.162 C 
HETATM   12  C5  UNL     1      10.533   1.726   3.943  1.00  0.00     0.096 C 
HETATM   13  S1  UNL     1       9.630   2.892   4.996  1.00  0.00    -0.158 SA
HETATM   14  C6  UNL     1       7.946   2.338   5.295  1.00  0.00     0.176 C 
HETATM   15  C7  UNL     1       7.113   2.622   4.097  1.00  0.00     0.226 C 
HETATM   16  O1  UNL     1       7.654   2.995   3.039  1.00  0.00    -0.273 OA
HETATM   17  N6  UNL     1       5.688   2.454   4.205  1.00  0.00    -0.358 N 
ATOM     18  H6  UNL     1       5.068   2.955   3.568  1.00  0.00     0.162 HD
HETATM   19  C8  UNL     1       5.121   1.571   5.222  1.00  0.00     0.149 C 
HETATM   20  C9  UNL     1       3.874   0.927   4.702  1.00  0.00     0.198 C 
HETATM   21  O2  UNL     1       4.135  -0.272   3.998  1.00  0.00    -0.319 OA
HETATM   22  C10 UNL     1       3.916  -1.527   4.543  1.00  0.00     0.276 C 
HETATM   23  O3  UNL     1       3.440  -2.507   3.919  1.00  0.00    -0.263 OA
HETATM   24  C11 UNL     1       4.268  -1.731   5.974  1.00  0.00     0.233 C 
HETATM   25  N7  UNL     1       3.390  -2.683   6.607  1.00  0.00    -0.350 N 
ATOM     26  H7  UNL     1       2.468  -2.806   6.187  1.00  0.00     0.163 HD
HETATM   27  C12 UNL     1       3.677  -3.461   7.749  1.00  0.00     0.242 C 
HETATM   28  O4  UNL     1       2.877  -3.440   8.751  1.00  0.00    -0.271 OA
HETATM   29  C13 UNL     1       4.853  -4.343   7.930  1.00  0.00     0.280 C 
HETATM   30  O5  UNL     1       5.685  -4.239   6.813  1.00  0.00    -0.326 OA
HETATM   31  C14 UNL     1       7.026  -4.632   6.805  1.00  0.00     0.147 A 
HETATM   32  C15 UNL     1       7.622  -5.801   6.523  1.00  0.00     0.093 A 
HETATM   33  C16 UNL     1       9.051  -5.902   6.605  1.00  0.00     0.080 A 
HETATM   34  C17 UNL     1       9.808  -4.801   6.974  1.00  0.00     0.028 A 
HETATM   35  C18 UNL     1       9.178  -3.632   7.251  1.00  0.00     0.151 A 
HETATM   36  N8  UNL     1       7.795  -3.618   7.148  1.00  0.00    -0.317 N 
ATOM     37  H8  UNL     1       7.327  -2.736   7.359  1.00  0.00     0.170 HD
HETATM   38  C19 UNL     1      11.275  -4.899   7.062  1.00  0.00     0.079 C 
HETATM   39  C20 UNL     1      12.089  -4.436   5.888  1.00  0.00     0.153 C 
ENDROOT
BRANCH   1  40
HETATM   40  N1  UNL     1      11.657  -4.561   3.532  1.00  0.00    -0.072 N 
ATOM     41  H13 UNL     1      12.366  -5.285   3.652  1.00  0.00     0.274 HD
ATOM     42  H12 UNL     1      10.929  -5.164   3.147  1.00  0.00     0.274 HD
ATOM     43  H11 UNL     1      11.942  -3.813   2.900  1.00  0.00     0.274 HD
ENDBRANCH   1  40
BRANCH  39  44
HETATM   44  O8  UNL     1      12.927  -5.459   5.390  1.00  0.00    -0.393 OA
ATOM     45  H8  UNL     1      13.032  -6.132   6.052  1.00  0.00     0.210 HD
ENDBRANCH  39  44
BRANCH  33  46
HETATM   46  O6  UNL     1       9.383  -7.240   6.249  1.00  0.00    -0.360 OA
ATOM     47  H6  UNL     1      10.316  -7.247   6.066  1.00  0.00     0.217 HD
ENDBRANCH  33  46
BRANCH  35  48
HETATM   48  O7  UNL     1       9.502  -2.281   7.647  1.00  0.00    -0.346 OA
ATOM     49  H7  UNL     1       9.179  -1.397   7.520  1.00  0.00     0.219 HD
ENDBRANCH  35  48
TORSDOF 4
ENDMDL
MODEL 4
REMARK VINA RESULT: -8.912536269      3.456      6.005
REMARK  4 active torsions:
REMARK  status: ('A' for Active; 'I' for Inactive)
REMARK    1  A    between atoms: N1_1  and  C1_5 
REMARK    2  A    between atoms: C16_37  and  O6_38 
REMARK    3  A    between atoms: C18_41  and  O7_42 
REMARK    4  A    between atoms: C20_47  and  O8_48 
ROOT
HETATM    1  C1  UNL     1       2.909  -3.469   5.522  1.00  0.00     0.219 C 
HETATM    2  C2  UNL     1       3.390  -4.186   6.761  1.00  0.00     0.114 C 
HETATM    3  C3  UNL     1       4.312  -5.304   6.456  1.00  0.00     0.117 A 
HETATM    4  N2  UNL     1       4.434  -6.084   5.375  1.00  0.00    -0.272 N 
ATOM      5  H2  UNL     1       3.861  -6.018   4.534  1.00  0.00     0.190 HD
HETATM    6  N3  UNL     1       5.403  -6.947   5.563  1.00  0.00    -0.227 N 
ATOM      7  H3  UNL     1       5.705  -7.657   4.896  1.00  0.00     0.210 HD
HETATM    8  N4  UNL     1       5.917  -6.743   6.752  1.00  0.00    -0.225 N 
ATOM      9  H4  UNL     1       6.687  -7.265   7.173  1.00  0.00     0.210 HD
HETATM   10  N5  UNL     1       5.259  -5.741   7.307  1.00  0.00    -0.263 N 
HETATM   11  C4  UNL     1       5.428  -5.109   8.624  1.00  0.00     0.162 C 
HETATM   12  C5  UNL     1       5.909  -6.154   9.613  1.00  0.00     0.096 C 
HETATM   13  S1  UNL     1       7.397  -5.558  10.458  1.00  0.00    -0.158 SA
HETATM   14  C6  UNL     1       8.685  -5.110   9.287  1.00  0.00     0.176 C 
HETATM   15  C7  UNL     1       9.345  -6.343   8.784  1.00  0.00     0.226 C 
HETATM   16  O1  UNL     1       8.858  -7.459   9.044  1.00  0.00    -0.273 OA
HETATM   17  N6  UNL     1      10.544  -6.201   8.000  1.00  0.00    -0.358 N 
ATOM     18  H6  UNL     1      11.205  -6.975   7.940  1.00  0.00     0.162 HD
HETATM   19  C8  UNL     1      10.820  -4.954   7.289  1.00  0.00     0.149 C 
HETATM   20  C9  UNL     1      11.547  -5.244   6.013  1.00  0.00     0.198 C 
HETATM   21  O2  UNL     1      10.668  -5.506   4.936  1.00  0.00    -0.319 OA
HETATM   22  C10 UNL     1      10.396  -4.576   3.945  1.00  0.00     0.276 C 
HETATM   23  O3  UNL     1      10.277  -4.844   2.724  1.00  0.00    -0.263 OA
HETATM   24  C11 UNL     1      10.233  -3.155   4.354  1.00  0.00     0.233 C 
HETATM   25  N7  UNL     1      10.690  -2.251   3.329  1.00  0.00    -0.350 N 
ATOM     26  H7  UNL     1      11.377  -2.616   2.669  1.00  0.00     0.163 HD
HETATM   27  C12 UNL     1      10.283  -0.913   3.147  1.00  0.00     0.242 C 
HETATM   28  O4  UNL     1      11.163   0.017   3.074  1.00  0.00    -0.271 OA
HETATM   29  C13 UNL     1       8.886  -0.435   3.021  1.00  0.00     0.280 C 
HETATM   30  O5  UNL     1       8.014  -1.514   3.180  1.00  0.00    -0.326 OA
HETATM   31  C14 UNL     1       6.657  -1.376   3.486  1.00  0.00     0.147 A 
HETATM   32  C15 UNL     1       5.567  -1.247   2.713  1.00  0.00     0.093 A 
HETATM   33  C16 UNL     1       4.276  -1.120   3.329  1.00  0.00     0.080 A 
HETATM   34  C17 UNL     1       4.160  -1.131   4.711  1.00  0.00     0.028 A 
HETATM   35  C18 UNL     1       5.279  -1.266   5.465  1.00  0.00     0.151 A 
HETATM   36  N8  UNL     1       6.486  -1.382   4.792  1.00  0.00    -0.317 N 
ATOM     37  H8  UNL     1       7.324  -1.482   5.365  1.00  0.00     0.170 HD
HETATM   38  C19 UNL     1       2.838  -0.999   5.349  1.00  0.00     0.079 C 
HETATM   39  C20 UNL     1       2.132  -2.252   5.781  1.00  0.00     0.153 C 
ENDROOT
BRANCH   1  40
HETATM   40  N1  UNL     1       2.064  -4.436   4.793  1.00  0.00    -0.072 N 
ATOM     41  H13 UNL     1       2.453  -4.719   3.893  1.00  0.00     0.274 HD
ATOM     42  H12 UNL     1       2.049  -5.364   5.217  1.00  0.00     0.274 HD
ATOM     43  H11 UNL     1       1.142  -4.007   4.720  1.00  0.00     0.274 HD
ENDBRANCH   1  40
BRANCH  39  44
HETATM   44  O8  UNL     1       0.857  -2.371   5.183  1.00  0.00    -0.393 OA
ATOM     45  H8  UNL     1       0.351  -1.586   5.356  1.00  0.00     0.210 HD
ENDBRANCH  39  44
BRANCH  33  46
HETATM   46  O6  UNL     1       3.332  -1.007   2.271  1.00  0.00    -0.360 OA
ATOM     47  H6  UNL     1       3.161  -1.890   1.965  1.00  0.00     0.217 HD
ENDBRANCH  33  46
BRANCH  35  48
HETATM   48  O7  UNL     1       5.659  -1.338   6.858  1.00  0.00    -0.346 OA
ATOM     49  H7  UNL     1       6.135  -0.828   7.501  1.00  0.00     0.219 HD
ENDBRANCH  35  48
TORSDOF 4
ENDMDL
MODEL 5
REMARK VINA RESULT: -8.835180947      3.528      6.088
REMARK  4 active torsions:
REMARK  status: ('A' for Active; 'I' for Inactive)
REMARK    1  A    between atoms: N1_1  and  C1_5 
REMARK    2  A    between atoms: C16_37  and  O6_38 
REMARK    3  A    between atoms: C18_41  and  O7_42 
REMARK    4  A    between atoms: C20_47  and  O8_48 
ROOT
HETATM    1  C1  UNL     1       2.859   2.216   2.633  1.00  0.00     0.219 C 
HETATM    2  C2  UNL     1       4.205   2.752   3.056  1.00  0.00     0.114 C 
HETATM    3  C3  UNL     1       4.362   2.815   4.528  1.00  0.00     0.117 A 
HETATM    4  N2  UNL     1       3.464   2.952   5.511  1.00  0.00    -0.272 N 
ATOM      5  H2  UNL     1       2.456   3.041   5.379  1.00  0.00     0.190 HD
HETATM    6  N3  UNL     1       4.076   2.954   6.669  1.00  0.00    -0.227 N 
ATOM      7  H3  UNL     1       3.628   3.044   7.580  1.00  0.00     0.210 HD
HETATM    8  N4  UNL     1       5.364   2.821   6.459  1.00  0.00    -0.225 N 
ATOM      9  H4  UNL     1       6.091   2.789   7.174  1.00  0.00     0.210 HD
HETATM   10  N5  UNL     1       5.551   2.734   5.154  1.00  0.00    -0.263 N 
HETATM   11  C4  UNL     1       6.791   2.575   4.381  1.00  0.00     0.162 C 
HETATM   12  C5  UNL     1       7.924   3.261   5.122  1.00  0.00     0.096 C 
HETATM   13  S1  UNL     1       9.308   2.110   5.329  1.00  0.00    -0.158 SA
HETATM   14  C6  UNL     1       8.791   0.602   6.158  1.00  0.00     0.176 C 
HETATM   15  C7  UNL     1       8.659   0.860   7.616  1.00  0.00     0.226 C 
HETATM   16  O1  UNL     1       8.719   2.027   8.048  1.00  0.00    -0.273 OA
HETATM   17  N6  UNL     1       8.463  -0.266   8.491  1.00  0.00    -0.358 N 
ATOM     18  H6  UNL     1       8.718  -0.193   9.476  1.00  0.00     0.162 HD
HETATM   19  C8  UNL     1       7.902  -1.514   7.978  1.00  0.00     0.149 C 
HETATM   20  C9  UNL     1       7.072  -2.174   9.034  1.00  0.00     0.198 C 
HETATM   21  O2  UNL     1       5.730  -1.725   9.029  1.00  0.00    -0.319 OA
HETATM   22  C10 UNL     1       4.690  -2.472   8.501  1.00  0.00     0.276 C 
HETATM   23  O3  UNL     1       3.546  -2.567   9.008  1.00  0.00    -0.263 OA
HETATM   24  C11 UNL     1       4.945  -3.218   7.239  1.00  0.00     0.233 C 
HETATM   25  N7  UNL     1       4.188  -4.444   7.184  1.00  0.00    -0.350 N 
ATOM     26  H7  UNL     1       3.899  -4.845   8.077  1.00  0.00     0.163 HD
HETATM   27  C12 UNL     1       3.806  -5.144   6.021  1.00  0.00     0.242 C 
HETATM   28  O4  UNL     1       4.090  -6.389   5.904  1.00  0.00    -0.271 OA
HETATM   29  C13 UNL     1       3.078  -4.578   4.862  1.00  0.00     0.280 C 
HETATM   30  O5  UNL     1       2.879  -3.211   5.063  1.00  0.00    -0.326 OA
HETATM   31  C14 UNL     1       2.567  -2.312   4.040  1.00  0.00     0.147 A 
HETATM   32  C15 UNL     1       1.398  -1.902   3.525  1.00  0.00     0.093 A 
HETATM   33  C16 UNL     1       1.394  -0.949   2.452  1.00  0.00     0.080 A 
HETATM   34  C17 UNL     1       2.591  -0.458   1.952  1.00  0.00     0.028 A 
HETATM   35  C18 UNL     1       3.757  -0.890   2.494  1.00  0.00     0.151 A 
HETATM   36  N8  UNL     1       3.673  -1.811   3.527  1.00  0.00    -0.317 N 
ATOM     37  H8  UNL     1       4.553  -2.132   3.930  1.00  0.00     0.170 HD
HETATM   38  C19 UNL     1       2.594   0.519   0.849  1.00  0.00     0.079 C 
HETATM   39  C20 UNL     1       2.719   1.975   1.192  1.00  0.00     0.153 C 
ENDROOT
BRANCH   1  40
HETATM   40  N1  UNL     1       1.867   3.228   3.052  1.00  0.00    -0.072 N 
ATOM     41  H13 UNL     1       1.389   2.994   3.922  1.00  0.00     0.274 HD
ATOM     42  H12 UNL     1       2.288   4.101   3.373  1.00  0.00     0.274 HD
ATOM     43  H11 UNL     1       1.236   3.348   2.260  1.00  0.00     0.274 HD
ENDBRANCH   1  40
BRANCH  39  44
HETATM   44  O8  UNL     1       1.635   2.730   0.691  1.00  0.00    -0.393 OA
ATOM     45  H8  UNL     1       1.948   3.581   0.405  1.00  0.00     0.210 HD
ENDBRANCH  39  44
BRANCH  33  46
HETATM   46  O6  UNL     1       0.029  -0.708   2.128  1.00  0.00    -0.360 OA
ATOM     47  H6  UNL     1      -0.018  -0.652   1.180  1.00  0.00     0.217 HD
ENDBRANCH  33  46
BRANCH  35  48
HETATM   48  O7  UNL     1       5.179  -0.684   2.339  1.00  0.00    -0.346 OA
ATOM     49  H7  UNL     1       5.781  -0.002   2.066  1.00  0.00     0.219 HD
ENDBRANCH  35  48
TORSDOF 4
ENDMDL
