MODEL 1
REMARK VINA RESULT: -9.457112126      0.000      0.000
REMARK  3 active torsions:
REMARK  status: ('A' for Active; 'I' for Inactive)
REMARK    1  A    between atoms: O1_2  and  C2_3 
REMARK    2  A    between atoms: C2_3  and  C3_5 
REMARK    3  A    between atoms: C12_21  and  O7_22 
ROOT
HETATM    1  C3  UNL     1       4.139  -0.965   2.865  1.00  0.00     0.150 C 
HETATM    2  C4  UNL     1       5.250  -0.656   3.540  1.00  0.00     0.174 C 
HETATM    3  O3  UNL     1       5.726  -1.537   4.513  1.00  0.00    -0.302 OA
HETATM    4  C5  UNL     1       4.802  -2.284   5.255  1.00  0.00     0.369 C 
HETATM    5  O4  UNL     1       5.260  -3.010   6.313  1.00  0.00    -0.280 OA
HETATM    6  C6  UNL     1       6.353  -3.742   6.596  1.00  0.00     0.261 C 
HETATM    7  O5  UNL     1       7.262  -3.374   7.390  1.00  0.00    -0.265 OA
HETATM    8  C7  UNL     1       6.549  -5.069   5.966  1.00  0.00     0.112 C 
HETATM    9  C8  UNL     1       7.641  -5.800   6.707  1.00  0.00     0.020 C 
HETATM   10  C9  UNL     1       8.129  -7.038   6.047  1.00  0.00     0.075 C 
HETATM   11  S1  UNL     1       9.867  -7.001   5.571  1.00  0.00    -0.160 SA
HETATM   12  C10 UNL     1      10.960  -7.450   6.949  1.00  0.00     0.176 C 
HETATM   13  C11 UNL     1      12.367  -7.004   6.675  1.00  0.00     0.228 C 
HETATM   14  O6  UNL     1      13.160  -7.891   6.267  1.00  0.00    -0.273 OA
HETATM   15  N1  UNL     1      12.771  -5.658   6.868  1.00  0.00    -0.334 N 
ATOM     16  H1  UNL     1      13.765  -5.465   6.989  1.00  0.00     0.165 HD
HETATM   17  C12 UNL     1      11.848  -4.546   6.903  1.00  0.00     0.221 C 
HETATM   18  C13 UNL     1      12.575  -3.241   6.830  1.00  0.00     0.073 C 
HETATM   19  C14 UNL     1      11.843  -2.238   5.953  1.00  0.00     0.142 C 
HETATM   20  N2  UNL     1      10.497  -2.690   5.683  1.00  0.00    -0.224 N 
ATOM     21  H2  UNL     1       9.972  -3.082   6.465  1.00  0.00     0.177 HD
HETATM   22  C15 UNL     1       9.835  -2.635   4.419  1.00  0.00     0.707 A 
HETATM   23  N3  UNL     1       9.331  -3.672   3.715  1.00  0.00    -0.117 N 
ATOM     24  H3  UNL     1       9.350  -4.657   3.977  1.00  0.00     0.206 HD
HETATM   25  N4  UNL     1       8.808  -3.154   2.620  1.00  0.00    -0.116 N 
ATOM     26  H4  UNL     1       8.350  -3.691   1.884  1.00  0.00     0.206 HD
HETATM   27  C16 UNL     1       8.965  -1.824   2.611  1.00  0.00     0.727 A 
HETATM   28  N5  UNL     1       9.611  -1.508   3.743  1.00  0.00    -0.018 N 
ATOM     29  H5  UNL     1       9.882  -0.569   4.036  1.00  0.00     0.203 HD
HETATM   30  N6  UNL     1       8.585  -0.826   1.666  1.00  0.00    -0.116 N 
ATOM     31  H6  UNL     1       8.926  -0.982   0.718  1.00  0.00     0.207 HD
HETATM   32  N7  UNL     1       7.917   0.185   1.809  1.00  0.00    -0.225 N 
ATOM     33  H7  UNL     1       7.816   0.709   0.939  1.00  0.00     0.209 HD
HETATM   34  N8  UNL     1       7.271   0.788   2.854  1.00  0.00    -0.249 N 
ATOM     35  H8  UNL     1       7.820   1.441   3.414  1.00  0.00     0.192 HD
HETATM   36  C17 UNL     1       5.924   0.601   3.239  1.00  0.00     0.297 C 
HETATM   37  O8  UNL     1       5.123   1.614   3.365  1.00  0.00    -0.264 OA
HETATM   38  C18 UNL     1       3.974  -3.011   4.255  1.00  0.00     0.278 C 
HETATM   39  O9  UNL     1       3.728  -4.228   4.276  1.00  0.00    -0.268 OA
HETATM   40  N9  UNL     1       3.451  -2.196   3.220  1.00  0.00    -0.315 N 
ATOM     41  H9  UNL     1       2.601  -2.470   2.728  1.00  0.00     0.169 HD
ENDROOT
BRANCH   1  42
HETATM   42  C2  UNL     1       3.552  -0.152   1.831  1.00  0.00     0.312 C 
HETATM   43  O2  UNL     1       4.010   0.076   0.714  1.00  0.00    -0.258 OA
BRANCH  42  44
HETATM   44  O1  UNL     1       2.310   0.481   2.076  1.00  0.00    -0.321 OA
HETATM   45  C1  UNL     1       1.128   0.093   1.423  1.00  0.00     0.213 C 
ENDBRANCH  42  44
ENDBRANCH   1  42
BRANCH  17  46
HETATM   46  O7  UNL     1      11.142  -4.601   8.102  1.00  0.00    -0.377 OA
ATOM     47  H7  UNL     1      10.933  -3.712   8.366  1.00  0.00     0.212 HD
ENDBRANCH  17  46
TORSDOF 3
ENDMDL
MODEL 2
REMARK VINA RESULT: -9.341001914      2.457      8.257
REMARK  3 active torsions:
REMARK  status: ('A' for Active; 'I' for Inactive)
REMARK    1  A    between atoms: O1_2  and  C2_3 
REMARK    2  A    between atoms: C2_3  and  C3_5 
REMARK    3  A    between atoms: C12_21  and  O7_22 
ROOT
HETATM    1  C3  UNL     1      10.701  -7.175   6.326  1.00  0.00     0.150 C 
HETATM    2  C4  UNL     1      10.250  -6.636   5.190  1.00  0.00     0.174 C 
HETATM    3  O3  UNL     1       8.953  -6.121   5.145  1.00  0.00    -0.302 OA
HETATM    4  C5  UNL     1       7.957  -6.738   5.914  1.00  0.00     0.369 C 
HETATM    5  O4  UNL     1       6.666  -6.341   5.736  1.00  0.00    -0.280 OA
HETATM    6  C6  UNL     1       6.023  -5.182   5.503  1.00  0.00     0.261 C 
HETATM    7  O5  UNL     1       5.505  -4.873   4.395  1.00  0.00    -0.265 OA
HETATM    8  C7  UNL     1       5.886  -4.173   6.579  1.00  0.00     0.112 C 
HETATM    9  C8  UNL     1       4.849  -3.160   6.163  1.00  0.00     0.020 C 
HETATM   10  C9  UNL     1       4.775  -1.947   7.019  1.00  0.00     0.075 C 
HETATM   11  S1  UNL     1       5.161  -0.403   6.171  1.00  0.00    -0.160 SA
HETATM   12  C10 UNL     1       3.720   0.273   5.300  1.00  0.00     0.176 C 
HETATM   13  C11 UNL     1       4.147   1.282   4.274  1.00  0.00     0.228 C 
HETATM   14  O6  UNL     1       4.028   2.491   4.603  1.00  0.00    -0.273 OA
HETATM   15  N1  UNL     1       4.656   0.888   3.010  1.00  0.00    -0.334 N 
ATOM     16  H1  UNL     1       4.625   1.564   2.246  1.00  0.00     0.165 HD
HETATM   17  C12 UNL     1       5.215  -0.419   2.748  1.00  0.00     0.221 C 
HETATM   18  C13 UNL     1       5.923  -0.447   1.431  1.00  0.00     0.073 C 
HETATM   19  C14 UNL     1       7.206  -1.259   1.500  1.00  0.00     0.142 C 
HETATM   20  N2  UNL     1       7.242  -2.046   2.712  1.00  0.00    -0.224 N 
ATOM     21  H2  UNL     1       6.382  -2.524   2.981  1.00  0.00     0.177 HD
HETATM   22  C15 UNL     1       8.374  -2.214   3.565  1.00  0.00     0.707 A 
HETATM   23  N3  UNL     1       8.465  -1.893   4.875  1.00  0.00    -0.117 N 
ATOM     24  H3  UNL     1       7.737  -1.475   5.455  1.00  0.00     0.206 HD
HETATM   25  N4  UNL     1       9.684  -2.229   5.252  1.00  0.00    -0.116 N 
ATOM     26  H4  UNL     1      10.055  -2.107   6.194  1.00  0.00     0.206 HD
HETATM   27  C16 UNL     1      10.364  -2.751   4.224  1.00  0.00     0.727 A 
HETATM   28  N5  UNL     1       9.534  -2.738   3.170  1.00  0.00    -0.018 N 
ATOM     29  H5  UNL     1       9.753  -3.071   2.231  1.00  0.00     0.203 HD
HETATM   30  N6  UNL     1      11.694  -3.255   4.119  1.00  0.00    -0.116 N 
ATOM     31  H6  UNL     1      12.422  -2.603   4.411  1.00  0.00     0.207 HD
HETATM   32  N7  UNL     1      12.102  -4.339   3.735  1.00  0.00    -0.225 N 
ATOM     33  H7  UNL     1      13.120  -4.405   3.774  1.00  0.00     0.209 HD
HETATM   34  N8  UNL     1      11.525  -5.488   3.267  1.00  0.00    -0.249 N 
ATOM     35  H8  UNL     1      11.362  -5.539   2.261  1.00  0.00     0.192 HD
HETATM   36  C17 UNL     1      11.132  -6.612   4.029  1.00  0.00     0.297 C 
HETATM   37  O8  UNL     1      11.559  -7.799   3.729  1.00  0.00    -0.264 OA
HETATM   38  C18 UNL     1       8.469  -6.740   7.312  1.00  0.00     0.278 C 
HETATM   39  O9  UNL     1       7.838  -6.348   8.307  1.00  0.00    -0.268 OA
HETATM   40  N9  UNL     1       9.787  -7.240   7.454  1.00  0.00    -0.315 N 
ATOM     41  H9  UNL     1      10.092  -7.642   8.341  1.00  0.00     0.169 HD
ENDROOT
BRANCH   1  42
HETATM   42  C2  UNL     1      12.020  -7.727   6.508  1.00  0.00     0.312 C 
HETATM   43  O2  UNL     1      12.341  -8.912   6.466  1.00  0.00    -0.258 OA
BRANCH  42  44
HETATM   44  O1  UNL     1      13.101  -6.853   6.769  1.00  0.00    -0.321 OA
HETATM   45  C1  UNL     1      13.101  -5.964   7.857  1.00  0.00     0.213 C 
ENDBRANCH  42  44
ENDBRANCH   1  42
BRANCH  17  46
HETATM   46  O7  UNL     1       4.172  -1.342   2.716  1.00  0.00    -0.377 OA
ATOM     47  H7  UNL     1       4.218  -1.871   3.504  1.00  0.00     0.212 HD
ENDBRANCH  17  46
TORSDOF 3
ENDMDL
MODEL 3
REMARK VINA RESULT: -8.917171761      4.362      5.981
REMARK  3 active torsions:
REMARK  status: ('A' for Active; 'I' for Inactive)
REMARK    1  A    between atoms: O1_2  and  C2_3 
REMARK    2  A    between atoms: C2_3  and  C3_5 
REMARK    3  A    between atoms: C12_21  and  O7_22 
ROOT
HETATM    1  C3  UNL     1       2.629   2.523   2.664  1.00  0.00     0.150 C 
HETATM    2  C4  UNL     1       3.099   1.284   2.494  1.00  0.00     0.174 C 
HETATM    3  O3  UNL     1       4.072   0.796   3.369  1.00  0.00    -0.302 OA
HETATM    4  C5  UNL     1       5.012   1.690   3.898  1.00  0.00     0.369 C 
HETATM    5  O4  UNL     1       6.056   1.183   4.610  1.00  0.00    -0.280 OA
HETATM    6  C6  UNL     1       6.244   0.181   5.489  1.00  0.00     0.261 C 
HETATM    7  O5  UNL     1       6.856  -0.889   5.219  1.00  0.00    -0.265 OA
HETATM    8  C7  UNL     1       5.724   0.292   6.872  1.00  0.00     0.112 C 
HETATM    9  C8  UNL     1       6.364  -0.782   7.717  1.00  0.00     0.020 C 
HETATM   10  C9  UNL     1       5.762  -0.965   9.063  1.00  0.00     0.075 C 
HETATM   11  S1  UNL     1       5.033  -2.589   9.347  1.00  0.00    -0.160 SA
HETATM   12  C10 UNL     1       6.272  -3.809   9.868  1.00  0.00     0.176 C 
HETATM   13  C11 UNL     1       5.752  -5.204   9.680  1.00  0.00     0.228 C 
HETATM   14  O6  UNL     1       5.319  -5.779  10.712  1.00  0.00    -0.273 OA
HETATM   15  N1  UNL     1       5.751  -5.833   8.408  1.00  0.00    -0.334 N 
ATOM     16  H1  UNL     1       5.705  -6.851   8.373  1.00  0.00     0.165 HD
HETATM   17  C12 UNL     1       5.813  -5.106   7.160  1.00  0.00     0.221 C 
HETATM   18  C13 UNL     1       5.508  -6.000   6.001  1.00  0.00     0.073 C 
HETATM   19  C14 UNL     1       4.655  -5.296   4.958  1.00  0.00     0.142 C 
HETATM   20  N2  UNL     1       4.632  -3.872   5.201  1.00  0.00    -0.224 N 
ATOM     21  H2  UNL     1       5.517  -3.427   5.444  1.00  0.00     0.177 HD
HETATM   22  C15 UNL     1       3.481  -3.031   5.129  1.00  0.00     0.707 A 
HETATM   23  N3  UNL     1       2.962  -2.269   6.118  1.00  0.00    -0.117 N 
ATOM     24  H3  UNL     1       3.313  -2.182   7.072  1.00  0.00     0.206 HD
HETATM   25  N4  UNL     1       1.911  -1.661   5.602  1.00  0.00    -0.116 N 
ATOM     26  H4  UNL     1       1.306  -1.015   6.108  1.00  0.00     0.206 HD
HETATM   27  C16 UNL     1       1.750  -2.014   4.321  1.00  0.00     0.727 A 
HETATM   28  N5  UNL     1       2.739  -2.873   4.033  1.00  0.00    -0.018 N 
ATOM     29  H5  UNL     1       2.895  -3.327   3.133  1.00  0.00     0.203 HD
HETATM   30  N6  UNL     1       0.779  -1.641   3.344  1.00  0.00    -0.116 N 
ATOM     31  H6  UNL     1      -0.189  -1.798   3.623  1.00  0.00     0.207 HD
HETATM   32  N7  UNL     1       0.920  -1.166   2.229  1.00  0.00    -0.225 N 
ATOM     33  H7  UNL     1       0.028  -1.006   1.761  1.00  0.00     0.209 HD
HETATM   34  N8  UNL     1       1.985  -0.795   1.455  1.00  0.00    -0.249 N 
ATOM     35  H8  UNL     1       2.392  -1.518   0.862  1.00  0.00     0.192 HD
HETATM   36  C17 UNL     1       2.581   0.486   1.390  1.00  0.00     0.297 C 
HETATM   37  O8  UNL     1       2.725   1.093   0.253  1.00  0.00    -0.264 OA
HETATM   38  C18 UNL     1       4.220   2.769   4.550  1.00  0.00     0.278 C 
HETATM   39  O9  UNL     1       4.395   3.189   5.705  1.00  0.00    -0.268 OA
HETATM   40  N9  UNL     1       3.199   3.322   3.736  1.00  0.00    -0.315 N 
ATOM     41  H9  UNL     1       2.867   4.272   3.903  1.00  0.00     0.169 HD
ENDROOT
BRANCH   1  42
HETATM   42  C2  UNL     1       1.618   3.140   1.843  1.00  0.00     0.312 C 
HETATM   43  O2  UNL     1       1.773   4.050   1.033  1.00  0.00    -0.258 OA
BRANCH  42  44
HETATM   44  O1  UNL     1       0.282   2.686   1.941  1.00  0.00    -0.321 OA
HETATM   45  C1  UNL     1      -0.714   3.084   1.033  1.00  0.00     0.213 C 
ENDBRANCH  42  44
ENDBRANCH   1  42
BRANCH  17  46
HETATM   46  O7  UNL     1       7.104  -4.603   7.011  1.00  0.00    -0.377 OA
ATOM     47  H7  UNL     1       7.718  -5.317   7.138  1.00  0.00     0.212 HD
ENDBRANCH  17  46
TORSDOF 3
ENDMDL
MODEL 4
REMARK VINA RESULT: -8.891029002      4.229      5.591
REMARK  3 active torsions:
REMARK  status: ('A' for Active; 'I' for Inactive)
REMARK    1  A    between atoms: O1_2  and  C2_3 
REMARK    2  A    between atoms: C2_3  and  C3_5 
REMARK    3  A    between atoms: C12_21  and  O7_22 
ROOT
HETATM    1  C3  UNL     1       4.649   2.389   3.980  1.00  0.00     0.150 C 
HETATM    2  C4  UNL     1       4.267   1.931   5.175  1.00  0.00     0.174 C 
HETATM    3  O3  UNL     1       3.883   0.595   5.304  1.00  0.00    -0.302 OA
HETATM    4  C5  UNL     1       3.238  -0.028   4.228  1.00  0.00     0.369 C 
HETATM    5  O4  UNL     1       2.716  -1.271   4.420  1.00  0.00    -0.280 OA
HETATM    6  C6  UNL     1       3.064  -2.385   5.091  1.00  0.00     0.261 C 
HETATM    7  O5  UNL     1       2.496  -2.779   6.147  1.00  0.00    -0.265 OA
HETATM    8  C7  UNL     1       4.173  -3.237   4.602  1.00  0.00     0.112 C 
HETATM    9  C8  UNL     1       4.118  -4.562   5.320  1.00  0.00     0.020 C 
HETATM   10  C9  UNL     1       5.306  -5.433   5.127  1.00  0.00     0.075 C 
HETATM   11  S1  UNL     1       6.224  -5.799   6.635  1.00  0.00    -0.160 SA
HETATM   12  C10 UNL     1       5.503  -7.192   7.548  1.00  0.00     0.176 C 
HETATM   13  C11 UNL     1       5.991  -7.202   8.968  1.00  0.00     0.228 C 
HETATM   14  O6  UNL     1       6.916  -8.014   9.230  1.00  0.00    -0.273 OA
HETATM   15  N1  UNL     1       5.436  -6.344   9.951  1.00  0.00    -0.334 N 
ATOM     16  H1  UNL     1       5.551  -6.597  10.933  1.00  0.00     0.165 HD
HETATM   17  C12 UNL     1       4.716  -5.131   9.636  1.00  0.00     0.221 C 
HETATM   18  C13 UNL     1       4.505  -4.298  10.860  1.00  0.00     0.073 C 
HETATM   19  C14 UNL     1       4.684  -2.816  10.568  1.00  0.00     0.142 C 
HETATM   20  N2  UNL     1       4.694  -2.579   9.142  1.00  0.00    -0.224 N 
ATOM     21  H2  UNL     1       3.999  -3.074   8.584  1.00  0.00     0.177 HD
HETATM   22  C15 UNL     1       5.588  -1.711   8.447  1.00  0.00     0.707 A 
HETATM   23  N3  UNL     1       6.448  -2.046   7.459  1.00  0.00    -0.117 N 
ATOM     24  H3  UNL     1       6.593  -2.973   7.061  1.00  0.00     0.206 HD
HETATM   25  N4  UNL     1       7.062  -0.930   7.112  1.00  0.00    -0.116 N 
ATOM     26  H4  UNL     1       7.775  -0.860   6.386  1.00  0.00     0.206 HD
HETATM   27  C16 UNL     1       6.618   0.096   7.848  1.00  0.00     0.727 A 
HETATM   28  N5  UNL     1       5.694  -0.403   8.682  1.00  0.00    -0.018 N 
ATOM     29  H5  UNL     1       5.165   0.125   9.376  1.00  0.00     0.203 HD
HETATM   30  N6  UNL     1       6.961   1.480   7.859  1.00  0.00    -0.116 N 
ATOM     31  H6  UNL     1       7.954   1.674   7.991  1.00  0.00     0.207 HD
HETATM   32  N7  UNL     1       6.259   2.471   7.736  1.00  0.00    -0.225 N 
ATOM     33  H7  UNL     1       6.798   3.336   7.789  1.00  0.00     0.209 HD
HETATM   34  N8  UNL     1       4.925   2.703   7.544  1.00  0.00    -0.249 N 
ATOM     35  H8  UNL     1       4.350   2.777   8.384  1.00  0.00     0.192 HD
HETATM   36  C17 UNL     1       4.259   2.851   6.306  1.00  0.00     0.297 C 
HETATM   37  O8  UNL     1       3.532   3.898   6.064  1.00  0.00    -0.264 OA
HETATM   38  C18 UNL     1       4.146   0.142   3.060  1.00  0.00     0.278 C 
HETATM   39  O9  UNL     1       4.511  -0.767   2.298  1.00  0.00    -0.268 OA
HETATM   40  N9  UNL     1       4.596   1.470   2.854  1.00  0.00    -0.315 N 
ATOM     41  H9  UNL     1       4.880   1.779   1.924  1.00  0.00     0.169 HD
ENDROOT
BRANCH   1  42
HETATM   42  C2  UNL     1       5.079   3.738   3.715  1.00  0.00     0.312 C 
HETATM   43  O2  UNL     1       4.489   4.591   3.057  1.00  0.00    -0.258 OA
BRANCH  42  44
HETATM   44  O1  UNL     1       6.313   4.182   4.245  1.00  0.00    -0.321 OA
HETATM   45  C1  UNL     1       7.430   3.336   4.356  1.00  0.00     0.213 C 
ENDBRANCH  42  44
ENDBRANCH   1  42
BRANCH  17  46
HETATM   46  O7  UNL     1       3.474  -5.483   9.113  1.00  0.00    -0.377 OA
ATOM     47  H7  UNL     1       3.535  -6.367   8.770  1.00  0.00     0.212 HD
ENDBRANCH  17  46
TORSDOF 3
ENDMDL
MODEL 5
REMARK VINA RESULT: -8.684147509      2.494      2.726
REMARK  3 active torsions:
REMARK  status: ('A' for Active; 'I' for Inactive)
REMARK    1  A    between atoms: O1_2  and  C2_3 
REMARK    2  A    between atoms: C2_3  and  C3_5 
REMARK    3  A    between atoms: C12_21  and  O7_22 
ROOT
HETATM    1  C3  UNL     1       2.327  -0.580   2.629  1.00  0.00     0.150 C 
HETATM    2  C4  UNL     1       3.352  -0.287   3.434  1.00  0.00     0.174 C 
HETATM    3  O3  UNL     1       3.546  -1.040   4.594  1.00  0.00    -0.302 OA
HETATM    4  C5  UNL     1       2.426  -1.546   5.265  1.00  0.00     0.369 C 
HETATM    5  O4  UNL     1       2.611  -2.131   6.481  1.00  0.00    -0.280 OA
HETATM    6  C6  UNL     1       3.537  -2.921   7.056  1.00  0.00     0.261 C 
HETATM    7  O5  UNL     1       4.353  -2.527   7.933  1.00  0.00    -0.265 OA
HETATM    8  C7  UNL     1       3.646  -4.347   6.671  1.00  0.00     0.112 C 
HETATM    9  C8  UNL     1       4.499  -5.059   7.690  1.00  0.00     0.020 C 
HETATM   10  C9  UNL     1       4.911  -6.437   7.314  1.00  0.00     0.075 C 
HETATM   11  S1  UNL     1       6.691  -6.671   7.149  1.00  0.00    -0.160 SA
HETATM   12  C10 UNL     1       7.485  -7.001   8.747  1.00  0.00     0.176 C 
HETATM   13  C11 UNL     1       8.965  -6.763   8.661  1.00  0.00     0.228 C 
HETATM   14  O6  UNL     1       9.684  -7.788   8.533  1.00  0.00    -0.273 OA
HETATM   15  N1  UNL     1       9.513  -5.457   8.723  1.00  0.00    -0.334 N 
ATOM     16  H1  UNL     1      10.494  -5.357   8.986  1.00  0.00     0.165 HD
HETATM   17  C12 UNL     1       8.756  -4.260   8.432  1.00  0.00     0.221 C 
HETATM   18  C13 UNL     1       9.656  -3.074   8.297  1.00  0.00     0.073 C 
HETATM   19  C14 UNL     1       9.213  -2.157   7.168  1.00  0.00     0.142 C 
HETATM   20  N2  UNL     1       7.876  -2.497   6.736  1.00  0.00    -0.224 N 
ATOM     21  H2  UNL     1       7.189  -2.693   7.464  1.00  0.00     0.177 HD
HETATM   22  C15 UNL     1       7.432  -2.582   5.382  1.00  0.00     0.707 A 
HETATM   23  N3  UNL     1       6.907  -3.661   4.760  1.00  0.00    -0.117 N 
ATOM     24  H3  UNL     1       6.752  -4.584   5.164  1.00  0.00     0.206 HD
HETATM   25  N4  UNL     1       6.636  -3.279   3.527  1.00  0.00    -0.116 N 
ATOM     26  H4  UNL     1       6.229  -3.877   2.809  1.00  0.00     0.206 HD
HETATM   27  C16 UNL     1       6.972  -1.995   3.351  1.00  0.00     0.727 A 
HETATM   28  N5  UNL     1       7.471  -1.566   4.520  1.00  0.00    -0.018 N 
ATOM     29  H5  UNL     1       7.819  -0.627   4.714  1.00  0.00     0.203 HD
HETATM   30  N6  UNL     1       6.882  -1.132   2.218  1.00  0.00    -0.116 N 
ATOM     31  H6  UNL     1       7.342  -1.482   1.377  1.00  0.00     0.207 HD
HETATM   32  N7  UNL     1       6.345  -0.044   2.092  1.00  0.00    -0.225 N 
ATOM     33  H7  UNL     1       6.452   0.334   1.151  1.00  0.00     0.209 HD
HETATM   34  N8  UNL     1       5.632   0.791   2.908  1.00  0.00    -0.249 N 
ATOM     35  H8  UNL     1       6.171   1.464   3.453  1.00  0.00     0.192 HD
HETATM   36  C17 UNL     1       4.229   0.821   3.075  1.00  0.00     0.297 C 
HETATM   37  O8  UNL     1       3.564   1.922   2.909  1.00  0.00    -0.264 OA
HETATM   38  C18 UNL     1       1.671  -2.335   4.253  1.00  0.00     0.278 C 
HETATM   39  O9  UNL     1       1.262  -3.496   4.408  1.00  0.00    -0.268 OA
HETATM   40  N9  UNL     1       1.432  -1.651   3.034  1.00  0.00    -0.315 N 
ATOM     41  H9  UNL     1       0.639  -1.909   2.447  1.00  0.00     0.169 HD
ENDROOT
BRANCH   1  42
HETATM   42  C2  UNL     1       2.024   0.108   1.400  1.00  0.00     0.312 C 
HETATM   43  O2  UNL     1       2.581  -0.029   0.314  1.00  0.00    -0.258 OA
BRANCH  42  44
HETATM   44  O1  UNL     1       0.978   1.061   1.386  1.00  0.00    -0.321 OA
HETATM   45  C1  UNL     1      -0.339   0.724   1.033  1.00  0.00     0.213 C 
ENDBRANCH  42  44
ENDBRANCH   1  42
BRANCH  17  46
HETATM   46  O7  UNL     1       7.873  -4.036   9.485  1.00  0.00    -0.377 OA
ATOM     47  H7  UNL     1       7.777  -4.846   9.971  1.00  0.00     0.212 HD
ENDBRANCH  17  46
TORSDOF 3
ENDMDL
