MODEL 1
REMARK VINA RESULT: -7.939939582      0.000      0.000
REMARK  4 active torsions:
REMARK  status: ('A' for Active; 'I' for Inactive)
REMARK    1  A    between atoms: C1_2  and  C2_3 
REMARK       I    between atoms: C1_2  and  N2_11 
REMARK    2  A    between atoms: C2_3  and  C3_4 
REMARK    3  A    between atoms: C3_4  and  N1_5 
REMARK    4  A    between atoms: N2_11  and  C8_13 
ROOT
HETATM    1  O1  UNL     1     -12.262  20.158  61.022  1.00  0.00    -0.273 OA
HETATM    2  C1  UNL     1     -11.109  20.609  60.823  1.00  0.00     0.225 C 
HETATM    3  N2  UNL     1     -10.483  20.327  59.552  1.00  0.00    -0.307 N 
ATOM      4  H2  UNL     1      -9.771  19.605  59.440  1.00  0.00     0.171 HD
ENDROOT
BRANCH   3   5
HETATM    5  C8  UNL     1     -10.900  21.074  58.548  1.00  0.00     0.152 A 
HETATM    6  N3  UNL     1     -12.130  21.287  58.103  1.00  0.00    -0.333 N 
HETATM    7  C9  UNL     1     -12.305  22.087  57.067  1.00  0.00     0.093 A 
ATOM      8  H3  UNL     1     -12.929  20.840  58.553  1.00  0.00     0.168 HD
HETATM    9  C10 UNL     1     -11.191  22.649  56.514  1.00  0.00     0.017 A 
HETATM   10  C14 UNL     1     -13.606  22.450  56.420  1.00  0.00     0.176 C 
HETATM   11  S1  UNL     1      -9.945  22.023  57.484  1.00  0.00    -0.056 SA
HETATM   12  C11 UNL     1     -11.172  23.576  55.347  1.00  0.00     0.049 C 
HETATM   13  C12 UNL     1     -12.529  24.006  54.935  1.00  0.00     0.013 C 
HETATM   14  C13 UNL     1     -13.506  22.868  54.986  1.00  0.00     0.086 C 
HETATM   15  O3  UNL     1     -14.686  22.399  57.052  1.00  0.00    -0.291 OA
ENDBRANCH   3   5
BRANCH   2  16
HETATM   16  C2  UNL     1     -10.436  21.398  61.851  1.00  0.00     0.123 C 
BRANCH  16  17
HETATM   17  C3  UNL     1     -10.041  20.600  63.046  1.00  0.00     0.135 C 
BRANCH  17  18
HETATM   18  N1  UNL     1     -11.081  20.505  64.004  1.00  0.00    -0.352 N 
HETATM   19  C4  UNL     1     -11.718  19.212  64.408  1.00  0.00     0.126 C 
HETATM   20  C5  UNL     1     -13.166  19.629  64.290  1.00  0.00     0.029 C 
HETATM   21  C6  UNL     1     -13.193  21.020  64.857  1.00  0.00     0.104 C 
HETATM   22  C7  UNL     1     -11.786  21.474  64.761  1.00  0.00     0.219 C 
HETATM   23  O2  UNL     1     -11.281  22.507  65.245  1.00  0.00    -0.273 OA
ENDBRANCH  17  18
ENDBRANCH  16  17
ENDBRANCH   2  16
TORSDOF 4
ENDMDL
MODEL 2
REMARK VINA RESULT: -7.849151529      2.288      7.655
REMARK  4 active torsions:
REMARK  status: ('A' for Active; 'I' for Inactive)
REMARK    1  A    between atoms: C1_2  and  C2_3 
REMARK       I    between atoms: C1_2  and  N2_11 
REMARK    2  A    between atoms: C2_3  and  C3_4 
REMARK    3  A    between atoms: C3_4  and  N1_5 
REMARK    4  A    between atoms: N2_11  and  C8_13 
ROOT
HETATM    1  O1  UNL     1     -11.706  22.205  60.251  1.00  0.00    -0.273 OA
HETATM    2  C1  UNL     1     -11.179  21.071  60.170  1.00  0.00     0.225 C 
HETATM    3  N2  UNL     1     -10.220  20.697  61.184  1.00  0.00    -0.307 N 
ATOM      4  H2  UNL     1      -9.213  20.721  61.021  1.00  0.00     0.171 HD
ENDROOT
BRANCH   3   5
HETATM    5  C8  UNL     1     -10.744  20.323  62.335  1.00  0.00     0.152 A 
HETATM    6  N3  UNL     1     -11.912  19.750  62.589  1.00  0.00    -0.333 N 
HETATM    7  C9  UNL     1     -12.223  19.463  63.840  1.00  0.00     0.093 A 
ATOM      8  H3  UNL     1     -12.559  19.534  61.832  1.00  0.00     0.168 HD
HETATM    9  C10 UNL     1     -11.309  19.780  64.803  1.00  0.00     0.017 A 
HETATM   10  C14 UNL     1     -13.485  18.820  64.328  1.00  0.00     0.176 C 
HETATM   11  S1  UNL     1     -10.049  20.471  63.897  1.00  0.00    -0.056 SA
HETATM   12  C11 UNL     1     -11.468  19.540  66.265  1.00  0.00     0.049 C 
HETATM   13  C12 UNL     1     -12.661  18.723  66.586  1.00  0.00     0.013 C 
HETATM   14  C13 UNL     1     -13.841  19.123  65.750  1.00  0.00     0.086 C 
HETATM   15  O3  UNL     1     -14.176  18.088  63.582  1.00  0.00    -0.291 OA
ENDBRANCH   3   5
BRANCH   2  16
HETATM   16  C2  UNL     1     -11.538  20.164  59.083  1.00  0.00     0.123 C 
BRANCH  16  17
HETATM   17  C3  UNL     1     -10.894  20.511  57.785  1.00  0.00     0.135 C 
BRANCH  17  18
HETATM   18  N1  UNL     1     -11.548  21.578  57.122  1.00  0.00    -0.352 N 
HETATM   19  C4  UNL     1     -10.835  22.594  56.284  1.00  0.00     0.126 C 
HETATM   20  C5  UNL     1     -11.457  23.842  56.867  1.00  0.00     0.029 C 
HETATM   21  C6  UNL     1     -12.904  23.479  57.049  1.00  0.00     0.104 C 
HETATM   22  C7  UNL     1     -12.901  21.998  57.072  1.00  0.00     0.219 C 
HETATM   23  O2  UNL     1     -13.885  21.230  57.050  1.00  0.00    -0.273 OA
ENDBRANCH  17  18
ENDBRANCH  16  17
ENDBRANCH   2  16
TORSDOF 4
ENDMDL
MODEL 3
REMARK VINA RESULT: -7.822799320      2.784      6.785
REMARK  4 active torsions:
REMARK  status: ('A' for Active; 'I' for Inactive)
REMARK    1  A    between atoms: C1_2  and  C2_3 
REMARK       I    between atoms: C1_2  and  N2_11 
REMARK    2  A    between atoms: C2_3  and  C3_4 
REMARK    3  A    between atoms: C3_4  and  N1_5 
REMARK    4  A    between atoms: N2_11  and  C8_13 
ROOT
HETATM    1  O1  UNL     1     -10.076  18.972  59.558  1.00  0.00    -0.273 OA
HETATM    2  C1  UNL     1     -10.885  19.883  59.264  1.00  0.00     0.225 C 
HETATM    3  N2  UNL     1     -11.719  20.413  60.317  1.00  0.00    -0.307 N 
ATOM      4  H2  UNL     1     -12.698  20.147  60.428  1.00  0.00     0.171 HD
ENDROOT
BRANCH   3   5
HETATM    5  C8  UNL     1     -11.121  21.266  61.125  1.00  0.00     0.152 A 
HETATM    6  N3  UNL     1     -10.661  22.486  60.882  1.00  0.00    -0.333 N 
HETATM    7  C9  UNL     1     -10.091  23.160  61.863  1.00  0.00     0.093 A 
ATOM      8  H3  UNL     1     -10.746  22.896  59.952  1.00  0.00     0.168 HD
HETATM    9  C10 UNL     1     -10.010  22.549  63.081  1.00  0.00     0.017 A 
HETATM   10  C14 UNL     1      -9.513  24.540  61.789  1.00  0.00     0.176 C 
HETATM   11  S1  UNL     1     -10.745  21.047  62.786  1.00  0.00    -0.056 SA
HETATM   12  C11 UNL     1      -9.408  23.138  64.311  1.00  0.00     0.049 C 
HETATM   13  C12 UNL     1      -9.061  24.569  64.151  1.00  0.00     0.013 C 
HETATM   14  C13 UNL     1      -8.456  24.840  62.806  1.00  0.00     0.086 C 
HETATM   15  O3  UNL     1      -9.901  25.365  60.930  1.00  0.00    -0.291 OA
ENDBRANCH   3   5
BRANCH   2  16
HETATM   16  C2  UNL     1     -10.965  20.387  57.895  1.00  0.00     0.123 C 
BRANCH  16  17
HETATM   17  C3  UNL     1     -12.361  20.638  57.438  1.00  0.00     0.135 C 
BRANCH  17  18
HETATM   18  N1  UNL     1     -12.571  21.985  57.050  1.00  0.00    -0.352 N 
HETATM   19  C4  UNL     1     -13.111  22.386  55.713  1.00  0.00     0.126 C 
HETATM   20  C5  UNL     1     -12.094  23.452  55.372  1.00  0.00     0.029 C 
HETATM   21  C6  UNL     1     -11.883  24.184  56.667  1.00  0.00     0.104 C 
HETATM   22  C7  UNL     1     -12.337  23.223  57.700  1.00  0.00     0.219 C 
HETATM   23  O2  UNL     1     -12.497  23.430  58.920  1.00  0.00    -0.273 OA
ENDBRANCH  17  18
ENDBRANCH  16  17
ENDBRANCH   2  16
TORSDOF 4
ENDMDL
MODEL 4
REMARK VINA RESULT: -7.781340803      3.997      5.638
REMARK  4 active torsions:
REMARK  status: ('A' for Active; 'I' for Inactive)
REMARK    1  A    between atoms: C1_2  and  C2_3 
REMARK       I    between atoms: C1_2  and  N2_11 
REMARK    2  A    between atoms: C2_3  and  C3_4 
REMARK    3  A    between atoms: C3_4  and  N1_5 
REMARK    4  A    between atoms: N2_11  and  C8_13 
ROOT
HETATM    1  O1  UNL     1     -12.572  21.458  62.546  1.00  0.00    -0.273 OA
HETATM    2  C1  UNL     1     -11.475  21.090  62.061  1.00  0.00     0.225 C 
HETATM    3  N2  UNL     1     -10.880  21.911  61.034  1.00  0.00    -0.307 N 
ATOM      4  H2  UNL     1     -10.927  21.670  60.043  1.00  0.00     0.171 HD
ENDROOT
BRANCH   3   5
HETATM    5  C8  UNL     1     -10.271  22.996  61.471  1.00  0.00     0.152 A 
HETATM    6  N3  UNL     1      -9.712  23.239  62.649  1.00  0.00    -0.333 N 
HETATM    7  C9  UNL     1      -9.154  24.417  62.859  1.00  0.00     0.093 A 
ATOM      8  H3  UNL     1      -9.713  22.528  63.379  1.00  0.00     0.168 HD
HETATM    9  C10 UNL     1      -9.191  25.321  61.837  1.00  0.00     0.017 A 
HETATM   10  C14 UNL     1      -8.478  24.881  64.112  1.00  0.00     0.176 C 
HETATM   11  S1  UNL     1     -10.012  24.465  60.621  1.00  0.00    -0.056 SA
HETATM   12  C11 UNL     1      -8.620  26.697  61.872  1.00  0.00     0.049 C 
HETATM   13  C12 UNL     1      -7.811  26.952  63.086  1.00  0.00     0.013 C 
HETATM   14  C13 UNL     1      -8.454  26.365  64.308  1.00  0.00     0.086 C 
HETATM   15  O3  UNL     1      -7.977  24.068  64.923  1.00  0.00    -0.291 OA
ENDBRANCH   3   5
BRANCH   2  16
HETATM   16  C2  UNL     1     -10.830  19.868  62.537  1.00  0.00     0.123 C 
BRANCH  16  17
HETATM   17  C3  UNL     1     -10.707  19.802  64.020  1.00  0.00     0.135 C 
BRANCH  17  18
HETATM   18  N1  UNL     1     -11.871  19.281  64.639  1.00  0.00    -0.352 N 
HETATM   19  C4  UNL     1     -12.517  17.992  64.235  1.00  0.00     0.126 C 
HETATM   20  C5  UNL     1     -13.946  18.478  64.143  1.00  0.00     0.029 C 
HETATM   21  C6  UNL     1     -14.100  19.388  65.328  1.00  0.00     0.104 C 
HETATM   22  C7  UNL     1     -12.709  19.763  65.675  1.00  0.00     0.219 C 
HETATM   23  O2  UNL     1     -12.313  20.383  66.683  1.00  0.00    -0.273 OA
ENDBRANCH  17  18
ENDBRANCH  16  17
ENDBRANCH   2  16
TORSDOF 4
ENDMDL
MODEL 5
REMARK VINA RESULT: -7.775828482      2.370      6.382
REMARK  4 active torsions:
REMARK  status: ('A' for Active; 'I' for Inactive)
REMARK    1  A    between atoms: C1_2  and  C2_3 
REMARK       I    between atoms: C1_2  and  N2_11 
REMARK    2  A    between atoms: C2_3  and  C3_4 
REMARK    3  A    between atoms: C3_4  and  N1_5 
REMARK    4  A    between atoms: N2_11  and  C8_13 
ROOT
HETATM    1  O1  UNL     1     -13.285  23.216  58.172  1.00  0.00    -0.273 OA
HETATM    2  C1  UNL     1     -12.143  22.714  58.049  1.00  0.00     0.225 C 
HETATM    3  N2  UNL     1     -11.054  23.322  58.777  1.00  0.00    -0.307 N 
ATOM      4  H2  UNL     1     -10.376  23.941  58.333  1.00  0.00     0.171 HD
ENDROOT
BRANCH   3   5
HETATM    5  C8  UNL     1     -11.001  23.016  60.059  1.00  0.00     0.152 A 
HETATM    6  N3  UNL     1     -11.715  22.140  60.752  1.00  0.00    -0.333 N 
HETATM    7  C9  UNL     1     -11.480  22.005  62.045  1.00  0.00     0.093 A 
ATOM      8  H3  UNL     1     -12.433  21.579  60.295  1.00  0.00     0.168 HD
HETATM    9  C10 UNL     1     -10.505  22.789  62.590  1.00  0.00     0.017 A 
HETATM   10  C14 UNL     1     -12.175  21.078  62.993  1.00  0.00     0.176 C 
HETATM   11  S1  UNL     1      -9.961  23.682  61.251  1.00  0.00    -0.056 SA
HETATM   12  C11 UNL     1     -10.088  22.789  64.021  1.00  0.00     0.049 C 
HETATM   13  C12 UNL     1     -10.710  21.692  64.799  1.00  0.00     0.013 C 
HETATM   14  C13 UNL     1     -12.151  21.504  64.428  1.00  0.00     0.086 C 
HETATM   15  O3  UNL     1     -12.729  20.028  62.592  1.00  0.00    -0.291 OA
ENDBRANCH   3   5
BRANCH   2  16
HETATM   16  C2  UNL     1     -11.937  21.545  57.197  1.00  0.00     0.123 C 
BRANCH  16  17
HETATM   17  C3  UNL     1     -11.709  20.287  57.961  1.00  0.00     0.135 C 
BRANCH  17  18
HETATM   18  N1  UNL     1     -10.336  20.049  58.218  1.00  0.00    -0.352 N 
HETATM   19  C4  UNL     1      -9.234  20.491  57.306  1.00  0.00     0.126 C 
HETATM   20  C5  UNL     1      -8.463  19.192  57.241  1.00  0.00     0.029 C 
HETATM   21  C6  UNL     1      -8.496  18.676  58.652  1.00  0.00     0.104 C 
HETATM   22  C7  UNL     1      -9.653  19.374  59.261  1.00  0.00     0.219 C 
HETATM   23  O2  UNL     1      -9.992  19.389  60.462  1.00  0.00    -0.273 OA
ENDBRANCH  17  18
ENDBRANCH  16  17
ENDBRANCH   2  16
TORSDOF 4
ENDMDL
