MODEL 1
REMARK VINA RESULT: -8.437331474      0.000      0.000
REMARK  3 active torsions:
REMARK  status: ('A' for Active; 'I' for Inactive)
REMARK    1  A    between atoms: C2_2  and  C3_3 
REMARK    2  A    between atoms: C3_3  and  S1_4 
REMARK    3  A    between atoms: S1_4  and  N1_7 
ROOT
HETATM    1  N1  UNL     1     -11.061  21.736  63.765  1.00  0.00    -0.241 N 
HETATM    2  C4  UNL     1     -11.546  22.072  65.084  1.00  0.00     0.150 C 
HETATM    3  C5  UNL     1     -10.608  22.907  65.871  1.00  0.00     0.079 C 
HETATM    4  C6  UNL     1      -9.916  23.925  65.069  1.00  0.00     0.028 A 
HETATM    5  N2  UNL     1      -9.287  25.086  65.439  1.00  0.00    -0.353 N 
ATOM      6  H2  UNL     1      -9.219  25.434  66.395  1.00  0.00     0.166 HD
HETATM    7  C7  UNL     1      -8.777  25.697  64.366  1.00  0.00     0.116 A 
HETATM    8  C8  UNL     1      -9.050  24.962  63.248  1.00  0.00    -0.005 A 
HETATM    9  C9  UNL     1      -9.766  23.855  63.717  1.00  0.00     0.064 A 
HETATM   10  C10 UNL     1     -10.351  22.722  62.997  1.00  0.00     0.269 C 
HETATM   11  O3  UNL     1     -10.217  22.648  61.756  1.00  0.00    -0.266 OA
HETATM   12  C11 UNL     1      -8.639  25.334  61.873  1.00  0.00     0.069 C 
HETATM   13  C12 UNL     1      -8.514  26.840  61.814  1.00  0.00     0.183 C 
HETATM   14  O4  UNL     1      -7.658  27.241  62.862  1.00  0.00    -0.316 OA
HETATM   15  C13 UNL     1      -8.019  26.938  64.156  1.00  0.00     0.310 C 
HETATM   16  O5  UNL     1      -7.725  27.675  65.141  1.00  0.00    -0.258 OA
ENDROOT
BRANCH   1  17
HETATM   17  S1  UNL     1     -11.341  20.170  63.142  1.00  0.00     0.235 S 
HETATM   18  O1  UNL     1     -10.125  19.680  62.368  1.00  0.00    -0.205 OA
HETATM   19  O2  UNL     1     -12.465  20.200  62.118  1.00  0.00    -0.205 OA
BRANCH  17  20
HETATM   20  C3  UNL     1     -11.769  19.000  64.385  1.00  0.00     0.163 C 
BRANCH  20  21
HETATM   21  C2  UNL     1     -13.197  18.512  64.153  1.00  0.00     0.012 C 
HETATM   22  C1  UNL     1     -14.191  19.233  65.008  1.00  0.00     0.006 C 
ENDBRANCH  20  21
ENDBRANCH  17  20
ENDBRANCH   1  17
TORSDOF 3
ENDMDL
MODEL 2
REMARK VINA RESULT: -8.226020490      0.900      1.049
REMARK  3 active torsions:
REMARK  status: ('A' for Active; 'I' for Inactive)
REMARK    1  A    between atoms: C2_2  and  C3_3 
REMARK    2  A    between atoms: C3_3  and  S1_4 
REMARK    3  A    between atoms: S1_4  and  N1_7 
ROOT
HETATM    1  N1  UNL     1     -11.046  21.813  64.430  1.00  0.00    -0.241 N 
HETATM    2  C4  UNL     1     -11.629  22.340  65.643  1.00  0.00     0.150 C 
HETATM    3  C5  UNL     1     -10.747  23.286  66.366  1.00  0.00     0.079 C 
HETATM    4  C6  UNL     1      -9.986  24.175  65.478  1.00  0.00     0.028 A 
HETATM    5  N2  UNL     1      -9.378  25.380  65.719  1.00  0.00    -0.353 N 
ATOM      6  H2  UNL     1      -9.380  25.867  66.615  1.00  0.00     0.166 HD
HETATM    7  C7  UNL     1      -8.781  25.826  64.609  1.00  0.00     0.116 A 
HETATM    8  C8  UNL     1      -8.974  24.932  63.596  1.00  0.00    -0.005 A 
HETATM    9  C9  UNL     1      -9.734  23.905  64.167  1.00  0.00     0.064 A 
HETATM   10  C10 UNL     1     -10.271  22.676  63.580  1.00  0.00     0.269 C 
HETATM   11  O3  UNL     1     -10.043  22.419  62.379  1.00  0.00    -0.266 OA
HETATM   12  C11 UNL     1      -8.455  25.096  62.216  1.00  0.00     0.069 C 
HETATM   13  C12 UNL     1      -8.314  26.577  61.943  1.00  0.00     0.183 C 
HETATM   14  O4  UNL     1      -7.537  27.132  62.984  1.00  0.00    -0.316 OA
HETATM   15  C13 UNL     1      -7.998  27.024  64.276  1.00  0.00     0.310 C 
HETATM   16  O5  UNL     1      -7.775  27.900  65.161  1.00  0.00    -0.258 OA
ENDROOT
BRANCH   1  17
HETATM   17  S1  UNL     1     -11.291  20.171  64.027  1.00  0.00     0.235 S 
HETATM   18  O1  UNL     1     -11.109  19.290  65.255  1.00  0.00    -0.205 OA
HETATM   19  O2  UNL     1     -10.225  19.700  63.050  1.00  0.00    -0.205 OA
BRANCH  17  20
HETATM   20  C3  UNL     1     -12.865  19.866  63.301  1.00  0.00     0.163 C 
BRANCH  20  21
HETATM   21  C2  UNL     1     -13.542  18.703  64.023  1.00  0.00     0.012 C 
HETATM   22  C1  UNL     1     -14.516  19.166  65.060  1.00  0.00     0.006 C 
ENDBRANCH  20  21
ENDBRANCH  17  20
ENDBRANCH   1  17
TORSDOF 3
ENDMDL
MODEL 3
REMARK VINA RESULT: -8.190669401      1.674      1.908
REMARK  3 active torsions:
REMARK  status: ('A' for Active; 'I' for Inactive)
REMARK    1  A    between atoms: C2_2  and  C3_3 
REMARK    2  A    between atoms: C3_3  and  S1_4 
REMARK    3  A    between atoms: S1_4  and  N1_7 
ROOT
HETATM    1  N1  UNL     1     -11.396  22.269  65.404  1.00  0.00    -0.241 N 
HETATM    2  C4  UNL     1     -11.377  23.101  66.585  1.00  0.00     0.150 C 
HETATM    3  C5  UNL     1     -10.141  23.906  66.729  1.00  0.00     0.079 C 
HETATM    4  C6  UNL     1      -9.636  24.437  65.456  1.00  0.00     0.028 A 
HETATM    5  N2  UNL     1      -8.788  25.482  65.191  1.00  0.00    -0.353 N 
ATOM      6  H2  UNL     1      -8.368  26.087  65.897  1.00  0.00     0.166 HD
HETATM    7  C7  UNL     1      -8.591  25.594  63.875  1.00  0.00     0.116 A 
HETATM    8  C8  UNL     1      -9.301  24.628  63.222  1.00  0.00    -0.005 A 
HETATM    9  C9  UNL     1      -9.949  23.916  64.237  1.00  0.00     0.064 A 
HETATM   10  C10 UNL     1     -10.868  22.777  64.168  1.00  0.00     0.269 C 
HETATM   11  O3  UNL     1     -11.159  22.291  63.054  1.00  0.00    -0.266 OA
HETATM   12  C11 UNL     1      -9.325  24.447  61.750  1.00  0.00     0.069 C 
HETATM   13  C12 UNL     1      -9.050  25.791  61.110  1.00  0.00     0.183 C 
HETATM   14  O4  UNL     1      -7.855  26.295  61.669  1.00  0.00    -0.316 OA
HETATM   15  C13 UNL     1      -7.803  26.502  63.029  1.00  0.00     0.310 C 
HETATM   16  O5  UNL     1      -7.118  27.423  63.558  1.00  0.00    -0.258 OA
ENDROOT
BRANCH   1  17
HETATM   17  S1  UNL     1     -12.048  20.693  65.500  1.00  0.00     0.235 S 
HETATM   18  O1  UNL     1     -12.184  20.260  66.953  1.00  0.00    -0.205 OA
HETATM   19  O2  UNL     1     -11.090  19.684  64.884  1.00  0.00    -0.205 OA
BRANCH  17  20
HETATM   20  C3  UNL     1     -13.599  20.536  64.683  1.00  0.00     0.163 C 
BRANCH  20  21
HETATM   21  C2  UNL     1     -14.199  19.166  64.989  1.00  0.00     0.012 C 
HETATM   22  C1  UNL     1     -13.764  18.122  64.010  1.00  0.00     0.006 C 
ENDBRANCH  20  21
ENDBRANCH  17  20
ENDBRANCH   1  17
TORSDOF 3
ENDMDL
MODEL 4
REMARK VINA RESULT: -7.741866016      3.282      4.138
REMARK  3 active torsions:
REMARK  status: ('A' for Active; 'I' for Inactive)
REMARK    1  A    between atoms: C2_2  and  C3_3 
REMARK    2  A    between atoms: C3_3  and  S1_4 
REMARK    3  A    between atoms: S1_4  and  N1_7 
ROOT
HETATM    1  N1  UNL     1     -11.105  22.260  60.120  1.00  0.00    -0.241 N 
HETATM    2  C4  UNL     1     -11.301  21.592  61.386  1.00  0.00     0.150 C 
HETATM    3  C5  UNL     1     -10.224  21.853  62.371  1.00  0.00     0.079 C 
HETATM    4  C6  UNL     1      -9.728  23.235  62.346  1.00  0.00     0.028 A 
HETATM    5  N2  UNL     1      -9.045  23.962  63.286  1.00  0.00    -0.353 N 
ATOM      6  H2  UNL     1      -8.777  23.619  64.209  1.00  0.00     0.166 HD
HETATM    7  C7  UNL     1      -8.781  25.186  62.821  1.00  0.00     0.116 A 
HETATM    8  C8  UNL     1      -9.279  25.313  61.557  1.00  0.00    -0.005 A 
HETATM    9  C9  UNL     1      -9.869  24.074  61.282  1.00  0.00     0.064 A 
HETATM   10  C10 UNL     1     -10.584  23.599  60.095  1.00  0.00     0.269 C 
HETATM   11  O3  UNL     1     -10.717  24.362  59.114  1.00  0.00    -0.266 OA
HETATM   12  C11 UNL     1      -9.174  26.537  60.727  1.00  0.00     0.069 C 
HETATM   13  C12 UNL     1      -9.079  27.726  61.658  1.00  0.00     0.183 C 
HETATM   14  O4  UNL     1      -8.022  27.478  62.561  1.00  0.00    -0.316 OA
HETATM   15  C13 UNL     1      -8.096  26.366  63.368  1.00  0.00     0.310 C 
HETATM   16  O5  UNL     1      -7.605  26.329  64.533  1.00  0.00    -0.258 OA
ENDROOT
BRANCH   1  17
HETATM   17  S1  UNL     1     -11.497  21.442  58.672  1.00  0.00     0.235 S 
HETATM   18  O1  UNL     1     -12.592  22.187  57.920  1.00  0.00    -0.205 OA
HETATM   19  O2  UNL     1     -12.098  20.079  58.979  1.00  0.00    -0.205 OA
BRANCH  17  20
HETATM   20  C3  UNL     1     -10.109  21.199  57.618  1.00  0.00     0.163 C 
BRANCH  20  21
HETATM   21  C2  UNL     1      -9.853  19.703  57.451  1.00  0.00     0.012 C 
HETATM   22  C1  UNL     1      -8.394  19.374  57.417  1.00  0.00     0.006 C 
ENDBRANCH  20  21
ENDBRANCH  17  20
ENDBRANCH   1  17
TORSDOF 3
ENDMDL
MODEL 5
REMARK VINA RESULT: -7.432380172      2.194      2.952
REMARK  3 active torsions:
REMARK  status: ('A' for Active; 'I' for Inactive)
REMARK    1  A    between atoms: C2_2  and  C3_3 
REMARK    2  A    between atoms: C3_3  and  S1_4 
REMARK    3  A    between atoms: S1_4  and  N1_7 
ROOT
HETATM    1  N1  UNL     1     -10.485  22.051  62.298  1.00  0.00    -0.241 N 
HETATM    2  C4  UNL     1     -10.544  21.818  63.723  1.00  0.00     0.150 C 
HETATM    3  C5  UNL     1      -9.446  22.465  64.479  1.00  0.00     0.079 C 
HETATM    4  C6  UNL     1      -9.090  23.797  63.973  1.00  0.00     0.028 A 
HETATM    5  N2  UNL     1      -8.431  24.840  64.571  1.00  0.00    -0.353 N 
ATOM      6  H2  UNL     1      -8.080  24.837  65.529  1.00  0.00     0.166 HD
HETATM    7  C7  UNL     1      -8.315  25.863  63.720  1.00  0.00     0.116 A 
HETATM    8  C8  UNL     1      -8.892  25.533  62.527  1.00  0.00    -0.005 A 
HETATM    9  C9  UNL     1      -9.372  24.232  62.712  1.00  0.00     0.064 A 
HETATM   10  C10 UNL     1     -10.101  23.344  61.804  1.00  0.00     0.269 C 
HETATM   11  O3  UNL     1     -10.362  23.734  60.645  1.00  0.00    -0.266 OA
HETATM   12  C11 UNL     1      -8.954  26.425  61.344  1.00  0.00     0.069 C 
HETATM   13  C12 UNL     1      -8.925  27.856  61.836  1.00  0.00     0.183 C 
HETATM   14  O4  UNL     1      -7.801  27.996  62.679  1.00  0.00    -0.316 OA
HETATM   15  C13 UNL     1      -7.720  27.205  63.802  1.00  0.00     0.310 C 
HETATM   16  O5  UNL     1      -7.165  27.585  64.873  1.00  0.00    -0.258 OA
ENDROOT
BRANCH   1  17
HETATM   17  S1  UNL     1     -10.874  20.779  61.225  1.00  0.00     0.235 S 
HETATM   18  O1  UNL     1     -12.262  20.233  61.529  1.00  0.00    -0.205 OA
HETATM   19  O2  UNL     1      -9.938  19.600  61.438  1.00  0.00    -0.205 OA
BRANCH  17  20
HETATM   20  C3  UNL     1     -10.776  21.250  59.532  1.00  0.00     0.163 C 
BRANCH  20  21
HETATM   21  C2  UNL     1     -10.826  20.003  58.653  1.00  0.00     0.012 C 
HETATM   22  C1  UNL     1      -9.709  19.961  57.659  1.00  0.00     0.006 C 
ENDBRANCH  20  21
ENDBRANCH  17  20
ENDBRANCH   1  17
TORSDOF 3
ENDMDL
