MODEL 1
REMARK VINA RESULT: -6.410738643      0.000      0.000
REMARK  4 active torsions:
REMARK  status: ('A' for Active; 'I' for Inactive)
REMARK    1  A    between atoms: N1_2  and  C3_4 
REMARK    2  A    between atoms: C3_4  and  C4_5 
REMARK    3  A    between atoms: C4_5  and  N2_6 
REMARK    4  A    between atoms: N4_20  and  C15_21 
ROOT
HETATM    1  N2  UNL     1     -11.683  22.005  57.743  1.00  0.00    -0.347 N 
HETATM    2  C5  UNL     1     -11.168  22.963  58.706  1.00  0.00     0.153 C 
HETATM    3  C6  UNL     1     -11.730  24.345  58.461  1.00  0.00     0.253 C 
HETATM    4  N3  UNL     1     -13.089  24.334  58.048  1.00  0.00    -0.053 N 
ATOM      5  H31 UNL     1     -13.461  25.282  57.999  1.00  0.00     0.278 HD
ATOM      6  H32 UNL     1     -13.689  23.957  58.781  1.00  0.00     0.278 HD
HETATM    7  C7  UNL     1     -13.298  23.640  56.813  1.00  0.00     0.230 C 
HETATM    8  C8  UNL     1     -12.523  24.248  55.662  1.00  0.00     0.052 C 
HETATM    9  C9  UNL     1     -13.210  23.654  54.475  1.00  0.00     0.005 C 
HETATM   10  C10 UNL     1     -14.638  23.359  54.895  1.00  0.00     0.034 C 
HETATM   11  C11 UNL     1     -14.742  23.703  56.361  1.00  0.00     0.077 C 
HETATM   12  C12 UNL     1     -15.623  22.761  57.142  1.00  0.00     0.036 C 
HETATM   13  C13 UNL     1     -16.619  23.624  57.920  1.00  0.00     0.022 C 
HETATM   14  C14 UNL     1     -16.185  25.056  57.667  1.00  0.00     0.126 C 
HETATM   15  N4  UNL     1     -15.335  24.999  56.492  1.00  0.00    -0.347 N 
HETATM   16  C16 UNL     1     -12.831  22.260  56.946  1.00  0.00     0.259 C 
HETATM   17  O2  UNL     1     -13.374  21.267  56.401  1.00  0.00    -0.270 OA
ENDROOT
BRANCH  15  18
HETATM   18  C15 UNL     1     -15.142  26.081  55.609  1.00  0.00     0.351 C 
HETATM   19  O1  UNL     1     -14.544  27.119  55.999  1.00  0.00    -0.284 OA
ENDBRANCH  15  18
BRANCH   1  20
HETATM   20  C4  UNL     1     -10.921  20.759  57.655  1.00  0.00     0.156 C 
BRANCH  20  21
HETATM   21  C3  UNL     1     -11.409  19.849  58.754  1.00  0.00     0.291 C 
BRANCH  21  22
HETATM   22  N1  UNL     1     -10.359  19.300  59.563  1.00  0.00     0.081 N 
HETATM   23  C1  UNL     1     -10.222  19.915  60.858  1.00  0.00     0.309 C 
HETATM   24  C2  UNL     1      -9.105  19.155  58.874  1.00  0.00     0.309 C 
ENDBRANCH  21  22
ENDBRANCH  20  21
ENDBRANCH   1  20
TORSDOF 4
ENDMDL
MODEL 2
REMARK VINA RESULT: -6.327322331      4.472      8.122
REMARK  4 active torsions:
REMARK  status: ('A' for Active; 'I' for Inactive)
REMARK    1  A    between atoms: N1_2  and  C3_4 
REMARK    2  A    between atoms: C3_4  and  C4_5 
REMARK    3  A    between atoms: C4_5  and  N2_6 
REMARK    4  A    between atoms: N4_20  and  C15_21 
ROOT
HETATM    1  N2  UNL     1     -11.112  21.497  61.111  1.00  0.00    -0.347 N 
HETATM    2  C5  UNL     1     -10.228  20.423  60.690  1.00  0.00     0.153 C 
HETATM    3  C6  UNL     1      -9.872  19.519  61.847  1.00  0.00     0.253 C 
HETATM    4  N3  UNL     1     -10.949  19.311  62.751  1.00  0.00    -0.053 N 
ATOM      5  H31 UNL     1     -10.704  18.613  63.453  1.00  0.00     0.278 HD
ATOM      6  H32 UNL     1     -11.719  18.823  62.292  1.00  0.00     0.278 HD
HETATM    7  C7  UNL     1     -11.408  20.518  63.369  1.00  0.00     0.230 C 
HETATM    8  C8  UNL     1     -10.326  21.212  64.172  1.00  0.00     0.052 C 
HETATM    9  C9  UNL     1     -11.121  22.148  65.023  1.00  0.00     0.005 C 
HETATM   10  C10 UNL     1     -12.491  21.520  65.207  1.00  0.00     0.034 C 
HETATM   11  C11 UNL     1     -12.508  20.260  64.377  1.00  0.00     0.077 C 
HETATM   12  C12 UNL     1     -13.835  19.990  63.713  1.00  0.00     0.036 C 
HETATM   13  C13 UNL     1     -14.220  18.549  64.054  1.00  0.00     0.022 C 
HETATM   14  C14 UNL     1     -13.023  17.984  64.797  1.00  0.00     0.126 C 
HETATM   15  N4  UNL     1     -12.260  19.139  65.233  1.00  0.00    -0.347 N 
HETATM   16  C16 UNL     1     -11.831  21.463  62.336  1.00  0.00     0.259 C 
HETATM   17  O2  UNL     1     -12.794  22.262  62.449  1.00  0.00    -0.270 OA
ENDROOT
BRANCH  15  18
HETATM   18  C15 UNL     1     -11.404  19.137  66.353  1.00  0.00     0.351 C 
HETATM   19  O1  UNL     1     -11.769  18.596  67.430  1.00  0.00    -0.284 OA
ENDBRANCH  15  18
BRANCH   1  20
HETATM   20  C4  UNL     1     -11.198  22.618  60.174  1.00  0.00     0.156 C 
BRANCH  20  21
HETATM   21  C3  UNL     1     -11.401  22.045  58.795  1.00  0.00     0.291 C 
BRANCH  21  22
HETATM   22  N1  UNL     1     -10.641  22.705  57.773  1.00  0.00     0.081 N 
HETATM   23  C1  UNL     1     -11.437  23.411  56.803  1.00  0.00     0.309 C 
HETATM   24  C2  UNL     1      -9.626  21.880  57.175  1.00  0.00     0.309 C 
ENDBRANCH  21  22
ENDBRANCH  20  21
ENDBRANCH   1  20
TORSDOF 4
ENDMDL
MODEL 3
REMARK VINA RESULT: -6.165081083      4.975      8.347
REMARK  4 active torsions:
REMARK  status: ('A' for Active; 'I' for Inactive)
REMARK    1  A    between atoms: N1_2  and  C3_4 
REMARK    2  A    between atoms: C3_4  and  C4_5 
REMARK    3  A    between atoms: C4_5  and  N2_6 
REMARK    4  A    between atoms: N4_20  and  C15_21 
ROOT
HETATM    1  N2  UNL     1     -11.259  21.714  61.241  1.00  0.00    -0.347 N 
HETATM    2  C5  UNL     1     -10.358  20.701  60.718  1.00  0.00     0.153 C 
HETATM    3  C6  UNL     1      -9.949  19.721  61.793  1.00  0.00     0.253 C 
HETATM    4  N3  UNL     1     -10.997  19.414  62.702  1.00  0.00    -0.053 N 
ATOM      5  H31 UNL     1     -10.715  18.672  63.343  1.00  0.00     0.278 HD
ATOM      6  H32 UNL     1     -11.764  18.941  62.225  1.00  0.00     0.278 HD
HETATM    7  C7  UNL     1     -11.471  20.556  63.423  1.00  0.00     0.230 C 
HETATM    8  C8  UNL     1     -10.389  21.217  64.251  1.00  0.00     0.052 C 
HETATM    9  C9  UNL     1     -11.187  22.062  65.191  1.00  0.00     0.005 C 
HETATM   10  C10 UNL     1     -12.534  21.383  65.357  1.00  0.00     0.034 C 
HETATM   11  C11 UNL     1     -12.538  20.190  64.433  1.00  0.00     0.077 C 
HETATM   12  C12 UNL     1     -13.874  19.935  63.781  1.00  0.00     0.036 C 
HETATM   13  C13 UNL     1     -14.212  18.462  64.018  1.00  0.00     0.022 C 
HETATM   14  C14 UNL     1     -12.982  17.875  64.687  1.00  0.00     0.126 C 
HETATM   15  N4  UNL     1     -12.239  19.015  65.193  1.00  0.00    -0.347 N 
HETATM   16  C16 UNL     1     -11.945  21.566  62.476  1.00  0.00     0.259 C 
HETATM   17  O2  UNL     1     -12.926  22.325  62.673  1.00  0.00    -0.270 OA
ENDROOT
BRANCH  15  18
HETATM   18  C15 UNL     1     -11.355  18.952  66.289  1.00  0.00     0.351 C 
HETATM   19  O1  UNL     1     -11.760  18.540  67.409  1.00  0.00    -0.284 OA
ENDBRANCH  15  18
BRANCH   1  20
HETATM   20  C4  UNL     1     -11.399  22.901  60.396  1.00  0.00     0.156 C 
BRANCH  20  21
HETATM   21  C3  UNL     1     -10.071  23.614  60.391  1.00  0.00     0.291 C 
BRANCH  21  22
HETATM   22  N1  UNL     1      -9.949  24.624  61.403  1.00  0.00     0.081 N 
HETATM   23  C1  UNL     1      -9.611  25.931  60.901  1.00  0.00     0.309 C 
HETATM   24  C2  UNL     1      -9.146  24.229  62.529  1.00  0.00     0.309 C 
ENDBRANCH  21  22
ENDBRANCH  20  21
ENDBRANCH   1  20
TORSDOF 4
ENDMDL
MODEL 4
REMARK VINA RESULT: -5.791184931      1.811      2.647
REMARK  4 active torsions:
REMARK  status: ('A' for Active; 'I' for Inactive)
REMARK    1  A    between atoms: N1_2  and  C3_4 
REMARK    2  A    between atoms: C3_4  and  C4_5 
REMARK    3  A    between atoms: C4_5  and  N2_6 
REMARK    4  A    between atoms: N4_20  and  C15_21 
ROOT
HETATM    1  N2  UNL     1     -11.617  22.799  57.384  1.00  0.00    -0.347 N 
HETATM    2  C5  UNL     1     -10.840  22.888  56.160  1.00  0.00     0.153 C 
HETATM    3  C6  UNL     1     -11.580  23.662  55.093  1.00  0.00     0.253 C 
HETATM    4  N3  UNL     1     -12.321  24.760  55.607  1.00  0.00    -0.053 N 
ATOM      5  H31 UNL     1     -12.714  25.318  54.850  1.00  0.00     0.278 HD
ATOM      6  H32 UNL     1     -11.700  25.455  56.021  1.00  0.00     0.278 HD
HETATM    7  C7  UNL     1     -13.339  24.369  56.535  1.00  0.00     0.230 C 
HETATM    8  C8  UNL     1     -14.361  23.434  55.922  1.00  0.00     0.052 C 
HETATM    9  C9  UNL     1     -15.487  23.519  56.900  1.00  0.00     0.005 C 
HETATM   10  C10 UNL     1     -15.399  24.885  57.556  1.00  0.00     0.034 C 
HETATM   11  C11 UNL     1     -14.157  25.550  57.014  1.00  0.00     0.077 C 
HETATM   12  C12 UNL     1     -13.417  26.376  58.036  1.00  0.00     0.036 C 
HETATM   13  C13 UNL     1     -13.187  27.754  57.413  1.00  0.00     0.022 C 
HETATM   14  C14 UNL     1     -13.684  27.632  55.984  1.00  0.00     0.126 C 
HETATM   15  N4  UNL     1     -14.534  26.456  55.971  1.00  0.00    -0.347 N 
HETATM   16  C16 UNL     1     -12.728  23.645  57.650  1.00  0.00     0.259 C 
HETATM   17  O2  UNL     1     -13.115  23.712  58.843  1.00  0.00    -0.270 OA
ENDROOT
BRANCH  15  18
HETATM   18  C15 UNL     1     -15.586  26.257  55.055  1.00  0.00     0.351 C 
HETATM   19  O1  UNL     1     -15.340  26.097  53.830  1.00  0.00    -0.284 OA
ENDBRANCH  15  18
BRANCH   1  20
HETATM   20  C4  UNL     1     -11.168  21.767  58.319  1.00  0.00     0.156 C 
BRANCH  20  21
HETATM   21  C3  UNL     1     -11.160  20.455  57.578  1.00  0.00     0.291 C 
BRANCH  21  22
HETATM   22  N1  UNL     1     -10.170  19.528  58.046  1.00  0.00     0.081 N 
HETATM   23  C1  UNL     1     -10.091  19.417  59.480  1.00  0.00     0.309 C 
HETATM   24  C2  UNL     1      -8.884  19.683  57.422  1.00  0.00     0.309 C 
ENDBRANCH  21  22
ENDBRANCH  20  21
ENDBRANCH   1  20
TORSDOF 4
ENDMDL
MODEL 5
REMARK VINA RESULT: -5.733901430      2.108      3.477
REMARK  4 active torsions:
REMARK  status: ('A' for Active; 'I' for Inactive)
REMARK    1  A    between atoms: N1_2  and  C3_4 
REMARK    2  A    between atoms: C3_4  and  C4_5 
REMARK    3  A    between atoms: C4_5  and  N2_6 
REMARK    4  A    between atoms: N4_20  and  C15_21 
ROOT
HETATM    1  N2  UNL     1     -11.549  22.968  58.504  1.00  0.00    -0.347 N 
HETATM    2  C5  UNL     1     -11.513  21.595  58.030  1.00  0.00     0.153 C 
HETATM    3  C6  UNL     1     -12.643  21.315  57.067  1.00  0.00     0.253 C 
HETATM    4  N3  UNL     1     -12.937  22.410  56.210  1.00  0.00    -0.053 N 
ATOM      5  H31 UNL     1     -13.627  22.147  55.507  1.00  0.00     0.278 HD
ATOM      6  H32 UNL     1     -12.146  22.615  55.600  1.00  0.00     0.278 HD
HETATM    7  C7  UNL     1     -13.352  23.584  56.917  1.00  0.00     0.230 C 
HETATM    8  C8  UNL     1     -14.604  23.360  57.740  1.00  0.00     0.052 C 
HETATM    9  C9  UNL     1     -15.054  24.758  58.012  1.00  0.00     0.005 C 
HETATM   10  C10 UNL     1     -14.548  25.614  56.865  1.00  0.00     0.034 C 
HETATM   11  C11 UNL     1     -13.724  24.713  55.978  1.00  0.00     0.077 C 
HETATM   12  C12 UNL     1     -12.509  25.387  55.392  1.00  0.00     0.036 C 
HETATM   13  C13 UNL     1     -12.542  25.132  53.884  1.00  0.00     0.022 C 
HETATM   14  C14 UNL     1     -13.713  24.191  53.666  1.00  0.00     0.126 C 
HETATM   15  N4  UNL     1     -14.524  24.302  54.865  1.00  0.00    -0.347 N 
HETATM   16  C16 UNL     1     -12.303  23.983  57.855  1.00  0.00     0.259 C 
HETATM   17  O2  UNL     1     -12.013  25.172  58.139  1.00  0.00    -0.270 OA
ENDROOT
BRANCH  15  18
HETATM   18  C15 UNL     1     -15.909  24.043  54.903  1.00  0.00     0.351 C 
HETATM   19  O1  UNL     1     -16.342  22.874  54.723  1.00  0.00    -0.284 OA
ENDBRANCH  15  18
BRANCH   1  20
HETATM   20  C4  UNL     1     -10.752  23.221  59.704  1.00  0.00     0.156 C 
BRANCH  20  21
HETATM   21  C3  UNL     1     -11.026  22.101  60.676  1.00  0.00     0.291 C 
BRANCH  21  22
HETATM   22  N1  UNL     1     -10.671  22.409  62.033  1.00  0.00     0.081 N 
HETATM   23  C1  UNL     1      -9.803  23.549  62.175  1.00  0.00     0.309 C 
HETATM   24  C2  UNL     1     -10.235  21.270  62.794  1.00  0.00     0.309 C 
ENDBRANCH  21  22
ENDBRANCH  20  21
ENDBRANCH   1  20
TORSDOF 4
ENDMDL
