MODEL 1
REMARK VINA RESULT: -8.778430946      0.000      0.000
REMARK  3 active torsions:
REMARK  status: ('A' for Active; 'I' for Inactive)
REMARK       I    between atoms: N2_5  and  C4_6 
REMARK    1  A    between atoms: C4_6  and  C5_8 
REMARK    2  A    between atoms: C5_8  and  C6_9 
REMARK    3  A    between atoms: C6_9  and  C7_10 
ROOT
HETATM    1  C7  UNL     1     -10.459  20.119  61.118  1.00  0.00     0.084 A 
HETATM    2  N3  UNL     1     -10.253  21.407  61.352  1.00  0.00    -0.312 N 
ATOM      3  H3  UNL     1      -9.937  21.974  60.564  1.00  0.00     0.170 HD
HETATM    4  C8  UNL     1     -10.419  22.038  62.524  1.00  0.00     0.255 A 
HETATM    5  O2  UNL     1     -10.201  23.248  62.649  1.00  0.00    -0.268 OA
HETATM    6  C9  UNL     1     -10.844  21.286  63.595  1.00  0.00     0.032 A 
HETATM    7  C10 UNL     1     -11.067  19.942  63.378  1.00  0.00     0.022 A 
HETATM    8  N4  UNL     1     -10.879  19.377  62.173  1.00  0.00    -0.349 N 
ATOM      9  H4  UNL     1     -11.053  18.379  62.050  1.00  0.00     0.167 HD
HETATM   10  C11 UNL     1     -11.528  19.152  64.559  1.00  0.00     0.058 C 
HETATM   11  C12 UNL     1     -12.557  19.868  65.369  1.00  0.00     0.006 C 
HETATM   12  C13 UNL     1     -12.374  21.344  65.459  1.00  0.00     0.005 C 
HETATM   13  C14 UNL     1     -11.070  21.853  64.946  1.00  0.00     0.046 C 
ENDROOT
BRANCH   1  14
HETATM   14  C6  UNL     1     -10.247  19.524  59.795  1.00  0.00     0.086 C 
BRANCH  14  15
HETATM   15  C5  UNL     1     -10.326  20.466  58.652  1.00  0.00     0.110 C 
BRANCH  15  16
HETATM   16  C4  UNL     1     -11.683  20.740  58.156  1.00  0.00     0.220 C 
HETATM   17  N2  UNL     1     -11.887  21.771  57.182  1.00  0.00    -0.349 N 
HETATM   18  C3  UNL     1     -10.771  22.522  56.702  1.00  0.00     0.156 C 
HETATM   19  C15 UNL     1     -13.227  22.014  56.721  1.00  0.00     0.156 C 
HETATM   20  C2  UNL     1     -11.031  23.437  55.563  1.00  0.00     0.291 C 
HETATM   21  N1  UNL     1     -12.349  23.399  55.010  1.00  0.00     0.087 N 
HETATM   22  C1  UNL     1     -12.573  24.504  54.122  1.00  0.00     0.310 C 
HETATM   23  C16 UNL     1     -13.296  23.396  56.108  1.00  0.00     0.291 C 
HETATM   24  O1  UNL     1     -12.646  20.062  58.596  1.00  0.00    -0.273 OA
ENDBRANCH  15  16
ENDBRANCH  14  15
ENDBRANCH   1  14
TORSDOF 3
ENDMDL
MODEL 2
REMARK VINA RESULT: -8.459880929      1.941      2.069
REMARK  3 active torsions:
REMARK  status: ('A' for Active; 'I' for Inactive)
REMARK       I    between atoms: N2_5  and  C4_6 
REMARK    1  A    between atoms: C4_6  and  C5_8 
REMARK    2  A    between atoms: C5_8  and  C6_9 
REMARK    3  A    between atoms: C6_9  and  C7_10 
ROOT
HETATM    1  C7  UNL     1     -11.341  20.688  60.327  1.00  0.00     0.084 A 
HETATM    2  N3  UNL     1     -10.619  21.730  60.712  1.00  0.00    -0.312 N 
ATOM      3  H3  UNL     1     -10.066  22.199  59.994  1.00  0.00     0.170 HD
HETATM    4  C8  UNL     1     -10.545  22.229  61.955  1.00  0.00     0.255 A 
HETATM    5  O2  UNL     1      -9.840  23.210  62.223  1.00  0.00    -0.268 OA
HETATM    6  C9  UNL     1     -11.285  21.607  62.934  1.00  0.00     0.032 A 
HETATM    7  C10 UNL     1     -12.046  20.520  62.559  1.00  0.00     0.022 A 
HETATM    8  N4  UNL     1     -12.072  20.075  61.291  1.00  0.00    -0.349 N 
ATOM      9  H4  UNL     1     -12.647  19.267  61.051  1.00  0.00     0.167 HD
HETATM   10  C11 UNL     1     -12.840  19.866  63.643  1.00  0.00     0.058 C 
HETATM   11  C12 UNL     1     -13.498  20.849  64.553  1.00  0.00     0.006 C 
HETATM   12  C13 UNL     1     -12.713  22.087  64.818  1.00  0.00     0.005 C 
HETATM   13  C14 UNL     1     -11.298  22.053  64.348  1.00  0.00     0.046 C 
ENDROOT
BRANCH   1  14
HETATM   14  C6  UNL     1     -11.354  20.220  58.938  1.00  0.00     0.086 C 
BRANCH  14  15
HETATM   15  C5  UNL     1     -11.239  21.280  57.907  1.00  0.00     0.110 C 
BRANCH  15  16
HETATM   16  C4  UNL     1     -12.512  21.877  57.475  1.00  0.00     0.220 C 
HETATM   17  N2  UNL     1     -12.723  23.286  57.630  1.00  0.00    -0.349 N 
HETATM   18  C3  UNL     1     -11.696  24.096  58.203  1.00  0.00     0.156 C 
HETATM   19  C15 UNL     1     -13.980  23.835  57.200  1.00  0.00     0.156 C 
HETATM   20  C2  UNL     1     -11.911  25.564  58.158  1.00  0.00     0.291 C 
HETATM   21  N1  UNL     1     -13.078  26.011  57.463  1.00  0.00     0.087 N 
HETATM   22  C1  UNL     1     -13.338  27.399  57.722  1.00  0.00     0.310 C 
HETATM   23  C16 UNL     1     -14.191  25.175  57.872  1.00  0.00     0.291 C 
HETATM   24  O1  UNL     1     -13.397  21.138  56.973  1.00  0.00    -0.273 OA
ENDBRANCH  15  16
ENDBRANCH  14  15
ENDBRANCH   1  14
TORSDOF 3
ENDMDL
MODEL 3
REMARK VINA RESULT: -8.430332919      6.203      8.722
REMARK  3 active torsions:
REMARK  status: ('A' for Active; 'I' for Inactive)
REMARK       I    between atoms: N2_5  and  C4_6 
REMARK    1  A    between atoms: C4_6  and  C5_8 
REMARK    2  A    between atoms: C5_8  and  C6_9 
REMARK    3  A    between atoms: C6_9  and  C7_10 
ROOT
HETATM    1  C7  UNL     1      -8.552  24.204  63.977  1.00  0.00     0.084 A 
HETATM    2  N3  UNL     1      -9.009  24.427  65.201  1.00  0.00    -0.312 N 
ATOM      3  H3  UNL     1      -8.537  25.151  65.744  1.00  0.00     0.170 HD
HETATM    4  C8  UNL     1     -10.030  23.793  65.795  1.00  0.00     0.255 A 
HETATM    5  O2  UNL     1     -10.387  24.069  66.946  1.00  0.00    -0.268 OA
HETATM    6  C9  UNL     1     -10.676  22.814  65.075  1.00  0.00     0.032 A 
HETATM    7  C10 UNL     1     -10.221  22.563  63.797  1.00  0.00     0.022 A 
HETATM    8  N4  UNL     1      -9.188  23.239  63.265  1.00  0.00    -0.349 N 
ATOM      9  H4  UNL     1      -8.879  23.026  62.317  1.00  0.00     0.167 HD
HETATM   10  C11 UNL     1     -10.940  21.495  63.039  1.00  0.00     0.058 C 
HETATM   11  C12 UNL     1     -12.422  21.562  63.211  1.00  0.00     0.006 C 
HETATM   12  C13 UNL     1     -12.882  21.986  64.563  1.00  0.00     0.005 C 
HETATM   13  C14 UNL     1     -11.819  22.035  65.607  1.00  0.00     0.046 C 
ENDROOT
BRANCH   1  14
HETATM   14  C6  UNL     1      -7.425  24.955  63.417  1.00  0.00     0.086 C 
BRANCH  14  15
HETATM   15  C5  UNL     1      -7.561  26.431  63.454  1.00  0.00     0.110 C 
BRANCH  15  16
HETATM   16  C4  UNL     1      -6.523  27.140  64.217  1.00  0.00     0.220 C 
HETATM   17  N2  UNL     1      -6.744  28.496  64.624  1.00  0.00    -0.349 N 
HETATM   18  C3  UNL     1      -7.970  29.146  64.286  1.00  0.00     0.156 C 
HETATM   19  C15 UNL     1      -5.707  29.159  65.367  1.00  0.00     0.156 C 
HETATM   20  C2  UNL     1      -8.204  30.476  64.900  1.00  0.00     0.291 C 
HETATM   21  N1  UNL     1      -7.220  30.921  65.837  1.00  0.00     0.087 N 
HETATM   22  C1  UNL     1      -7.390  32.313  66.147  1.00  0.00     0.310 C 
HETATM   23  C16 UNL     1      -5.911  30.656  65.273  1.00  0.00     0.291 C 
HETATM   24  O1  UNL     1      -5.454  26.541  64.502  1.00  0.00    -0.273 OA
ENDBRANCH  15  16
ENDBRANCH  14  15
ENDBRANCH   1  14
TORSDOF 3
ENDMDL
MODEL 4
REMARK VINA RESULT: -8.419287271      1.131      1.463
REMARK  3 active torsions:
REMARK  status: ('A' for Active; 'I' for Inactive)
REMARK       I    between atoms: N2_5  and  C4_6 
REMARK    1  A    between atoms: C4_6  and  C5_8 
REMARK    2  A    between atoms: C5_8  and  C6_9 
REMARK    3  A    between atoms: C6_9  and  C7_10 
ROOT
HETATM    1  C7  UNL     1     -10.464  20.130  61.281  1.00  0.00     0.084 A 
HETATM    2  N3  UNL     1     -10.289  21.436  61.421  1.00  0.00    -0.312 N 
ATOM      3  H3  UNL     1     -10.009  21.955  60.588  1.00  0.00     0.170 HD
HETATM    4  C8  UNL     1     -10.445  22.142  62.550  1.00  0.00     0.255 A 
HETATM    5  O2  UNL     1     -10.258  23.364  62.587  1.00  0.00    -0.268 OA
HETATM    6  C9  UNL     1     -10.822  21.455  63.682  1.00  0.00     0.032 A 
HETATM    7  C10 UNL     1     -11.011  20.094  63.564  1.00  0.00     0.022 A 
HETATM    8  N4  UNL     1     -10.837  19.452  62.396  1.00  0.00    -0.349 N 
ATOM      9  H4  UNL     1     -10.986  18.444  62.346  1.00  0.00     0.167 HD
HETATM   10  C11 UNL     1     -11.421  19.375  64.808  1.00  0.00     0.058 C 
HETATM   11  C12 UNL     1     -12.449  20.119  65.594  1.00  0.00     0.006 C 
HETATM   12  C13 UNL     1     -12.307  21.601  65.577  1.00  0.00     0.005 C 
HETATM   13  C14 UNL     1     -11.030  22.108  64.996  1.00  0.00     0.046 C 
ENDROOT
BRANCH   1  14
HETATM   14  C6  UNL     1     -10.268  19.451  59.997  1.00  0.00     0.086 C 
BRANCH  14  15
HETATM   15  C5  UNL     1     -11.129  19.925  58.887  1.00  0.00     0.110 C 
BRANCH  15  16
HETATM   16  C4  UNL     1     -10.434  20.673  57.828  1.00  0.00     0.220 C 
HETATM   17  N2  UNL     1     -11.029  21.862  57.293  1.00  0.00    -0.349 N 
HETATM   18  C3  UNL     1     -12.289  22.310  57.793  1.00  0.00     0.156 C 
HETATM   19  C15 UNL     1     -10.323  22.566  56.257  1.00  0.00     0.156 C 
HETATM   20  C2  UNL     1     -12.748  23.642  57.329  1.00  0.00     0.291 C 
HETATM   21  N1  UNL     1     -11.836  24.373  56.504  1.00  0.00     0.087 N 
HETATM   22  C1  UNL     1     -12.480  25.498  55.887  1.00  0.00     0.310 C 
HETATM   23  C16 UNL     1     -11.295  23.460  55.516  1.00  0.00     0.291 C 
HETATM   24  O1  UNL     1      -9.325  20.254  57.408  1.00  0.00    -0.273 OA
ENDBRANCH  15  16
ENDBRANCH  14  15
ENDBRANCH   1  14
TORSDOF 3
ENDMDL
MODEL 5
REMARK VINA RESULT: -8.385782841      1.364      2.001
REMARK  3 active torsions:
REMARK  status: ('A' for Active; 'I' for Inactive)
REMARK       I    between atoms: N2_5  and  C4_6 
REMARK    1  A    between atoms: C4_6  and  C5_8 
REMARK    2  A    between atoms: C5_8  and  C6_9 
REMARK    3  A    between atoms: C6_9  and  C7_10 
ROOT
HETATM    1  C7  UNL     1     -10.745  20.287  61.366  1.00  0.00     0.084 A 
HETATM    2  N3  UNL     1     -11.828  19.836  61.983  1.00  0.00    -0.312 N 
ATOM      3  H3  UNL     1     -12.259  18.994  61.600  1.00  0.00     0.170 HD
HETATM    4  C8  UNL     1     -12.413  20.380  63.060  1.00  0.00     0.255 A 
HETATM    5  O2  UNL     1     -13.427  19.889  63.569  1.00  0.00    -0.268 OA
HETATM    6  C9  UNL     1     -11.843  21.517  63.586  1.00  0.00     0.032 A 
HETATM    7  C10 UNL     1     -10.714  22.007  62.963  1.00  0.00     0.022 A 
HETATM    8  N4  UNL     1     -10.181  21.407  61.884  1.00  0.00    -0.349 N 
ATOM      9  H4  UNL     1      -9.345  21.798  61.450  1.00  0.00     0.167 HD
HETATM   10  C11 UNL     1     -10.117  23.241  63.556  1.00  0.00     0.058 C 
HETATM   11  C12 UNL     1     -10.086  23.210  65.049  1.00  0.00     0.006 C 
HETATM   12  C13 UNL     1     -11.250  22.537  65.690  1.00  0.00     0.005 C 
HETATM   13  C14 UNL     1     -12.383  22.221  64.772  1.00  0.00     0.046 C 
ENDROOT
BRANCH   1  14
HETATM   14  C6  UNL     1     -10.182  19.616  60.191  1.00  0.00     0.086 C 
BRANCH  14  15
HETATM   15  C5  UNL     1     -10.261  20.380  58.922  1.00  0.00     0.110 C 
BRANCH  15  16
HETATM   16  C4  UNL     1     -11.621  20.618  58.415  1.00  0.00     0.220 C 
HETATM   17  N2  UNL     1     -11.840  21.622  57.417  1.00  0.00    -0.349 N 
HETATM   18  C3  UNL     1     -10.737  22.382  56.924  1.00  0.00     0.156 C 
HETATM   19  C15 UNL     1     -13.183  21.830  56.946  1.00  0.00     0.156 C 
HETATM   20  C2  UNL     1     -11.009  23.266  55.763  1.00  0.00     0.291 C 
HETATM   21  N1  UNL     1     -12.324  23.191  55.207  1.00  0.00     0.087 N 
HETATM   22  C1  UNL     1     -12.564  24.271  54.293  1.00  0.00     0.310 C 
HETATM   23  C16 UNL     1     -13.275  23.196  56.301  1.00  0.00     0.291 C 
HETATM   24  O1  UNL     1     -12.573  19.932  58.868  1.00  0.00    -0.273 OA
ENDBRANCH  15  16
ENDBRANCH  14  15
ENDBRANCH   1  14
TORSDOF 3
ENDMDL
