MODEL 1
REMARK VINA RESULT: -8.363444998      0.000      0.000
REMARK  7 active torsions:
REMARK  status: ('A' for Active; 'I' for Inactive)
REMARK    1  A    between atoms: C4_4  and  C5_5 
REMARK    2  A    between atoms: C6_6  and  C7_7 
REMARK    3  A    between atoms: C9_9  and  C10_10 
REMARK    4  A    between atoms: C10_10  and  C11_11 
REMARK    5  A    between atoms: C11_11  and  C12_12 
REMARK    6  A    between atoms: C12_12  and  O2_14 
REMARK    7  A    between atoms: O2_14  and  C13_15 
ROOT
HETATM    1  C7  UNL     1     -13.200  -8.974   7.864  1.00  0.00     0.052 C 
HETATM    2  C8  UNL     1     -13.360  -7.827   6.928  1.00  0.00    -0.068 C 
HETATM    3  C9  UNL     1     -13.833  -7.771   5.713  1.00  0.00    -0.022 C 
HETATM    4  C17 UNL     1     -12.830  -6.646   7.712  1.00  0.00     0.113 C 
HETATM    5  C18 UNL     1     -12.959  -7.045   9.132  1.00  0.00     0.139 C 
HETATM    6  O3  UNL     1     -12.548  -6.441  10.091  1.00  0.00    -0.297 OA
HETATM    7  C19 UNL     1     -13.689  -8.332   9.167  1.00  0.00     0.024 C 
HETATM    8  C20 UNL     1     -13.314  -9.175  10.361  1.00  0.00     0.024 C 
HETATM    9  C21 UNL     1     -15.159  -8.061   9.088  1.00  0.00     0.024 C 
ENDROOT
BRANCH   1  10
HETATM   10  C6  UNL     1     -11.740  -9.239   7.971  1.00  0.00    -0.017 C 
HETATM   11  C5  UNL     1     -11.004  -9.688   7.005  1.00  0.00    -0.003 C 
BRANCH  11  12
HETATM   12  C4  UNL     1      -9.585  -9.916   7.204  1.00  0.00     0.002 C 
HETATM   13  C2  UNL     1      -8.746  -8.929   7.420  1.00  0.00    -0.088 C 
HETATM   14  C1  UNL     1      -7.297  -9.183   7.622  1.00  0.00     0.043 C 
HETATM   15  C3  UNL     1      -9.307  -7.540   7.454  1.00  0.00     0.043 C 
ENDBRANCH  11  12
ENDBRANCH   1  10
BRANCH   3  16
HETATM   16  C10 UNL     1     -14.331  -8.974   5.021  1.00  0.00     0.037 C 
BRANCH  16  17
HETATM   17  C11 UNL     1     -14.938  -8.635   3.653  1.00  0.00     0.115 C 
BRANCH  17  18
HETATM   18  C12 UNL     1     -16.341  -8.219   3.879  1.00  0.00     0.259 C 
HETATM   19  O1  UNL     1     -17.210  -9.007   4.364  1.00  0.00    -0.265 OA
BRANCH  18  20
HETATM   20  O2  UNL     1     -16.782  -6.944   3.573  1.00  0.00    -0.311 OA
BRANCH  20  21
HETATM   21  C13 UNL     1     -16.915  -5.959   4.577  1.00  0.00     0.060 C 
HETATM   22  C14 UNL     1     -15.816  -4.937   4.541  1.00  0.00     0.045 C 
HETATM   23  C15 UNL     1     -17.012  -6.540   5.957  1.00  0.00     0.045 C 
HETATM   24  C16 UNL     1     -18.219  -5.229   4.302  1.00  0.00     0.045 C 
ENDBRANCH  20  21
ENDBRANCH  18  20
ENDBRANCH  17  18
ENDBRANCH  16  17
ENDBRANCH   3  16
TORSDOF 7
ENDMDL
MODEL 2
REMARK VINA RESULT: -8.219683430      2.534      6.771
REMARK  7 active torsions:
REMARK  status: ('A' for Active; 'I' for Inactive)
REMARK    1  A    between atoms: C4_4  and  C5_5 
REMARK    2  A    between atoms: C6_6  and  C7_7 
REMARK    3  A    between atoms: C9_9  and  C10_10 
REMARK    4  A    between atoms: C10_10  and  C11_11 
REMARK    5  A    between atoms: C11_11  and  C12_12 
REMARK    6  A    between atoms: C12_12  and  O2_14 
REMARK    7  A    between atoms: O2_14  and  C13_15 
ROOT
HETATM    1  C7  UNL     1     -12.834  -7.401   7.862  1.00  0.00     0.052 C 
HETATM    2  C8  UNL     1     -12.759  -8.857   8.163  1.00  0.00    -0.068 C 
HETATM    3  C9  UNL     1     -12.048  -9.809   7.621  1.00  0.00    -0.022 C 
HETATM    4  C17 UNL     1     -13.737  -9.042   9.303  1.00  0.00     0.113 C 
HETATM    5  C18 UNL     1     -13.842  -7.704   9.932  1.00  0.00     0.139 C 
HETATM    6  O3  UNL     1     -14.602  -7.378  10.808  1.00  0.00    -0.297 OA
HETATM    7  C19 UNL     1     -12.838  -6.830   9.285  1.00  0.00     0.024 C 
HETATM    8  C20 UNL     1     -13.253  -5.379   9.287  1.00  0.00     0.024 C 
HETATM    9  C21 UNL     1     -11.507  -7.053   9.933  1.00  0.00     0.024 C 
ENDROOT
BRANCH   1  10
HETATM   10  C6  UNL     1     -14.164  -7.161   7.240  1.00  0.00    -0.017 C 
HETATM   11  C5  UNL     1     -14.340  -6.676   6.052  1.00  0.00    -0.003 C 
BRANCH  11  12
HETATM   12  C4  UNL     1     -15.679  -6.476   5.529  1.00  0.00     0.002 C 
HETATM   13  C2  UNL     1     -15.985  -5.441   4.781  1.00  0.00    -0.088 C 
HETATM   14  C1  UNL     1     -17.361  -5.254   4.255  1.00  0.00     0.043 C 
HETATM   15  C3  UNL     1     -14.895  -4.458   4.480  1.00  0.00     0.043 C 
ENDBRANCH  11  12
ENDBRANCH   1  10
BRANCH   3  16
HETATM   16  C10 UNL     1     -11.117  -9.541   6.510  1.00  0.00     0.037 C 
BRANCH  16  17
HETATM   17  C11 UNL     1      -9.899 -10.473   6.550  1.00  0.00     0.115 C 
BRANCH  17  18
HETATM   18  C12 UNL     1      -8.919  -9.886   7.492  1.00  0.00     0.259 C 
HETATM   19  O1  UNL     1      -8.039 -10.589   8.077  1.00  0.00    -0.265 OA
BRANCH  18  20
HETATM   20  O2  UNL     1      -8.910  -8.535   7.787  1.00  0.00    -0.311 OA
BRANCH  20  21
HETATM   21  C13 UNL     1      -7.837  -7.709   7.383  1.00  0.00     0.060 C 
HETATM   22  C14 UNL     1      -7.115  -8.239   6.178  1.00  0.00     0.045 C 
HETATM   23  C15 UNL     1      -6.850  -7.451   8.483  1.00  0.00     0.045 C 
HETATM   24  C16 UNL     1      -8.440  -6.369   6.994  1.00  0.00     0.045 C 
ENDBRANCH  20  21
ENDBRANCH  18  20
ENDBRANCH  17  18
ENDBRANCH  16  17
ENDBRANCH   3  16
TORSDOF 7
ENDMDL
MODEL 3
REMARK VINA RESULT: -8.131754953      1.477      2.412
REMARK  7 active torsions:
REMARK  status: ('A' for Active; 'I' for Inactive)
REMARK    1  A    between atoms: C4_4  and  C5_5 
REMARK    2  A    between atoms: C6_6  and  C7_7 
REMARK    3  A    between atoms: C9_9  and  C10_10 
REMARK    4  A    between atoms: C10_10  and  C11_11 
REMARK    5  A    between atoms: C11_11  and  C12_12 
REMARK    6  A    between atoms: C12_12  and  O2_14 
REMARK    7  A    between atoms: O2_14  and  C13_15 
ROOT
HETATM    1  C7  UNL     1     -12.949  -7.839   7.357  1.00  0.00     0.052 C 
HETATM    2  C8  UNL     1     -13.863  -6.679   7.551  1.00  0.00    -0.068 C 
HETATM    3  C9  UNL     1     -14.479  -5.919   6.687  1.00  0.00    -0.022 C 
HETATM    4  C17 UNL     1     -13.948  -6.535   9.055  1.00  0.00     0.113 C 
HETATM    5  C18 UNL     1     -13.603  -7.875   9.584  1.00  0.00     0.139 C 
HETATM    6  O3  UNL     1     -13.441  -8.173  10.740  1.00  0.00    -0.297 OA
HETATM    7  C19 UNL     1     -13.490  -8.792   8.428  1.00  0.00     0.024 C 
HETATM    8  C20 UNL     1     -12.526  -9.924   8.685  1.00  0.00     0.024 C 
HETATM    9  C21 UNL     1     -14.857  -9.271   8.050  1.00  0.00     0.024 C 
ENDROOT
BRANCH   1  10
HETATM   10  C6  UNL     1     -11.590  -7.384   7.754  1.00  0.00    -0.017 C 
HETATM   11  C5  UNL     1     -10.498  -8.040   7.515  1.00  0.00    -0.003 C 
BRANCH  11  12
HETATM   12  C4  UNL     1      -9.215  -7.515   7.942  1.00  0.00     0.002 C 
HETATM   13  C2  UNL     1      -8.155  -8.282   8.060  1.00  0.00    -0.088 C 
HETATM   14  C1  UNL     1      -6.851  -7.726   8.499  1.00  0.00     0.043 C 
HETATM   15  C3  UNL     1      -8.314  -9.736   7.736  1.00  0.00     0.043 C 
ENDBRANCH  11  12
ENDBRANCH   1  10
BRANCH   3  16
HETATM   16  C10 UNL     1     -14.340  -6.129   5.235  1.00  0.00     0.037 C 
BRANCH  16  17
HETATM   17  C11 UNL     1     -15.368  -5.314   4.439  1.00  0.00     0.115 C 
BRANCH  17  18
HETATM   18  C12 UNL     1     -16.711  -5.673   4.948  1.00  0.00     0.259 C 
HETATM   19  O1  UNL     1     -17.637  -4.814   5.075  1.00  0.00    -0.265 OA
BRANCH  18  20
HETATM   20  O2  UNL     1     -17.031  -6.968   5.314  1.00  0.00    -0.311 OA
BRANCH  20  21
HETATM   21  C13 UNL     1     -17.434  -7.918   4.350  1.00  0.00     0.060 C 
HETATM   22  C14 UNL     1     -16.314  -8.816   3.911  1.00  0.00     0.045 C 
HETATM   23  C15 UNL     1     -18.075  -7.294   3.146  1.00  0.00     0.045 C 
HETATM   24  C16 UNL     1     -18.481  -8.797   5.015  1.00  0.00     0.045 C 
ENDBRANCH  20  21
ENDBRANCH  18  20
ENDBRANCH  17  18
ENDBRANCH  16  17
ENDBRANCH   3  16
TORSDOF 7
ENDMDL
MODEL 4
REMARK VINA RESULT: -7.904433135      2.532      7.228
REMARK  7 active torsions:
REMARK  status: ('A' for Active; 'I' for Inactive)
REMARK    1  A    between atoms: C4_4  and  C5_5 
REMARK    2  A    between atoms: C6_6  and  C7_7 
REMARK    3  A    between atoms: C9_9  and  C10_10 
REMARK    4  A    between atoms: C10_10  and  C11_11 
REMARK    5  A    between atoms: C11_11  and  C12_12 
REMARK    6  A    between atoms: C12_12  and  O2_14 
REMARK    7  A    between atoms: O2_14  and  C13_15 
ROOT
HETATM    1  C7  UNL     1     -12.328  -7.193   8.092  1.00  0.00     0.052 C 
HETATM    2  C8  UNL     1     -11.870  -8.566   8.443  1.00  0.00    -0.068 C 
HETATM    3  C9  UNL     1     -10.828  -9.249   8.052  1.00  0.00    -0.022 C 
HETATM    4  C17 UNL     1     -12.921  -9.060   9.413  1.00  0.00     0.113 C 
HETATM    5  C18 UNL     1     -13.523  -7.830   9.977  1.00  0.00     0.139 C 
HETATM    6  O3  UNL     1     -14.479  -7.765  10.708  1.00  0.00    -0.297 OA
HETATM    7  C19 UNL     1     -12.736  -6.680   9.478  1.00  0.00     0.024 C 
HETATM    8  C20 UNL     1     -13.560  -5.421   9.370  1.00  0.00     0.024 C 
HETATM    9  C21 UNL     1     -11.524  -6.508  10.341  1.00  0.00     0.024 C 
ENDROOT
BRANCH   1  10
HETATM   10  C6  UNL     1     -13.547  -7.349   7.254  1.00  0.00    -0.017 C 
HETATM   11  C5  UNL     1     -13.753  -6.729   6.136  1.00  0.00    -0.003 C 
BRANCH  11  12
HETATM   12  C4  UNL     1     -14.977  -6.946   5.387  1.00  0.00     0.002 C 
HETATM   13  C2  UNL     1     -15.514  -6.003   4.647  1.00  0.00    -0.088 C 
HETATM   14  C1  UNL     1     -16.767  -6.245   3.888  1.00  0.00     0.043 C 
HETATM   15  C3  UNL     1     -14.816  -4.679   4.599  1.00  0.00     0.043 C 
ENDBRANCH  11  12
ENDBRANCH   1  10
BRANCH   3  16
HETATM   16  C10 UNL     1      -9.851  -8.690   7.100  1.00  0.00     0.037 C 
BRANCH  16  17
HETATM   17  C11 UNL     1      -8.488  -8.445   7.761  1.00  0.00     0.115 C 
BRANCH  17  18
HETATM   18  C12 UNL     1      -8.156  -7.013   7.580  1.00  0.00     0.259 C 
HETATM   19  O1  UNL     1      -9.052  -6.118   7.487  1.00  0.00    -0.265 OA
BRANCH  18  20
HETATM   20  O2  UNL     1      -6.848  -6.572   7.503  1.00  0.00    -0.311 OA
BRANCH  20  21
HETATM   21  C13 UNL     1      -6.053  -6.846   6.369  1.00  0.00     0.060 C 
HETATM   22  C14 UNL     1      -6.794  -6.657   5.077  1.00  0.00     0.045 C 
HETATM   23  C15 UNL     1      -5.443  -8.216   6.398  1.00  0.00     0.045 C 
HETATM   24  C16 UNL     1      -4.911  -5.843   6.383  1.00  0.00     0.045 C 
ENDBRANCH  20  21
ENDBRANCH  18  20
ENDBRANCH  17  18
ENDBRANCH  16  17
ENDBRANCH   3  16
TORSDOF 7
ENDMDL
MODEL 5
REMARK VINA RESULT: -7.881716623      2.066      3.818
REMARK  7 active torsions:
REMARK  status: ('A' for Active; 'I' for Inactive)
REMARK    1  A    between atoms: C4_4  and  C5_5 
REMARK    2  A    between atoms: C6_6  and  C7_7 
REMARK    3  A    between atoms: C9_9  and  C10_10 
REMARK    4  A    between atoms: C10_10  and  C11_11 
REMARK    5  A    between atoms: C11_11  and  C12_12 
REMARK    6  A    between atoms: C12_12  and  O2_14 
REMARK    7  A    between atoms: O2_14  and  C13_15 
ROOT
HETATM    1  C7  UNL     1     -12.831  -7.816   7.070  1.00  0.00     0.052 C 
HETATM    2  C8  UNL     1     -14.314  -7.712   7.148  1.00  0.00    -0.068 C 
HETATM    3  C9  UNL     1     -15.137  -6.815   6.676  1.00  0.00    -0.022 C 
HETATM    4  C17 UNL     1     -14.721  -8.937   7.938  1.00  0.00     0.113 C 
HETATM    5  C18 UNL     1     -13.607  -9.896   7.750  1.00  0.00     0.139 C 
HETATM    6  O3  UNL     1     -13.471 -10.959   8.301  1.00  0.00    -0.297 OA
HETATM    7  C19 UNL     1     -12.679  -9.309   6.758  1.00  0.00     0.024 C 
HETATM    8  C20 UNL     1     -11.255  -9.765   6.961  1.00  0.00     0.024 C 
HETATM    9  C21 UNL     1     -13.190  -9.602   5.380  1.00  0.00     0.024 C 
ENDROOT
BRANCH   1  10
HETATM   10  C6  UNL     1     -12.311  -7.552   8.439  1.00  0.00    -0.017 C 
HETATM   11  C5  UNL     1     -11.647  -6.494   8.779  1.00  0.00    -0.003 C 
BRANCH  11  12
HETATM   12  C4  UNL     1     -11.178  -6.324  10.142  1.00  0.00     0.002 C 
HETATM   13  C2  UNL     1     -11.909  -5.732  11.059  1.00  0.00    -0.088 C 
HETATM   14  C1  UNL     1     -11.412  -5.568  12.448  1.00  0.00     0.043 C 
HETATM   15  C3  UNL     1     -13.260  -5.230  10.649  1.00  0.00     0.043 C 
ENDBRANCH  11  12
ENDBRANCH   1  10
BRANCH   3  16
HETATM   16  C10 UNL     1     -14.654  -5.648   5.916  1.00  0.00     0.037 C 
BRANCH  16  17
HETATM   17  C11 UNL     1     -15.516  -5.380   4.675  1.00  0.00     0.115 C 
BRANCH  17  18
HETATM   18  C12 UNL     1     -16.922  -5.670   5.038  1.00  0.00     0.259 C 
HETATM   19  O1  UNL     1     -17.818  -4.770   5.043  1.00  0.00    -0.265 OA
BRANCH  18  20
HETATM   20  O2  UNL     1     -17.337  -6.940   5.393  1.00  0.00    -0.311 OA
BRANCH  20  21
HETATM   21  C13 UNL     1     -17.709  -7.885   4.411  1.00  0.00     0.060 C 
HETATM   22  C14 UNL     1     -18.206  -7.247   3.146  1.00  0.00     0.045 C 
HETATM   23  C15 UNL     1     -18.724  -8.873   4.904  1.00  0.00     0.045 C 
HETATM   24  C16 UNL     1     -16.454  -8.666   4.058  1.00  0.00     0.045 C 
ENDBRANCH  20  21
ENDBRANCH  18  20
ENDBRANCH  17  18
ENDBRANCH  16  17
ENDBRANCH   3  16
TORSDOF 7
ENDMDL
