MODEL 1
REMARK VINA RESULT: -7.363331642      0.000      0.000
REMARK  6 active torsions:
REMARK  status: ('A' for Active; 'I' for Inactive)
REMARK    1  A    between atoms: C2_2  and  C4_4 
REMARK    2  A    between atoms: C6_6  and  O1_7 
REMARK    3  A    between atoms: C9_12  and  C10_13 
REMARK    4  A    between atoms: C11_14  and  C12_15 
REMARK    5  A    between atoms: C16_19  and  C18_21 
REMARK    6  A    between atoms: C18_21  and  C19_22 
ROOT
HETATM    1  C4  UNL     1     -11.246  -8.387   8.194  1.00  0.00     0.025 C 
HETATM    2  C5  UNL     1     -11.308  -6.923   8.678  1.00  0.00     0.044 C 
HETATM    3  C6  UNL     1     -12.273  -6.885   9.803  1.00  0.00     0.153 C 
HETATM    4  C7  UNL     1     -13.532  -7.624   9.645  1.00  0.00     0.091 A 
HETATM    5  C8  UNL     1     -14.029  -8.191  10.984  1.00  0.00     0.049 C 
HETATM    6  O2  UNL     1     -14.528  -6.765   9.177  1.00  0.00    -0.368 OA
HETATM    7  C9  UNL     1     -14.804  -7.616   8.079  1.00  0.00     0.153 A 
HETATM    8  C15 UNL     1     -13.696  -8.513   8.504  1.00  0.00     0.064 A 
HETATM    9  C16 UNL     1     -12.533  -8.726   7.576  1.00  0.00    -0.024 C 
HETATM   10  C17 UNL     1     -12.502 -10.276   7.380  1.00  0.00     0.016 C 
ENDROOT
BRANCH   9  11
HETATM   11  C18 UNL     1     -12.893  -8.177   6.253  1.00  0.00     0.037 C 
BRANCH  11  12
HETATM   12  C19 UNL     1     -13.727  -8.972   5.354  1.00  0.00    -0.024 C 
HETATM   13  C20 UNL     1     -14.492  -8.451   4.397  1.00  0.00    -0.091 C 
HETATM   14  C21 UNL     1     -15.320  -9.299   3.513  1.00  0.00     0.042 C 
HETATM   15  C22 UNL     1     -14.492  -6.979   4.223  1.00  0.00     0.042 C 
ENDBRANCH  11  12
ENDBRANCH   9  11
BRANCH   1  16
HETATM   16  C2  UNL     1      -9.989  -8.664   7.541  1.00  0.00    -0.088 C 
HETATM   17  C1  UNL     1      -9.121  -7.680   7.297  1.00  0.00     0.014 C 
HETATM   18  C3  UNL     1      -9.560 -10.019   7.137  1.00  0.00     0.043 C 
ENDBRANCH   1  16
BRANCH   7  19
HETATM   19  C10 UNL     1     -16.192  -8.153   8.328  1.00  0.00     0.005 C 
HETATM   20  C11 UNL     1     -17.192  -7.832   7.551  1.00  0.00    -0.002 C 
BRANCH  20  21
HETATM   21  C12 UNL     1     -17.041  -6.947   6.407  1.00  0.00    -0.005 C 
HETATM   22  C13 UNL     1     -17.599  -7.196   5.234  1.00  0.00    -0.031 C 
HETATM   23  C14 UNL     1     -18.411  -8.413   5.060  1.00  0.00     0.036 C 
ENDBRANCH  20  21
ENDBRANCH   7  19
BRANCH   3  24
HETATM   24  O1  UNL     1     -12.525  -5.531  10.127  1.00  0.00    -0.393 OA
ATOM     25  H1  UNL     1     -12.572  -5.454  11.073  1.00  0.00     0.210 HD
ENDBRANCH   3  24
TORSDOF 6
ENDMDL
MODEL 2
REMARK VINA RESULT: -7.187272731      2.006      5.284
REMARK  6 active torsions:
REMARK  status: ('A' for Active; 'I' for Inactive)
REMARK    1  A    between atoms: C2_2  and  C4_4 
REMARK    2  A    between atoms: C6_6  and  O1_7 
REMARK    3  A    between atoms: C9_12  and  C10_13 
REMARK    4  A    between atoms: C11_14  and  C12_15 
REMARK    5  A    between atoms: C16_19  and  C18_21 
REMARK    6  A    between atoms: C18_21  and  C19_22 
ROOT
HETATM    1  C4  UNL     1     -15.796  -8.606   5.485  1.00  0.00     0.025 C 
HETATM    2  C5  UNL     1     -14.325  -8.661   5.025  1.00  0.00     0.044 C 
HETATM    3  C6  UNL     1     -13.606  -9.525   5.991  1.00  0.00     0.153 C 
HETATM    4  C7  UNL     1     -13.887  -9.329   7.419  1.00  0.00     0.091 A 
HETATM    5  C8  UNL     1     -13.792 -10.648   8.203  1.00  0.00     0.049 C 
HETATM    6  O2  UNL     1     -12.939  -8.465   7.971  1.00  0.00    -0.368 OA
HETATM    7  C9  UNL     1     -13.950  -7.602   8.460  1.00  0.00     0.153 A 
HETATM    8  C15 UNL     1     -14.983  -8.457   7.815  1.00  0.00     0.064 A 
HETATM    9  C16 UNL     1     -15.860  -7.863   6.749  1.00  0.00    -0.024 C 
HETATM   10  C17 UNL     1     -17.306  -8.098   7.294  1.00  0.00     0.016 C 
ENDROOT
BRANCH   9  11
HETATM   11  C18 UNL     1     -15.676  -6.398   6.764  1.00  0.00     0.037 C 
BRANCH  11  12
HETATM   12  C19 UNL     1     -14.828  -5.776   5.750  1.00  0.00    -0.024 C 
HETATM   13  C20 UNL     1     -15.290  -4.993   4.776  1.00  0.00    -0.091 C 
HETATM   14  C21 UNL     1     -14.390  -4.386   3.772  1.00  0.00     0.042 C 
HETATM   15  C22 UNL     1     -16.746  -4.726   4.722  1.00  0.00     0.042 C 
ENDBRANCH  11  12
ENDBRANCH   9  11
BRANCH   1  16
HETATM   16  C2  UNL     1     -16.676  -8.308   4.379  1.00  0.00    -0.088 C 
HETATM   17  C1  UNL     1     -16.179  -8.085   3.161  1.00  0.00     0.014 C 
HETATM   18  C3  UNL     1     -18.147  -8.263   4.495  1.00  0.00     0.043 C 
ENDBRANCH   1  16
BRANCH   7  19
HETATM   19  C10 UNL     1     -13.877  -7.711   9.963  1.00  0.00     0.005 C 
HETATM   20  C11 UNL     1     -13.446  -6.718  10.694  1.00  0.00    -0.002 C 
BRANCH  20  21
HETATM   21  C12 UNL     1     -13.011  -5.454  10.119  1.00  0.00    -0.005 C 
HETATM   22  C13 UNL     1     -11.765  -5.238   9.732  1.00  0.00    -0.031 C 
HETATM   23  C14 UNL     1     -10.762  -6.307   9.881  1.00  0.00     0.036 C 
ENDBRANCH  20  21
ENDBRANCH   7  19
BRANCH   3  24
HETATM   24  O1  UNL     1     -12.219  -9.422   5.734  1.00  0.00    -0.393 OA
ATOM     25  H1  UNL     1     -11.892 -10.284   5.504  1.00  0.00     0.210 HD
ENDBRANCH   3  24
TORSDOF 6
ENDMDL
MODEL 3
REMARK VINA RESULT: -6.560006703      1.959      5.376
REMARK  6 active torsions:
REMARK  status: ('A' for Active; 'I' for Inactive)
REMARK    1  A    between atoms: C2_2  and  C4_4 
REMARK    2  A    between atoms: C6_6  and  O1_7 
REMARK    3  A    between atoms: C9_12  and  C10_13 
REMARK    4  A    between atoms: C11_14  and  C12_15 
REMARK    5  A    between atoms: C16_19  and  C18_21 
REMARK    6  A    between atoms: C18_21  and  C19_22 
ROOT
HETATM    1  C4  UNL     1     -15.398  -8.724   5.688  1.00  0.00     0.025 C 
HETATM    2  C5  UNL     1     -14.013  -9.006   5.072  1.00  0.00     0.044 C 
HETATM    3  C6  UNL     1     -13.235  -9.750   6.090  1.00  0.00     0.153 C 
HETATM    4  C7  UNL     1     -13.301  -9.274   7.478  1.00  0.00     0.091 A 
HETATM    5  C8  UNL     1     -13.198 -10.434   8.481  1.00  0.00     0.049 C 
HETATM    6  O2  UNL     1     -12.224  -8.423   7.737  1.00  0.00    -0.368 OA
HETATM    7  C9  UNL     1     -13.091  -7.391   8.171  1.00  0.00     0.153 A 
HETATM    8  C15 UNL     1     -14.264  -8.242   7.831  1.00  0.00     0.064 A 
HETATM    9  C16 UNL     1     -15.232  -7.764   6.785  1.00  0.00    -0.024 C 
HETATM   10  C17 UNL     1     -16.603  -7.753   7.537  1.00  0.00     0.016 C 
ENDROOT
BRANCH   9  11
HETATM   11  C18 UNL     1     -14.938  -6.345   6.498  1.00  0.00     0.037 C 
BRANCH  11  12
HETATM   12  C19 UNL     1     -15.863  -5.580   5.666  1.00  0.00    -0.024 C 
HETATM   13  C20 UNL     1     -15.513  -4.973   4.533  1.00  0.00    -0.091 C 
HETATM   14  C21 UNL     1     -16.488  -4.209   3.726  1.00  0.00     0.042 C 
HETATM   15  C22 UNL     1     -14.107  -5.089   4.082  1.00  0.00     0.042 C 
ENDBRANCH  11  12
ENDBRANCH   9  11
BRANCH   1  16
HETATM   16  C2  UNL     1     -16.397  -8.543   4.660  1.00  0.00    -0.088 C 
HETATM   17  C1  UNL     1     -16.034  -8.390   3.384  1.00  0.00     0.014 C 
HETATM   18  C3  UNL     1     -17.850  -8.548   4.923  1.00  0.00     0.043 C 
ENDBRANCH   1  16
BRANCH   7  19
HETATM   19  C10 UNL     1     -12.820  -7.236   9.647  1.00  0.00     0.005 C 
HETATM   20  C11 UNL     1     -11.895  -6.424  10.084  1.00  0.00    -0.002 C 
BRANCH  20  21
HETATM   21  C12 UNL     1     -11.071  -5.624   9.192  1.00  0.00    -0.005 C 
HETATM   22  C13 UNL     1      -9.965  -6.087   8.635  1.00  0.00    -0.031 C 
HETATM   23  C14 UNL     1      -9.533  -7.468   8.917  1.00  0.00     0.036 C 
ENDBRANCH  20  21
ENDBRANCH   7  19
BRANCH   3  24
HETATM   24  O1  UNL     1     -11.891  -9.832   5.652  1.00  0.00    -0.393 OA
ATOM     25  H1  UNL     1     -11.492 -10.595   6.053  1.00  0.00     0.210 HD
ENDBRANCH   3  24
TORSDOF 6
ENDMDL
MODEL 4
REMARK VINA RESULT: -5.920489062      1.369      5.399
REMARK  6 active torsions:
REMARK  status: ('A' for Active; 'I' for Inactive)
REMARK    1  A    between atoms: C2_2  and  C4_4 
REMARK    2  A    between atoms: C6_6  and  O1_7 
REMARK    3  A    between atoms: C9_12  and  C10_13 
REMARK    4  A    between atoms: C11_14  and  C12_15 
REMARK    5  A    between atoms: C16_19  and  C18_21 
REMARK    6  A    between atoms: C18_21  and  C19_22 
ROOT
HETATM    1  C4  UNL     1     -15.678  -7.047   7.222  1.00  0.00     0.025 C 
HETATM    2  C5  UNL     1     -15.713  -8.093   8.355  1.00  0.00     0.044 C 
HETATM    3  C6  UNL     1     -14.875  -7.560   9.455  1.00  0.00     0.153 C 
HETATM    4  C7  UNL     1     -13.584  -6.958   9.098  1.00  0.00     0.091 A 
HETATM    5  C8  UNL     1     -13.215  -5.804  10.043  1.00  0.00     0.049 C 
HETATM    6  O2  UNL     1     -12.570  -7.911   9.212  1.00  0.00    -0.368 OA
HETATM    7  C9  UNL     1     -12.153  -7.689   7.877  1.00  0.00     0.153 A 
HETATM    8  C15 UNL     1     -13.273  -6.726   7.695  1.00  0.00     0.064 A 
HETATM    9  C16 UNL     1     -14.323  -7.016   6.660  1.00  0.00    -0.024 C 
HETATM   10  C17 UNL     1     -14.286  -5.753   5.739  1.00  0.00     0.016 C 
ENDROOT
BRANCH   9  11
HETATM   11  C18 UNL     1     -13.841  -8.125   5.813  1.00  0.00     0.037 C 
BRANCH  11  12
HETATM   12  C19 UNL     1     -14.811  -9.031   5.204  1.00  0.00    -0.024 C 
HETATM   13  C20 UNL     1     -15.235  -8.928   3.945  1.00  0.00    -0.091 C 
HETATM   14  C21 UNL     1     -16.220  -9.872   3.375  1.00  0.00     0.042 C 
HETATM   15  C22 UNL     1     -14.682  -7.839   3.107  1.00  0.00     0.042 C 
ENDBRANCH  11  12
ENDBRANCH   9  11
BRANCH   1  16
HETATM   16  C2  UNL     1     -16.850  -7.149   6.385  1.00  0.00    -0.088 C 
HETATM   17  C1  UNL     1     -17.715  -8.152   6.551  1.00  0.00     0.014 C 
HETATM   18  C3  UNL     1     -17.194  -6.167   5.337  1.00  0.00     0.043 C 
ENDBRANCH   1  16
BRANCH   7  19
HETATM   19  C10 UNL     1     -10.784  -7.064   7.986  1.00  0.00     0.005 C 
HETATM   20  C11 UNL     1      -9.701  -7.768   7.788  1.00  0.00    -0.002 C 
BRANCH  20  21
HETATM   21  C12 UNL     1      -9.738  -9.184   7.455  1.00  0.00    -0.005 C 
HETATM   22  C13 UNL     1      -8.652  -9.937   7.422  1.00  0.00    -0.031 C 
HETATM   23  C14 UNL     1      -7.342  -9.337   7.733  1.00  0.00     0.036 C 
ENDBRANCH  20  21
ENDBRANCH   7  19
BRANCH   3  24
HETATM   24  O1  UNL     1     -14.701  -8.584  10.417  1.00  0.00    -0.393 OA
ATOM     25  H1  UNL     1     -13.860  -9.000  10.263  1.00  0.00     0.210 HD
ENDBRANCH   3  24
TORSDOF 6
ENDMDL
MODEL 5
REMARK VINA RESULT: -5.327231523      7.254     10.919
REMARK  6 active torsions:
REMARK  status: ('A' for Active; 'I' for Inactive)
REMARK    1  A    between atoms: C2_2  and  C4_4 
REMARK    2  A    between atoms: C6_6  and  O1_7 
REMARK    3  A    between atoms: C9_12  and  C10_13 
REMARK    4  A    between atoms: C11_14  and  C12_15 
REMARK    5  A    between atoms: C16_19  and  C18_21 
REMARK    6  A    between atoms: C18_21  and  C19_22 
ROOT
HETATM    1  C4  UNL     1      -1.484  -4.706   6.438  1.00  0.00     0.025 C 
HETATM    2  C5  UNL     1      -1.838  -4.542   7.930  1.00  0.00     0.044 C 
HETATM    3  C6  UNL     1      -1.982  -5.906   8.489  1.00  0.00     0.153 C 
HETATM    4  C7  UNL     1      -2.729  -6.891   7.696  1.00  0.00     0.091 A 
HETATM    5  C8  UNL     1      -2.174  -8.312   7.885  1.00  0.00     0.049 C 
HETATM    6  O2  UNL     1      -4.061  -6.922   8.115  1.00  0.00    -0.368 OA
HETATM    7  C9  UNL     1      -4.524  -6.678   6.799  1.00  0.00     0.153 A 
HETATM    8  C15 UNL     1      -3.116  -6.560   6.333  1.00  0.00     0.064 A 
HETATM    9  C16 UNL     1      -2.651  -5.258   5.742  1.00  0.00    -0.024 C 
HETATM   10  C17 UNL     1      -2.133  -5.666   4.325  1.00  0.00     0.016 C 
ENDROOT
BRANCH   9  11
HETATM   11  C18 UNL     1      -3.838  -4.416   5.490  1.00  0.00     0.037 C 
BRANCH  11  12
HETATM   12  C19 UNL     1      -3.857  -3.541   4.321  1.00  0.00    -0.024 C 
HETATM   13  C20 UNL     1      -3.987  -2.217   4.386  1.00  0.00    -0.091 C 
HETATM   14  C21 UNL     1      -4.001  -1.375   3.171  1.00  0.00     0.042 C 
HETATM   15  C22 UNL     1      -4.109  -1.591   5.723  1.00  0.00     0.042 C 
ENDBRANCH  11  12
ENDBRANCH   9  11
BRANCH   1  16
HETATM   16  C2  UNL     1      -0.775  -3.550   5.942  1.00  0.00    -0.088 C 
HETATM   17  C1  UNL     1      -0.800  -2.399   6.618  1.00  0.00     0.014 C 
HETATM   18  C3  UNL     1       0.036  -3.555   4.708  1.00  0.00     0.043 C 
ENDBRANCH   1  16
BRANCH   7  19
HETATM   19  C10 UNL     1      -5.231  -7.945   6.384  1.00  0.00     0.005 C 
HETATM   20  C11 UNL     1      -6.477  -7.929   5.994  1.00  0.00    -0.002 C 
BRANCH  20  21
HETATM   21  C12 UNL     1      -7.262  -6.705   5.934  1.00  0.00    -0.005 C 
HETATM   22  C13 UNL     1      -8.310  -6.491   6.712  1.00  0.00    -0.031 C 
HETATM   23  C14 UNL     1      -8.714  -7.521   7.685  1.00  0.00     0.036 C 
ENDBRANCH  20  21
ENDBRANCH   7  19
BRANCH   3  24
HETATM   24  O1  UNL     1      -2.522  -5.799   9.793  1.00  0.00    -0.393 OA
ATOM     25  H1  UNL     1      -2.508  -6.661  10.194  1.00  0.00     0.210 HD
ENDBRANCH   3  24
TORSDOF 6
ENDMDL
