MODEL 1
REMARK VINA RESULT: -8.169000169      0.000      0.000
REMARK  1 active torsions:
REMARK  status: ('A' for Active; 'I' for Inactive)
REMARK       I    between atoms: C2_2  and  N1_4 
REMARK    1  A    between atoms: N1_4  and  C3_6 
ROOT
HETATM    1  C3  UNL     1      11.558  51.576  61.230  1.00  0.00     0.045 A 
HETATM    2  C4  UNL     1      10.252  51.772  61.060  1.00  0.00     0.033 A 
HETATM    3  C5  UNL     1       9.525  51.498  59.796  1.00  0.00     0.043 A 
HETATM    4  C6  UNL     1       8.347  50.570  60.027  1.00  0.00     0.042 C 
HETATM    5  C7  UNL     1       8.896  52.840  59.384  1.00  0.00     0.042 C 
HETATM    6  N2  UNL     1      10.312  50.999  58.740  1.00  0.00    -0.377 N 
ATOM      7  H2  UNL     1       9.866  50.791  57.846  1.00  0.00     0.160 HD
HETATM    8  C8  UNL     1      11.736  50.771  58.883  1.00  0.00     0.042 A 
HETATM    9  C9  UNL     1      12.449  50.289  57.831  1.00  0.00     0.043 A 
HETATM   10  C10 UNL     1      13.828  50.044  57.895  1.00  0.00    -0.010 A 
HETATM   11  C11 UNL     1      14.655  49.567  56.927  1.00  0.00    -0.044 A 
HETATM   12  C12 UNL     1      14.205  49.193  55.523  1.00  0.00     0.049 C 
HETATM   13  C13 UNL     1      15.972  49.423  57.263  1.00  0.00     0.058 A 
HETATM   14  S1  UNL     1      16.023  49.947  58.888  1.00  0.00    -0.101 SA
HETATM   15  C14 UNL     1      14.386  50.331  59.097  1.00  0.00     0.016 A 
HETATM   16  C15 UNL     1      13.662  50.830  60.194  1.00  0.00     0.035 A 
HETATM   17  C16 UNL     1      12.311  51.057  60.092  1.00  0.00     0.018 A 
ENDROOT
BRANCH   1  18
HETATM   18  N1  UNL     1      12.221  51.847  62.446  1.00  0.00    -0.327 N 
HETATM   19  C2  UNL     1      13.059  52.909  62.789  1.00  0.00     0.218 C 
HETATM   20  C1  UNL     1      13.637  52.943  64.185  1.00  0.00     0.117 C 
HETATM   21  O1  UNL     1      13.381  53.835  62.057  1.00  0.00    -0.274 OA
ATOM     22  H1  UNL     1      12.063  51.164  63.186  1.00  0.00     0.169 HD
ENDBRANCH   1  18
TORSDOF 1
ENDMDL
MODEL 2
REMARK VINA RESULT: -7.836520802      1.751      3.825
REMARK  1 active torsions:
REMARK  status: ('A' for Active; 'I' for Inactive)
REMARK       I    between atoms: C2_2  and  N1_4 
REMARK    1  A    between atoms: N1_4  and  C3_6 
ROOT
HETATM    1  C3  UNL     1      11.490  51.317  60.674  1.00  0.00     0.045 A 
HETATM    2  C4  UNL     1      11.921  51.856  61.812  1.00  0.00     0.033 A 
HETATM    3  C5  UNL     1      13.350  52.104  62.128  1.00  0.00     0.043 A 
HETATM    4  C6  UNL     1      13.587  53.554  62.509  1.00  0.00     0.042 C 
HETATM    5  C7  UNL     1      13.631  51.307  63.414  1.00  0.00     0.042 C 
HETATM    6  N2  UNL     1      14.267  51.728  61.128  1.00  0.00    -0.377 N 
ATOM      7  H2  UNL     1      15.263  51.875  61.289  1.00  0.00     0.160 HD
HETATM    8  C8  UNL     1      13.839  51.137  59.875  1.00  0.00     0.042 A 
HETATM    9  C9  UNL     1      14.765  50.791  58.943  1.00  0.00     0.043 A 
HETATM   10  C10 UNL     1      14.427  50.216  57.710  1.00  0.00    -0.010 A 
HETATM   11  C11 UNL     1      15.246  49.827  56.698  1.00  0.00    -0.044 A 
HETATM   12  C12 UNL     1      16.761  49.953  56.724  1.00  0.00     0.049 C 
HETATM   13  C13 UNL     1      14.644  49.290  55.595  1.00  0.00     0.058 A 
HETATM   14  S1  UNL     1      12.983  49.342  55.989  1.00  0.00    -0.101 SA
HETATM   15  C14 UNL     1      13.095  50.036  57.530  1.00  0.00     0.016 A 
HETATM   16  C15 UNL     1      12.125  50.389  58.485  1.00  0.00     0.035 A 
HETATM   17  C16 UNL     1      12.496  50.951  59.682  1.00  0.00     0.018 A 
ENDROOT
BRANCH   1  18
HETATM   18  N1  UNL     1      10.123  51.093  60.403  1.00  0.00    -0.327 N 
HETATM   19  C2  UNL     1       9.083  52.010  60.238  1.00  0.00     0.218 C 
HETATM   20  C1  UNL     1       7.698  51.478  59.952  1.00  0.00     0.117 C 
HETATM   21  O1  UNL     1       9.183  53.228  60.303  1.00  0.00    -0.274 OA
ATOM     22  H1  UNL     1       9.854  50.113  60.315  1.00  0.00     0.169 HD
ENDBRANCH   1  18
TORSDOF 1
ENDMDL
MODEL 3
REMARK VINA RESULT: -7.158659379      1.991      4.016
REMARK  1 active torsions:
REMARK  status: ('A' for Active; 'I' for Inactive)
REMARK       I    between atoms: C2_2  and  N1_4 
REMARK    1  A    between atoms: N1_4  and  C3_6 
ROOT
HETATM    1  C3  UNL     1      11.666  51.587  60.839  1.00  0.00     0.045 A 
HETATM    2  C4  UNL     1      12.123  51.982  62.025  1.00  0.00     0.033 A 
HETATM    3  C5  UNL     1      13.560  52.010  62.398  1.00  0.00     0.043 A 
HETATM    4  C6  UNL     1      13.975  53.384  62.890  1.00  0.00     0.042 C 
HETATM    5  C7  UNL     1      13.684  51.095  63.628  1.00  0.00     0.042 C 
HETATM    6  N2  UNL     1      14.454  51.583  61.397  1.00  0.00    -0.377 N 
ATOM      7  H2  UNL     1      15.455  51.582  61.596  1.00  0.00     0.160 HD
HETATM    8  C8  UNL     1      13.997  51.145  60.093  1.00  0.00     0.042 A 
HETATM    9  C9  UNL     1      14.902  50.742  59.164  1.00  0.00     0.043 A 
HETATM   10  C10 UNL     1      14.536  50.306  57.882  1.00  0.00    -0.010 A 
HETATM   11  C11 UNL     1      15.332  49.880  56.867  1.00  0.00    -0.044 A 
HETATM   12  C12 UNL     1      16.848  49.796  56.943  1.00  0.00     0.049 C 
HETATM   13  C13 UNL     1      14.704  49.508  55.711  1.00  0.00     0.058 A 
HETATM   14  S1  UNL     1      13.052  49.758  56.063  1.00  0.00    -0.101 SA
HETATM   15  C14 UNL     1      13.199  50.322  57.654  1.00  0.00     0.016 A 
HETATM   16  C15 UNL     1      12.251  50.736  58.605  1.00  0.00     0.035 A 
HETATM   17  C16 UNL     1      12.649  51.157  59.851  1.00  0.00     0.018 A 
ENDROOT
BRANCH   1  18
HETATM   18  N1  UNL     1      10.292  51.571  60.516  1.00  0.00    -0.327 N 
HETATM   19  C2  UNL     1       9.447  50.491  60.259  1.00  0.00     0.218 C 
HETATM   20  C1  UNL     1       7.999  50.775  59.934  1.00  0.00     0.117 C 
HETATM   21  O1  UNL     1       9.767  49.310  60.270  1.00  0.00    -0.274 OA
ATOM     22  H1  UNL     1       9.850  52.489  60.462  1.00  0.00     0.169 HD
ENDBRANCH   1  18
TORSDOF 1
ENDMDL
MODEL 4
REMARK VINA RESULT: -6.050691051      2.831      6.162
REMARK  1 active torsions:
REMARK  status: ('A' for Active; 'I' for Inactive)
REMARK       I    between atoms: C2_2  and  N1_4 
REMARK    1  A    between atoms: N1_4  and  C3_6 
ROOT
HETATM    1  C3  UNL     1      13.403  50.111  59.045  1.00  0.00     0.045 A 
HETATM    2  C4  UNL     1      14.460  50.348  59.819  1.00  0.00     0.033 A 
HETATM    3  C5  UNL     1      14.409  51.111  61.091  1.00  0.00     0.043 A 
HETATM    4  C6  UNL     1      14.993  50.310  62.239  1.00  0.00     0.042 C 
HETATM    5  C7  UNL     1      15.376  52.292  60.901  1.00  0.00     0.042 C 
HETATM    6  N2  UNL     1      13.138  51.594  61.457  1.00  0.00    -0.377 N 
ATOM      7  H2  UNL     1      13.041  52.125  62.323  1.00  0.00     0.160 HD
HETATM    8  C8  UNL     1      11.962  51.359  60.643  1.00  0.00     0.042 A 
HETATM    9  C9  UNL     1      10.759  51.848  61.043  1.00  0.00     0.043 A 
HETATM   10  C10 UNL     1       9.578  51.660  60.309  1.00  0.00    -0.010 A 
HETATM   11  C11 UNL     1       8.321  52.091  60.592  1.00  0.00    -0.044 A 
HETATM   12  C12 UNL     1       7.949  52.898  61.825  1.00  0.00     0.049 C 
HETATM   13  C13 UNL     1       7.345  51.764  59.693  1.00  0.00     0.058 A 
HETATM   14  S1  UNL     1       8.190  50.881  58.500  1.00  0.00    -0.101 SA
HETATM   15  C14 UNL     1       9.745  50.949  59.166  1.00  0.00     0.016 A 
HETATM   16  C15 UNL     1      10.983  50.437  58.740  1.00  0.00     0.035 A 
HETATM   17  C16 UNL     1      12.118  50.642  59.487  1.00  0.00     0.018 A 
ENDROOT
BRANCH   1  18
HETATM   18  N1  UNL     1      13.485  49.381  57.840  1.00  0.00    -0.327 N 
HETATM   19  C2  UNL     1      13.761  49.822  56.545  1.00  0.00     0.218 C 
HETATM   20  C1  UNL     1      13.784  48.803  55.431  1.00  0.00     0.117 C 
HETATM   21  O1  UNL     1      13.991  50.978  56.214  1.00  0.00    -0.274 OA
ATOM     22  H1  UNL     1      13.317  48.379  57.930  1.00  0.00     0.169 HD
ENDBRANCH   1  18
TORSDOF 1
ENDMDL
MODEL 5
REMARK VINA RESULT: -6.011212340      2.682      4.886
REMARK  1 active torsions:
REMARK  status: ('A' for Active; 'I' for Inactive)
REMARK       I    between atoms: C2_2  and  N1_4 
REMARK    1  A    between atoms: N1_4  and  C3_6 
ROOT
HETATM    1  C3  UNL     1      14.113  52.466  61.332  1.00  0.00     0.045 A 
HETATM    2  C4  UNL     1      15.275  52.023  60.858  1.00  0.00     0.033 A 
HETATM    3  C5  UNL     1      15.406  50.967  59.822  1.00  0.00     0.043 A 
HETATM    4  C6  UNL     1      16.244  51.445  58.650  1.00  0.00     0.042 C 
HETATM    5  C7  UNL     1      16.240  49.852  60.475  1.00  0.00     0.042 C 
HETATM    6  N2  UNL     1      14.194  50.435  59.343  1.00  0.00    -0.377 N 
ATOM      7  H2  UNL     1      14.222  49.706  58.629  1.00  0.00     0.160 HD
HETATM    8  C8  UNL     1      12.908  50.889  59.833  1.00  0.00     0.042 A 
HETATM    9  C9  UNL     1      11.767  50.340  59.337  1.00  0.00     0.043 A 
HETATM   10  C10 UNL     1      10.488  50.728  59.761  1.00  0.00    -0.010 A 
HETATM   11  C11 UNL     1       9.278  50.266  59.352  1.00  0.00    -0.044 A 
HETATM   12  C12 UNL     1       9.084  49.184  58.301  1.00  0.00     0.049 C 
HETATM   13  C13 UNL     1       8.178  50.826  59.938  1.00  0.00     0.058 A 
HETATM   14  S1  UNL     1       8.848  51.962  61.024  1.00  0.00    -0.101 SA
HETATM   15  C14 UNL     1      10.491  51.697  60.709  1.00  0.00     0.016 A 
HETATM   16  C15 UNL     1      11.661  52.275  61.231  1.00  0.00     0.035 A 
HETATM   17  C16 UNL     1      12.897  51.868  60.790  1.00  0.00     0.018 A 
ENDROOT
BRANCH   1  18
HETATM   18  N1  UNL     1      14.022  53.471  62.318  1.00  0.00    -0.327 N 
HETATM   19  C2  UNL     1      13.742  53.364  63.680  1.00  0.00     0.218 C 
HETATM   20  C1  UNL     1      13.709  54.627  64.507  1.00  0.00     0.117 C 
HETATM   21  O1  UNL     1      13.515  52.325  64.287  1.00  0.00    -0.274 OA
ATOM     22  H1  UNL     1      14.186  54.421  61.983  1.00  0.00     0.169 HD
ENDBRANCH   1  18
TORSDOF 1
ENDMDL
