MODEL 1
REMARK VINA RESULT: -8.223527510      0.000      0.000
REMARK  1 active torsions:
REMARK  status: ('A' for Active; 'I' for Inactive)
REMARK    1  A    between atoms: C6_8  and  C7_9 
ROOT
HETATM    1  C1  UNL     1      16.496  49.269  59.674  1.00  0.00     0.050 C 
HETATM    2  C2  UNL     1      15.119  49.775  59.485  1.00  0.00    -0.037 A 
HETATM    3  C3  UNL     1      14.388  50.213  60.562  1.00  0.00     0.042 A 
HETATM    4  C4  UNL     1      13.052  50.587  60.360  1.00  0.00     0.079 A 
HETATM    5  C5  UNL     1      12.455  50.519  59.118  1.00  0.00     0.129 A 
HETATM    6  N1  UNL     1      13.234  50.070  58.084  1.00  0.00    -0.344 N 
ATOM      7  H1  UNL     1      12.816  50.003  57.156  1.00  0.00     0.167 HD
HETATM    8  C6  UNL     1      14.527  49.714  58.234  1.00  0.00     0.020 A 
HETATM    9  N2  UNL     1      11.107  50.936  58.924  1.00  0.00    -0.356 N 
ATOM     10  H2  UNL     1      10.689  50.811  58.002  1.00  0.00     0.162 HD
HETATM   11  C10 UNL     1      10.290  51.538  59.984  1.00  0.00     0.113 A 
HETATM   12  C11 UNL     1       9.148  50.631  60.293  1.00  0.00     0.041 C 
HETATM   13  C12 UNL     1       7.853  50.889  59.685  1.00  0.00     0.003 C 
HETATM   14  C13 UNL     1       7.746  51.694  58.450  1.00  0.00     0.000 C 
HETATM   15  C14 UNL     1       7.605  53.171  58.839  1.00  0.00     0.000 C 
HETATM   16  C15 UNL     1       8.558  53.399  59.986  1.00  0.00     0.003 C 
HETATM   17  C16 UNL     1       9.914  52.924  59.561  1.00  0.00     0.041 C 
HETATM   18  C17 UNL     1      11.069  51.668  61.251  1.00  0.00     0.250 A 
HETATM   19  O1  UNL     1      10.507  52.279  62.192  1.00  0.00    -0.270 OA
HETATM   20  N3  UNL     1      12.373  51.158  61.454  1.00  0.00    -0.322 N 
ATOM     21  H3  UNL     1      12.812  51.203  62.374  1.00  0.00     0.169 HD
ENDROOT
BRANCH   8  22
HETATM   22  C7  UNL     1      15.434  49.502  57.096  1.00  0.00     0.028 C 
HETATM   23  C8  UNL     1      14.768  49.324  55.748  1.00  0.00     0.016 C 
HETATM   24  C9  UNL     1      16.112  50.953  56.893  1.00  0.00     0.016 C 
ENDBRANCH   8  22
TORSDOF 1
ENDMDL
MODEL 2
REMARK VINA RESULT: -7.240658092      1.754      6.376
REMARK  1 active torsions:
REMARK  status: ('A' for Active; 'I' for Inactive)
REMARK    1  A    between atoms: C6_8  and  C7_9 
ROOT
HETATM    1  C1  UNL     1       8.071  53.618  60.628  1.00  0.00     0.050 C 
HETATM    2  C2  UNL     1       9.353  52.934  60.354  1.00  0.00    -0.037 A 
HETATM    3  C3  UNL     1      10.543  53.535  60.681  1.00  0.00     0.042 A 
HETATM    4  C4  UNL     1      11.739  52.905  60.310  1.00  0.00     0.079 A 
HETATM    5  C5  UNL     1      11.751  51.709  59.623  1.00  0.00     0.129 A 
HETATM    6  N1  UNL     1      10.532  51.160  59.322  1.00  0.00    -0.344 N 
ATOM      7  H1  UNL     1      10.510  50.278  58.808  1.00  0.00     0.167 HD
HETATM    8  C6  UNL     1       9.359  51.728  59.672  1.00  0.00     0.020 A 
HETATM    9  N2  UNL     1      12.975  51.064  59.286  1.00  0.00    -0.356 N 
ATOM     10  H2  UNL     1      12.936  50.212  58.725  1.00  0.00     0.162 HD
HETATM   11  C10 UNL     1      14.290  51.563  59.705  1.00  0.00     0.113 A 
HETATM   12  C11 UNL     1      15.067  51.962  58.498  1.00  0.00     0.041 C 
HETATM   13  C12 UNL     1      16.032  51.033  57.935  1.00  0.00     0.003 C 
HETATM   14  C13 UNL     1      15.933  49.584  58.211  1.00  0.00     0.000 C 
HETATM   15  C14 UNL     1      16.719  49.274  59.491  1.00  0.00     0.000 C 
HETATM   16  C15 UNL     1      16.423  50.399  60.452  1.00  0.00     0.003 C 
HETATM   17  C16 UNL     1      14.935  50.525  60.570  1.00  0.00     0.041 C 
HETATM   18  C17 UNL     1      14.154  52.796  60.537  1.00  0.00     0.250 A 
HETATM   19  O1  UNL     1      15.208  53.243  61.049  1.00  0.00    -0.270 OA
HETATM   20  N3  UNL     1      12.938  53.478  60.778  1.00  0.00    -0.322 N 
ATOM     21  H3  UNL     1      12.930  54.365  61.281  1.00  0.00     0.169 HD
ENDROOT
BRANCH   8  22
HETATM   22  C7  UNL     1       8.073  51.016  59.599  1.00  0.00     0.028 C 
HETATM   23  C8  UNL     1       7.210  51.339  58.398  1.00  0.00     0.016 C 
HETATM   24  C9  UNL     1       8.512  49.505  59.241  1.00  0.00     0.016 C 
ENDBRANCH   8  22
TORSDOF 1
ENDMDL
MODEL 3
REMARK VINA RESULT: -6.891978018      2.034      6.582
REMARK  1 active torsions:
REMARK  status: ('A' for Active; 'I' for Inactive)
REMARK    1  A    between atoms: C6_8  and  C7_9 
ROOT
HETATM    1  C1  UNL     1       7.095  50.889  59.515  1.00  0.00     0.050 C 
HETATM    2  C2  UNL     1       8.548  50.957  59.244  1.00  0.00    -0.037 A 
HETATM    3  C3  UNL     1       9.247  49.820  58.921  1.00  0.00     0.042 A 
HETATM    4  C4  UNL     1      10.638  49.905  58.775  1.00  0.00     0.079 A 
HETATM    5  C5  UNL     1      11.320  51.091  58.954  1.00  0.00     0.129 A 
HETATM    6  N1  UNL     1      10.568  52.190  59.279  1.00  0.00    -0.344 N 
ATOM      7  H1  UNL     1      11.046  53.080  59.424  1.00  0.00     0.167 HD
HETATM    8  C6  UNL     1       9.226  52.153  59.415  1.00  0.00     0.020 A 
HETATM    9  N2  UNL     1      12.729  51.168  58.766  1.00  0.00    -0.356 N 
ATOM     10  H2  UNL     1      13.198  52.052  58.969  1.00  0.00     0.162 HD
HETATM   11  C10 UNL     1      13.541  50.040  58.296  1.00  0.00     0.113 A 
HETATM   12  C11 UNL     1      14.487  49.638  59.375  1.00  0.00     0.041 C 
HETATM   13  C12 UNL     1      15.854  50.131  59.341  1.00  0.00     0.003 C 
HETATM   14  C13 UNL     1      16.197  51.349  58.578  1.00  0.00     0.000 C 
HETATM   15  C14 UNL     1      16.547  50.945  57.140  1.00  0.00     0.000 C 
HETATM   16  C15 UNL     1      15.550  49.882  56.746  1.00  0.00     0.003 C 
HETATM   17  C16 UNL     1      14.175  50.423  56.996  1.00  0.00     0.041 C 
HETATM   18  C17 UNL     1      12.689  48.843  58.026  1.00  0.00     0.250 A 
HETATM   19  O1  UNL     1      13.262  47.856  57.506  1.00  0.00    -0.270 OA
HETATM   20  N3  UNL     1      11.307  48.755  58.312  1.00  0.00    -0.322 N 
ATOM     21  H3  UNL     1      10.804  47.876  58.185  1.00  0.00     0.169 HD
ENDROOT
BRANCH   8  22
HETATM   22  C7  UNL     1       8.396  53.366  59.487  1.00  0.00     0.028 C 
HETATM   23  C8  UNL     1       8.145  53.909  60.878  1.00  0.00     0.016 C 
HETATM   24  C9  UNL     1       9.371  54.511  58.902  1.00  0.00     0.016 C 
ENDBRANCH   8  22
TORSDOF 1
ENDMDL
MODEL 4
REMARK VINA RESULT: -5.904571855      2.127      6.578
REMARK  1 active torsions:
REMARK  status: ('A' for Active; 'I' for Inactive)
REMARK    1  A    between atoms: C6_8  and  C7_9 
ROOT
HETATM    1  C1  UNL     1       7.263  50.735  58.807  1.00  0.00     0.050 C 
HETATM    2  C2  UNL     1       8.708  50.846  59.103  1.00  0.00    -0.037 A 
HETATM    3  C3  UNL     1       9.586  49.902  58.632  1.00  0.00     0.042 A 
HETATM    4  C4  UNL     1      10.931  49.981  59.019  1.00  0.00     0.079 A 
HETATM    5  C5  UNL     1      11.389  50.972  59.862  1.00  0.00     0.129 A 
HETATM    6  N1  UNL     1      10.465  51.883  60.303  1.00  0.00    -0.344 N 
ATOM      7  H1  UNL     1      10.774  52.623  60.934  1.00  0.00     0.167 HD
HETATM    8  C6  UNL     1       9.165  51.849  59.942  1.00  0.00     0.020 A 
HETATM    9  N2  UNL     1      12.766  51.060  60.218  1.00  0.00    -0.356 N 
ATOM     10  H2  UNL     1      13.048  51.772  60.892  1.00  0.00     0.162 HD
HETATM   11  C10 UNL     1      13.798  50.177  59.663  1.00  0.00     0.113 A 
HETATM   12  C11 UNL     1      14.368  49.344  60.760  1.00  0.00     0.041 C 
HETATM   13  C12 UNL     1      15.610  49.755  61.391  1.00  0.00     0.003 C 
HETATM   14  C13 UNL     1      16.062  51.161  61.323  1.00  0.00     0.000 C 
HETATM   15  C14 UNL     1      16.908  51.344  60.057  1.00  0.00     0.000 C 
HETATM   16  C15 UNL     1      16.213  50.564  58.968  1.00  0.00     0.003 C 
HETATM   17  C16 UNL     1      14.786  51.017  58.915  1.00  0.00     0.041 C 
HETATM   18  C17 UNL     1      13.211  49.220  58.678  1.00  0.00     0.250 A 
HETATM   19  O1  UNL     1      14.021  48.495  58.052  1.00  0.00    -0.270 OA
HETATM   20  N3  UNL     1      11.828  49.081  58.412  1.00  0.00    -0.322 N 
ATOM     21  H3  UNL     1      11.489  48.345  57.793  1.00  0.00     0.169 HD
ENDROOT
BRANCH   8  22
HETATM   22  C7  UNL     1       8.239  52.967  60.183  1.00  0.00     0.028 C 
HETATM   23  C8  UNL     1       7.877  53.221  61.631  1.00  0.00     0.016 C 
HETATM   24  C9  UNL     1       9.149  54.266  59.882  1.00  0.00     0.016 C 
ENDBRANCH   8  22
TORSDOF 1
ENDMDL
MODEL 5
REMARK VINA RESULT: -5.840391102      1.503      6.370
REMARK  1 active torsions:
REMARK  status: ('A' for Active; 'I' for Inactive)
REMARK    1  A    between atoms: C6_8  and  C7_9 
ROOT
HETATM    1  C1  UNL     1       8.094  52.626  61.347  1.00  0.00     0.050 C 
HETATM    2  C2  UNL     1       9.342  52.154  60.708  1.00  0.00    -0.037 A 
HETATM    3  C3  UNL     1      10.524  52.166  61.405  1.00  0.00     0.042 A 
HETATM    4  C4  UNL     1      11.703  51.811  60.735  1.00  0.00     0.079 A 
HETATM    5  C5  UNL     1      11.707  51.460  59.401  1.00  0.00     0.129 A 
HETATM    6  N1  UNL     1      10.496  51.470  58.758  1.00  0.00    -0.344 N 
ATOM      7  H1  UNL     1      10.470  51.222  57.769  1.00  0.00     0.167 HD
HETATM    8  C6  UNL     1       9.338  51.793  59.370  1.00  0.00     0.020 A 
HETATM    9  N2  UNL     1      12.908  51.067  58.744  1.00  0.00    -0.356 N 
ATOM     10  H2  UNL     1      12.873  50.875  57.742  1.00  0.00     0.162 HD
HETATM   11  C10 UNL     1      14.194  50.926  59.436  1.00  0.00     0.113 A 
HETATM   12  C11 UNL     1      15.149  51.938  58.902  1.00  0.00     0.041 C 
HETATM   13  C12 UNL     1      16.100  51.544  57.876  1.00  0.00     0.003 C 
HETATM   14  C13 UNL     1      15.851  50.357  57.032  1.00  0.00     0.000 C 
HETATM   15  C14 UNL     1      16.439  49.125  57.731  1.00  0.00     0.000 C 
HETATM   16  C15 UNL     1      16.114  49.276  59.197  1.00  0.00     0.003 C 
HETATM   17  C16 UNL     1      14.637  49.501  59.322  1.00  0.00     0.041 C 
HETATM   18  C17 UNL     1      14.053  51.219  60.894  1.00  0.00     0.250 A 
HETATM   19  O1  UNL     1      15.065  51.014  61.606  1.00  0.00    -0.270 OA
HETATM   20  N3  UNL     1      12.875  51.703  61.510  1.00  0.00    -0.322 N 
ATOM     21  H3  UNL     1      12.874  51.968  62.495  1.00  0.00     0.169 HD
ENDROOT
BRANCH   8  22
HETATM   22  C7  UNL     1       8.019  51.539  58.769  1.00  0.00     0.028 C 
HETATM   23  C8  UNL     1       6.940  51.076  59.725  1.00  0.00     0.016 C 
HETATM   24  C9  UNL     1       7.483  53.021  58.425  1.00  0.00     0.016 C 
ENDBRANCH   8  22
TORSDOF 1
ENDMDL
