MODEL 1
REMARK VINA RESULT: -8.233817780      0.000      0.000
REMARK  4 active torsions:
REMARK  status: ('A' for Active; 'I' for Inactive)
REMARK    1  A    between atoms: C3_3  and  C4_4 
REMARK    2  A    between atoms: C10_11  and  S2_12 
REMARK    3  A    between atoms: S2_12  and  N1_13 
REMARK    4  A    between atoms: N1_13  and  O1_15 
ROOT
HETATM    1  C1  UNL     1      14.066  53.142  60.273  1.00  0.00     0.050 C 
HETATM    2  C2  UNL     1      13.300  51.928  59.758  1.00  0.00    -0.036 A 
HETATM    3  C3  UNL     1      14.002  50.834  59.347  1.00  0.00    -0.002 A 
HETATM    4  S1  UNL     1      12.781  49.751  58.867  1.00  0.00    -0.093 SA
HETATM    5  C8  UNL     1      11.409  50.712  59.200  1.00  0.00     0.017 A 
HETATM    6  C9  UNL     1      10.025  50.535  59.078  1.00  0.00     0.042 A 
HETATM    7  C10 UNL     1       9.132  51.532  59.443  1.00  0.00     0.049 A 
HETATM    8  C11 UNL     1       9.667  52.704  59.932  1.00  0.00     0.065 A 
HETATM    9  N2  UNL     1       8.766  53.757  60.320  1.00  0.00    -0.101 NA
HETATM   10  C12 UNL     1      11.017  52.864  60.048  1.00  0.00     0.041 A 
HETATM   11  C13 UNL     1      11.955  51.872  59.686  1.00  0.00    -0.010 A 
ENDROOT
BRANCH   7  12
HETATM   12  S2  UNL     1       7.367  51.254  59.265  1.00  0.00     0.009 SA
BRANCH  12  13
HETATM   13  N1  UNL     1       6.400  51.525  60.521  1.00  0.00    -0.237 N 
ATOM     14  H1  UNL     1       6.774  51.987  61.350  1.00  0.00     0.203 HD
BRANCH  13  15
HETATM   15  O1  UNL     1       5.077  51.145  60.500  1.00  0.00    -0.283 OA
ATOM     16  H1  UNL     1       4.407  51.668  60.923  1.00  0.00     0.245 HD
ENDBRANCH  13  15
ENDBRANCH  12  13
ENDBRANCH   7  12
BRANCH   3  17
HETATM   17  C4  UNL     1      15.490  50.620  59.316  1.00  0.00    -0.017 C 
HETATM   18  C5  UNL     1      15.693  49.156  58.918  1.00  0.00     0.020 C 
HETATM   19  C6  UNL     1      16.151  51.474  58.262  1.00  0.00     0.020 C 
HETATM   20  C7  UNL     1      16.120  50.839  60.658  1.00  0.00     0.020 C 
ENDBRANCH   3  17
TORSDOF 4
ENDMDL
MODEL 2
REMARK VINA RESULT: -6.820403022      4.218      6.617
REMARK  4 active torsions:
REMARK  status: ('A' for Active; 'I' for Inactive)
REMARK    1  A    between atoms: C3_3  and  C4_4 
REMARK    2  A    between atoms: C10_11  and  S2_12 
REMARK    3  A    between atoms: S2_12  and  N1_13 
REMARK    4  A    between atoms: N1_13  and  O1_15 
ROOT
HETATM    1  C1  UNL     1      10.345  53.825  59.275  1.00  0.00     0.050 C 
HETATM    2  C2  UNL     1      10.516  52.310  59.260  1.00  0.00    -0.036 A 
HETATM    3  C3  UNL     1       9.410  51.522  59.380  1.00  0.00    -0.002 A 
HETATM    4  S1  UNL     1      10.049  49.947  59.315  1.00  0.00    -0.093 SA
HETATM    5  C8  UNL     1      11.706  50.325  59.137  1.00  0.00     0.017 A 
HETATM    6  C9  UNL     1      12.883  49.577  59.012  1.00  0.00     0.042 A 
HETATM    7  C10 UNL     1      14.121  50.190  58.879  1.00  0.00     0.049 A 
HETATM    8  C11 UNL     1      14.140  51.567  58.874  1.00  0.00     0.065 A 
HETATM    9  N2  UNL     1      15.409  52.232  58.738  1.00  0.00    -0.101 NA
HETATM   10  C12 UNL     1      12.986  52.286  58.996  1.00  0.00     0.041 A 
HETATM   11  C13 UNL     1      11.710  51.697  59.133  1.00  0.00    -0.010 A 
ENDROOT
BRANCH   7  12
HETATM   12  S2  UNL     1      15.599  49.182  58.723  1.00  0.00     0.009 SA
BRANCH  12  13
HETATM   13  N1  UNL     1      16.681  49.189  59.912  1.00  0.00    -0.237 N 
ATOM     14  H1  UNL     1      17.153  48.321  60.165  1.00  0.00     0.203 HD
BRANCH  13  15
HETATM   15  O1  UNL     1      16.982  50.345  60.597  1.00  0.00    -0.283 OA
ATOM     16  H1  UNL     1      16.328  50.791  61.123  1.00  0.00     0.245 HD
ENDBRANCH  13  15
ENDBRANCH  12  13
ENDBRANCH   7  12
BRANCH   3  17
HETATM   17  C4  UNL     1       7.971  51.928  59.534  1.00  0.00    -0.017 C 
HETATM   18  C5  UNL     1       7.149  50.667  59.255  1.00  0.00     0.020 C 
HETATM   19  C6  UNL     1       7.667  52.366  60.946  1.00  0.00     0.020 C 
HETATM   20  C7  UNL     1       7.572  52.982  58.547  1.00  0.00     0.020 C 
ENDBRANCH   3  17
TORSDOF 4
ENDMDL
MODEL 3
REMARK VINA RESULT: -6.818029013      1.567      2.628
REMARK  4 active torsions:
REMARK  status: ('A' for Active; 'I' for Inactive)
REMARK    1  A    between atoms: C3_3  and  C4_4 
REMARK    2  A    between atoms: C10_11  and  S2_12 
REMARK    3  A    between atoms: S2_12  and  N1_13 
REMARK    4  A    between atoms: N1_13  and  O1_15 
ROOT
HETATM    1  C1  UNL     1      13.213  48.471  57.724  1.00  0.00     0.050 C 
HETATM    2  C2  UNL     1      13.129  49.887  58.284  1.00  0.00    -0.036 A 
HETATM    3  C3  UNL     1      14.265  50.638  58.346  1.00  0.00    -0.002 A 
HETATM    4  S1  UNL     1      13.722  52.104  59.016  1.00  0.00    -0.093 SA
HETATM    5  C8  UNL     1      12.065  51.730  59.202  1.00  0.00     0.017 A 
HETATM    6  C9  UNL     1      10.945  52.415  59.687  1.00  0.00     0.042 A 
HETATM    7  C10 UNL     1       9.689  51.826  59.711  1.00  0.00     0.049 A 
HETATM    8  C11 UNL     1       9.593  50.537  59.236  1.00  0.00     0.065 A 
HETATM    9  N2  UNL     1       8.303  49.899  59.249  1.00  0.00    -0.101 NA
HETATM   10  C12 UNL     1      10.691  49.879  58.765  1.00  0.00     0.041 A 
HETATM   11  C13 UNL     1      11.984  50.446  58.725  1.00  0.00    -0.010 A 
ENDROOT
BRANCH   7  12
HETATM   12  S2  UNL     1       8.285  52.751  60.345  1.00  0.00     0.009 SA
BRANCH  12  13
HETATM   13  N1  UNL     1       6.811  52.404  59.806  1.00  0.00    -0.237 N 
ATOM     14  H1  UNL     1       6.423  52.938  59.029  1.00  0.00     0.203 HD
BRANCH  13  15
HETATM   15  O1  UNL     1       6.061  51.398  60.374  1.00  0.00    -0.283 OA
ATOM     16  H1  UNL     1       5.440  50.896  59.860  1.00  0.00     0.245 HD
ENDBRANCH  13  15
ENDBRANCH  12  13
ENDBRANCH   7  12
BRANCH   3  17
HETATM   17  C4  UNL     1      15.663  50.276  57.930  1.00  0.00    -0.017 C 
HETATM   18  C5  UNL     1      16.448  51.590  57.914  1.00  0.00     0.020 C 
HETATM   19  C6  UNL     1      16.322  49.365  58.937  1.00  0.00     0.020 C 
HETATM   20  C7  UNL     1      15.708  49.680  56.556  1.00  0.00     0.020 C 
ENDBRANCH   3  17
TORSDOF 4
ENDMDL
MODEL 4
REMARK VINA RESULT: -6.780757104      4.243      6.640
REMARK  4 active torsions:
REMARK  status: ('A' for Active; 'I' for Inactive)
REMARK    1  A    between atoms: C3_3  and  C4_4 
REMARK    2  A    between atoms: C10_11  and  S2_12 
REMARK    3  A    between atoms: S2_12  and  N1_13 
REMARK    4  A    between atoms: N1_13  and  O1_15 
ROOT
HETATM    1  C1  UNL     1      10.288  53.822  59.232  1.00  0.00     0.050 C 
HETATM    2  C2  UNL     1      10.504  52.314  59.304  1.00  0.00    -0.036 A 
HETATM    3  C3  UNL     1       9.418  51.500  59.429  1.00  0.00    -0.002 A 
HETATM    4  S1  UNL     1      10.106  49.944  59.468  1.00  0.00    -0.093 SA
HETATM    5  C8  UNL     1      11.756  50.365  59.325  1.00  0.00     0.017 A 
HETATM    6  C9  UNL     1      12.958  49.649  59.279  1.00  0.00     0.042 A 
HETATM    7  C10 UNL     1      14.181  50.292  59.154  1.00  0.00     0.049 A 
HETATM    8  C11 UNL     1      14.160  51.667  59.077  1.00  0.00     0.065 A 
HETATM    9  N2  UNL     1      15.413  52.364  58.947  1.00  0.00    -0.101 NA
HETATM   10  C12 UNL     1      12.982  52.354  59.122  1.00  0.00     0.041 A 
HETATM   11  C13 UNL     1      11.720  51.734  59.249  1.00  0.00    -0.010 A 
ENDROOT
BRANCH   7  12
HETATM   12  S2  UNL     1      15.694  49.325  59.101  1.00  0.00     0.009 SA
BRANCH  12  13
HETATM   13  N1  UNL     1      16.709  49.390  60.345  1.00  0.00    -0.237 N 
ATOM     14  H1  UNL     1      16.919  48.538  60.865  1.00  0.00     0.203 HD
BRANCH  13  15
HETATM   15  O1  UNL     1      17.301  50.574  60.723  1.00  0.00    -0.283 OA
ATOM     16  H1  UNL     1      16.799  51.378  60.784  1.00  0.00     0.245 HD
ENDBRANCH  13  15
ENDBRANCH  12  13
ENDBRANCH   7  12
BRANCH   3  17
HETATM   17  C4  UNL     1       7.964  51.868  59.513  1.00  0.00    -0.017 C 
HETATM   18  C5  UNL     1       7.730  52.319  60.958  1.00  0.00     0.020 C 
HETATM   19  C6  UNL     1       7.633  53.033  58.614  1.00  0.00     0.020 C 
HETATM   20  C7  UNL     1       7.068  50.700  59.232  1.00  0.00     0.020 C 
ENDBRANCH   3  17
TORSDOF 4
ENDMDL
MODEL 5
REMARK VINA RESULT: -6.750632091      4.337      6.933
REMARK  4 active torsions:
REMARK  status: ('A' for Active; 'I' for Inactive)
REMARK    1  A    between atoms: C3_3  and  C4_4 
REMARK    2  A    between atoms: C10_11  and  S2_12 
REMARK    3  A    between atoms: S2_12  and  N1_13 
REMARK    4  A    between atoms: N1_13  and  O1_15 
ROOT
HETATM    1  C1  UNL     1       9.378  49.457  59.686  1.00  0.00     0.050 C 
HETATM    2  C2  UNL     1      10.136  50.769  59.516  1.00  0.00    -0.036 A 
HETATM    3  C3  UNL     1       9.428  51.930  59.420  1.00  0.00    -0.002 A 
HETATM    4  S1  UNL     1      10.642  53.109  59.247  1.00  0.00    -0.093 SA
HETATM    5  C8  UNL     1      12.020  52.101  59.302  1.00  0.00     0.017 A 
HETATM    6  C9  UNL     1      13.402  52.311  59.228  1.00  0.00     0.042 A 
HETATM    7  C10 UNL     1      14.301  51.257  59.306  1.00  0.00     0.049 A 
HETATM    8  C11 UNL     1      13.773  49.995  59.461  1.00  0.00     0.065 A 
HETATM    9  N2  UNL     1      14.680  48.880  59.545  1.00  0.00    -0.101 NA
HETATM   10  C12 UNL     1      12.424  49.802  59.533  1.00  0.00     0.041 A 
HETATM   11  C13 UNL     1      11.480  50.849  59.457  1.00  0.00    -0.010 A 
ENDROOT
BRANCH   7  12
HETATM   12  S2  UNL     1      16.064  51.583  59.204  1.00  0.00     0.009 SA
BRANCH  12  13
HETATM   13  N1  UNL     1      16.992  51.279  60.481  1.00  0.00    -0.237 N 
ATOM     14  H1  UNL     1      17.351  52.056  61.035  1.00  0.00     0.203 HD
BRANCH  13  15
HETATM   15  O1  UNL     1      17.312  49.989  60.841  1.00  0.00    -0.283 OA
ATOM     16  H1  UNL     1      17.132  49.662  61.714  1.00  0.00     0.245 HD
ENDBRANCH  13  15
ENDBRANCH  12  13
ENDBRANCH   7  12
BRANCH   3  17
HETATM   17  C4  UNL     1       7.939  52.137  59.453  1.00  0.00    -0.017 C 
HETATM   18  C5  UNL     1       7.702  53.555  58.928  1.00  0.00     0.020 C 
HETATM   19  C6  UNL     1       7.226  51.183  58.526  1.00  0.00     0.020 C 
HETATM   20  C7  UNL     1       7.387  52.048  60.844  1.00  0.00     0.020 C 
ENDBRANCH   3  17
TORSDOF 4
ENDMDL
