MODEL 1
REMARK VINA RESULT: -8.106302999      0.000      0.000
REMARK  2 active torsions:
REMARK  status: ('A' for Active; 'I' for Inactive)
REMARK    1  A    between atoms: C9_9  and  N1_11 
REMARK    2  A    between atoms: N1_11  and  C11_13 
ROOT
HETATM    1  C1  UNL     1      16.341  49.688  56.922  1.00  0.00     0.049 C 
HETATM    2  C2  UNL     1      15.223  50.229  57.704  1.00  0.00    -0.053 A 
HETATM    3  C3  UNL     1      15.370  50.607  59.022  1.00  0.00     0.044 A 
HETATM    4  C4  UNL     1      14.299  51.124  59.763  1.00  0.00     0.079 A 
HETATM    5  C5  UNL     1      13.096  51.253  59.167  1.00  0.00     0.003 A 
HETATM    6  C6  UNL     1      12.904  50.882  57.835  1.00  0.00     0.019 A 
HETATM    7  C7  UNL     1      13.997  50.374  57.140  1.00  0.00    -0.055 A 
HETATM    8  C8  UNL     1      13.771  49.986  55.738  1.00  0.00     0.049 C 
HETATM    9  C9  UNL     1      11.850  51.799  59.846  1.00  0.00     0.055 C 
HETATM   10  C10 UNL     1      11.776  53.203  59.259  1.00  0.00     0.044 C 
HETATM   11  C15 UNL     1      12.042  51.855  61.319  1.00  0.00     0.073 C 
HETATM   12  C16 UNL     1      13.446  52.170  61.771  1.00  0.00     0.063 C 
HETATM   13  C17 UNL     1      13.532  51.697  63.230  1.00  0.00     0.046 C 
HETATM   14  C18 UNL     1      13.648  53.676  61.817  1.00  0.00     0.046 C 
HETATM   15  O1  UNL     1      14.439  51.500  61.073  1.00  0.00    -0.340 OA
ENDROOT
BRANCH   9  16
HETATM   16  N1  UNL     1      10.843  50.935  59.470  1.00  0.00    -0.401 N 
ATOM     17  H1  UNL     1      11.085  50.311  58.701  1.00  0.00     0.155 HD
BRANCH  16  18
HETATM   18  C11 UNL     1       9.588  50.775  59.948  1.00  0.00     0.015 C 
HETATM   19  C12 UNL     1       8.946  51.861  60.756  1.00  0.00     0.037 C 
HETATM   20  C13 UNL     1       8.669  50.627  58.699  1.00  0.00     0.037 C 
HETATM   21  C14 UNL     1       9.384  49.474  60.678  1.00  0.00     0.037 C 
ENDBRANCH  16  18
ENDBRANCH   9  16
TORSDOF 2
ENDMDL
MODEL 2
REMARK VINA RESULT: -7.910962686      1.391      4.911
REMARK  2 active torsions:
REMARK  status: ('A' for Active; 'I' for Inactive)
REMARK    1  A    between atoms: C9_9  and  N1_11 
REMARK    2  A    between atoms: N1_11  and  C11_13 
ROOT
HETATM    1  C1  UNL     1       7.837  51.768  60.400  1.00  0.00     0.049 C 
HETATM    2  C2  UNL     1       9.261  51.507  60.154  1.00  0.00    -0.053 A 
HETATM    3  C3  UNL     1      10.244  52.383  60.562  1.00  0.00     0.044 A 
HETATM    4  C4  UNL     1      11.601  52.128  60.324  1.00  0.00     0.079 A 
HETATM    5  C5  UNL     1      11.949  50.995  59.680  1.00  0.00     0.003 A 
HETATM    6  C6  UNL     1      10.984  50.083  59.250  1.00  0.00     0.019 A 
HETATM    7  C7  UNL     1       9.650  50.378  59.509  1.00  0.00    -0.055 A 
HETATM    8  C8  UNL     1       8.650  49.403  59.044  1.00  0.00     0.049 C 
HETATM    9  C9  UNL     1      13.378  50.590  59.357  1.00  0.00     0.055 C 
HETATM   10  C10 UNL     1      13.635  49.521  60.412  1.00  0.00     0.044 C 
HETATM   11  C15 UNL     1      14.300  51.741  59.540  1.00  0.00     0.073 C 
HETATM   12  C16 UNL     1      13.932  52.686  60.656  1.00  0.00     0.063 C 
HETATM   13  C17 UNL     1      14.674  53.997  60.357  1.00  0.00     0.046 C 
HETATM   14  C18 UNL     1      14.507  52.183  61.971  1.00  0.00     0.046 C 
HETATM   15  O1  UNL     1      12.582  52.997  60.725  1.00  0.00    -0.340 OA
ENDROOT
BRANCH   9  16
HETATM   16  N1  UNL     1      13.327  50.147  58.052  1.00  0.00    -0.401 N 
ATOM     17  H1  UNL     1      12.414  49.800  57.757  1.00  0.00     0.155 HD
BRANCH  16  18
HETATM   18  C11 UNL     1      14.282  50.095  57.096  1.00  0.00     0.015 C 
HETATM   19  C12 UNL     1      15.646  49.570  57.422  1.00  0.00     0.037 C 
HETATM   20  C13 UNL     1      13.743  49.123  56.005  1.00  0.00     0.037 C 
HETATM   21  C14 UNL     1      14.452  51.389  56.345  1.00  0.00     0.037 C 
ENDBRANCH  16  18
ENDBRANCH   9  16
TORSDOF 2
ENDMDL
MODEL 3
REMARK VINA RESULT: -7.714994634      1.831      5.432
REMARK  2 active torsions:
REMARK  status: ('A' for Active; 'I' for Inactive)
REMARK    1  A    between atoms: C9_9  and  N1_11 
REMARK    2  A    between atoms: N1_11  and  C11_13 
ROOT
HETATM    1  C1  UNL     1       7.127  50.947  59.277  1.00  0.00     0.049 C 
HETATM    2  C2  UNL     1       8.587  51.025  59.405  1.00  0.00    -0.053 A 
HETATM    3  C3  UNL     1       9.431  50.298  58.592  1.00  0.00     0.044 A 
HETATM    4  C4  UNL     1      10.824  50.378  58.719  1.00  0.00     0.079 A 
HETATM    5  C5  UNL     1      11.348  51.189  59.660  1.00  0.00     0.003 A 
HETATM    6  C6  UNL     1      10.529  51.942  60.503  1.00  0.00     0.019 A 
HETATM    7  C7  UNL     1       9.152  51.830  60.340  1.00  0.00    -0.055 A 
HETATM    8  C8  UNL     1       8.308  52.631  61.242  1.00  0.00     0.049 C 
HETATM    9  C9  UNL     1      12.837  51.377  59.907  1.00  0.00     0.055 C 
HETATM   10  C10 UNL     1      13.083  52.734  59.260  1.00  0.00     0.044 C 
HETATM   11  C15 UNL     1      13.616  50.316  59.217  1.00  0.00     0.073 C 
HETATM   12  C16 UNL     1      13.040  49.849  57.904  1.00  0.00     0.063 C 
HETATM   13  C17 UNL     1      13.678  48.478  57.632  1.00  0.00     0.046 C 
HETATM   14  C18 UNL     1      13.518  50.752  56.779  1.00  0.00     0.046 C 
HETATM   15  O1  UNL     1      11.667  49.656  57.915  1.00  0.00    -0.340 OA
ENDROOT
BRANCH   9  16
HETATM   16  N1  UNL     1      12.969  51.331  61.280  1.00  0.00    -0.401 N 
ATOM     17  H1  UNL     1      12.131  51.024  61.776  1.00  0.00     0.155 HD
BRANCH  16  18
HETATM   18  C11 UNL     1      14.019  51.624  62.079  1.00  0.00     0.015 C 
HETATM   19  C12 UNL     1      15.032  52.639  61.648  1.00  0.00     0.037 C 
HETATM   20  C13 UNL     1      13.411  52.214  63.386  1.00  0.00     0.037 C 
HETATM   21  C14 UNL     1      14.760  50.408  62.567  1.00  0.00     0.037 C 
ENDBRANCH  16  18
ENDBRANCH   9  16
TORSDOF 2
ENDMDL
MODEL 4
REMARK VINA RESULT: -7.589668119      1.722      4.894
REMARK  2 active torsions:
REMARK  status: ('A' for Active; 'I' for Inactive)
REMARK    1  A    between atoms: C9_9  and  N1_11 
REMARK    2  A    between atoms: N1_11  and  C11_13 
ROOT
HETATM    1  C1  UNL     1       8.117  51.193  58.865  1.00  0.00     0.049 C 
HETATM    2  C2  UNL     1       9.538  51.373  59.189  1.00  0.00    -0.053 A 
HETATM    3  C3  UNL     1      10.478  50.404  58.911  1.00  0.00     0.044 A 
HETATM    4  C4  UNL     1      11.832  50.582  59.222  1.00  0.00     0.079 A 
HETATM    5  C5  UNL     1      12.221  51.733  59.808  1.00  0.00     0.003 A 
HETATM    6  C6  UNL     1      11.301  52.739  60.107  1.00  0.00     0.019 A 
HETATM    7  C7  UNL     1       9.968  52.517  59.779  1.00  0.00    -0.055 A 
HETATM    8  C8  UNL     1       9.015  53.591  60.106  1.00  0.00     0.049 C 
HETATM    9  C9  UNL     1      13.654  52.063  60.197  1.00  0.00     0.055 C 
HETATM   10  C10 UNL     1      14.053  53.031  59.090  1.00  0.00     0.044 C 
HETATM   11  C15 UNL     1      14.498  50.841  60.158  1.00  0.00     0.073 C 
HETATM   12  C16 UNL     1      14.133  49.843  59.088  1.00  0.00     0.063 C 
HETATM   13  C17 UNL     1      14.757  48.510  59.528  1.00  0.00     0.046 C 
HETATM   14  C18 UNL     1      14.824  50.207  57.784  1.00  0.00     0.046 C 
HETATM   15  O1  UNL     1      12.771  49.621  58.949  1.00  0.00    -0.340 OA
ENDROOT
BRANCH   9  16
HETATM   16  N1  UNL     1      13.553  52.604  61.463  1.00  0.00    -0.401 N 
ATOM     17  H1  UNL     1      13.562  53.624  61.490  1.00  0.00     0.155 HD
BRANCH  16  18
HETATM   18  C11 UNL     1      13.445  52.011  62.673  1.00  0.00     0.015 C 
HETATM   19  C12 UNL     1      14.352  50.877  63.040  1.00  0.00     0.037 C 
HETATM   20  C13 UNL     1      13.765  53.117  63.722  1.00  0.00     0.037 C 
HETATM   21  C14 UNL     1      12.037  51.609  63.021  1.00  0.00     0.037 C 
ENDBRANCH  16  18
ENDBRANCH   9  16
TORSDOF 2
ENDMDL
MODEL 5
REMARK VINA RESULT: -7.500538262      1.550      4.819
REMARK  2 active torsions:
REMARK  status: ('A' for Active; 'I' for Inactive)
REMARK    1  A    between atoms: C9_9  and  N1_11 
REMARK    2  A    between atoms: N1_11  and  C11_13 
ROOT
HETATM    1  C1  UNL     1       8.072  50.450  59.605  1.00  0.00     0.049 C 
HETATM    2  C2  UNL     1       9.528  50.530  59.775  1.00  0.00    -0.053 A 
HETATM    3  C3  UNL     1      10.110  51.368  60.703  1.00  0.00     0.044 A 
HETATM    4  C4  UNL     1      11.500  51.440  60.860  1.00  0.00     0.079 A 
HETATM    5  C5  UNL     1      12.285  50.667  60.082  1.00  0.00     0.003 A 
HETATM    6  C6  UNL     1      11.737  49.806  59.130  1.00  0.00     0.019 A 
HETATM    7  C7  UNL     1      10.351  49.769  59.011  1.00  0.00    -0.055 A 
HETATM    8  C8  UNL     1       9.796  48.856  57.998  1.00  0.00     0.049 C 
HETATM    9  C9  UNL     1      13.804  50.640  60.145  1.00  0.00     0.055 C 
HETATM   10  C10 UNL     1      14.053  49.336  60.893  1.00  0.00     0.044 C 
HETATM   11  C15 UNL     1      14.313  51.799  60.924  1.00  0.00     0.073 C 
HETATM   12  C16 UNL     1      13.438  52.234  62.072  1.00  0.00     0.063 C 
HETATM   13  C17 UNL     1      13.862  53.674  62.399  1.00  0.00     0.046 C 
HETATM   14  C18 UNL     1      13.768  51.420  63.312  1.00  0.00     0.046 C 
HETATM   15  O1  UNL     1      12.083  52.272  61.780  1.00  0.00    -0.340 OA
ENDROOT
BRANCH   9  16
HETATM   16  N1  UNL     1      14.206  50.664  58.826  1.00  0.00    -0.401 N 
ATOM     17  H1  UNL     1      13.524  51.064  58.182  1.00  0.00     0.155 HD
BRANCH  16  18
HETATM   18  C11 UNL     1      15.352  50.246  58.241  1.00  0.00     0.015 C 
HETATM   19  C12 UNL     1      16.288  49.342  58.981  1.00  0.00     0.037 C 
HETATM   20  C13 UNL     1      14.919  49.419  56.994  1.00  0.00     0.037 C 
HETATM   21  C14 UNL     1      16.164  51.364  57.643  1.00  0.00     0.037 C 
ENDBRANCH  16  18
ENDBRANCH   9  16
TORSDOF 2
ENDMDL
