MODEL 1
REMARK VINA RESULT: -7.484749963      0.000      0.000
REMARK  2 active torsions:
REMARK  status: ('A' for Active; 'I' for Inactive)
REMARK    1  A    between atoms: C6_6  and  N1_7 
REMARK       I    between atoms: N1_7  and  C7_8 
REMARK    2  A    between atoms: C7_8  and  C8_10 
ROOT
HETATM    1  N1  UNL     1      12.439  51.197  59.642  1.00  0.00    -0.365 NA
HETATM    2  C7  UNL     1      11.386  51.553  60.404  1.00  0.00     0.329 C 
HETATM    3  O1  UNL     1      11.543  51.923  61.607  1.00  0.00    -0.251 OA
ENDROOT
BRANCH   1   4
HETATM    4  C6  UNL     1      13.489  50.842  58.882  1.00  0.00     0.123 A 
HETATM    5  C4  UNL     1      14.742  51.414  59.055  1.00  0.00    -0.020 A 
HETATM    6  C3  UNL     1      15.837  51.059  58.316  1.00  0.00     0.017 A 
HETATM    7  C5  UNL     1      14.906  52.475  60.094  1.00  0.00     0.052 C 
HETATM    8  C2  UNL     1      15.694  50.093  57.361  1.00  0.00    -0.061 A 
HETATM    9  C1  UNL     1      16.869  49.681  56.538  1.00  0.00     0.048 C 
HETATM   10  C16 UNL     1      14.493  49.498  57.146  1.00  0.00     0.017 A 
HETATM   11  C14 UNL     1      13.393  49.861  57.894  1.00  0.00    -0.020 A 
HETATM   12  C15 UNL     1      12.043  49.273  57.711  1.00  0.00     0.052 C 
ENDBRANCH   1   4
BRANCH   2  13
HETATM   13  C8  UNL     1       9.931  51.567  59.978  1.00  0.00     0.084 A 
HETATM   14  C9  UNL     1       9.179  50.419  60.067  1.00  0.00     0.104 A 
HETATM   15  N2  UNL     1       9.585  49.117  60.540  1.00  0.00    -0.093 NA
HETATM   16  S1  UNL     1       7.639  50.875  59.495  1.00  0.00    -0.079 SA
HETATM   17  C10 UNL     1       7.965  52.506  59.152  1.00  0.00    -0.013 A 
HETATM   18  C11 UNL     1       7.003  53.535  58.594  1.00  0.00     0.057 C 
HETATM   19  C12 UNL     1       9.287  52.655  59.498  1.00  0.00    -0.030 A 
HETATM   20  C13 UNL     1       9.914  54.034  59.335  1.00  0.00     0.050 C 
ENDBRANCH   2  13
TORSDOF 2
ENDMDL
MODEL 2
REMARK VINA RESULT: -7.475608892      2.408      6.268
REMARK  2 active torsions:
REMARK  status: ('A' for Active; 'I' for Inactive)
REMARK    1  A    between atoms: C6_6  and  N1_7 
REMARK       I    between atoms: N1_7  and  C7_8 
REMARK    2  A    between atoms: C7_8  and  C8_10 
ROOT
HETATM    1  N1  UNL     1      11.706  51.957  59.563  1.00  0.00    -0.365 NA
HETATM    2  C7  UNL     1      13.032  52.196  59.549  1.00  0.00     0.329 C 
HETATM    3  O1  UNL     1      13.498  53.329  59.878  1.00  0.00    -0.251 OA
ENDROOT
BRANCH   1   4
HETATM    4  C6  UNL     1      10.383  51.719  59.578  1.00  0.00     0.123 A 
HETATM    5  C4  UNL     1       9.455  52.748  59.491  1.00  0.00    -0.020 A 
HETATM    6  C3  UNL     1       8.103  52.539  59.478  1.00  0.00     0.017 A 
HETATM    7  C5  UNL     1       9.952  54.155  59.415  1.00  0.00     0.052 C 
HETATM    8  C2  UNL     1       7.640  51.256  59.553  1.00  0.00    -0.061 A 
HETATM    9  C1  UNL     1       6.171  50.993  59.539  1.00  0.00     0.048 C 
HETATM   10  C16 UNL     1       8.501  50.210  59.639  1.00  0.00     0.017 A 
HETATM   11  C14 UNL     1       9.862  50.427  59.652  1.00  0.00    -0.020 A 
HETATM   12  C15 UNL     1      10.867  49.341  59.761  1.00  0.00     0.052 C 
ENDBRANCH   1   4
BRANCH   2  13
HETATM   13  C8  UNL     1      14.119  51.212  59.161  1.00  0.00     0.084 A 
HETATM   14  C9  UNL     1      14.854  50.583  60.140  1.00  0.00     0.104 A 
HETATM   15  N2  UNL     1      14.741  50.720  61.572  1.00  0.00    -0.093 NA
HETATM   16  S1  UNL     1      15.941  49.589  59.280  1.00  0.00    -0.079 SA
HETATM   17  C10 UNL     1      15.451  49.980  57.701  1.00  0.00    -0.013 A 
HETATM   18  C11 UNL     1      16.020  49.436  56.405  1.00  0.00     0.057 C 
HETATM   19  C12 UNL     1      14.438  50.889  57.888  1.00  0.00    -0.030 A 
HETATM   20  C13 UNL     1      13.742  51.444  56.651  1.00  0.00     0.050 C 
ENDBRANCH   2  13
TORSDOF 2
ENDMDL
MODEL 3
REMARK VINA RESULT: -7.471924171      2.403      6.409
REMARK  2 active torsions:
REMARK  status: ('A' for Active; 'I' for Inactive)
REMARK    1  A    between atoms: C6_6  and  N1_7 
REMARK       I    between atoms: N1_7  and  C7_8 
REMARK    2  A    between atoms: C7_8  and  C8_10 
ROOT
HETATM    1  N1  UNL     1      11.666  52.017  59.602  1.00  0.00    -0.365 NA
HETATM    2  C7  UNL     1      12.992  52.254  59.617  1.00  0.00     0.329 C 
HETATM    3  O1  UNL     1      13.454  53.380  59.975  1.00  0.00    -0.251 OA
ENDROOT
BRANCH   1   4
HETATM    4  C6  UNL     1      10.343  51.782  59.587  1.00  0.00     0.123 A 
HETATM    5  C4  UNL     1       9.828  50.495  59.677  1.00  0.00    -0.020 A 
HETATM    6  C3  UNL     1       8.488  50.222  59.689  1.00  0.00     0.017 A 
HETATM    7  C5  UNL     1      10.783  49.348  59.756  1.00  0.00     0.052 C 
HETATM    8  C2  UNL     1       7.609  51.265  59.611  1.00  0.00    -0.061 A 
HETATM    9  C1  UNL     1       6.140  51.003  59.624  1.00  0.00     0.048 C 
HETATM   10  C16 UNL     1       8.054  52.545  59.522  1.00  0.00     0.017 A 
HETATM   11  C14 UNL     1       9.406  52.813  59.509  1.00  0.00    -0.020 A 
HETATM   12  C15 UNL     1       9.973  54.180  59.397  1.00  0.00     0.052 C 
ENDBRANCH   1   4
BRANCH   2  13
HETATM   13  C8  UNL     1      14.085  51.274  59.234  1.00  0.00     0.084 A 
HETATM   14  C9  UNL     1      14.844  50.676  60.213  1.00  0.00     0.104 A 
HETATM   15  N2  UNL     1      14.753  50.844  61.644  1.00  0.00    -0.093 NA
HETATM   16  S1  UNL     1      15.928  49.676  59.358  1.00  0.00    -0.079 SA
HETATM   17  C10 UNL     1      15.408  50.025  57.779  1.00  0.00    -0.013 A 
HETATM   18  C11 UNL     1      15.962  49.460  56.487  1.00  0.00     0.057 C 
HETATM   19  C12 UNL     1      14.387  50.926  57.963  1.00  0.00    -0.030 A 
HETATM   20  C13 UNL     1      13.665  51.445  56.725  1.00  0.00     0.050 C 
ENDBRANCH   2  13
TORSDOF 2
ENDMDL
MODEL 4
REMARK VINA RESULT: -7.452606622      0.068      1.880
REMARK  2 active torsions:
REMARK  status: ('A' for Active; 'I' for Inactive)
REMARK    1  A    between atoms: C6_6  and  N1_7 
REMARK       I    between atoms: N1_7  and  C7_8 
REMARK    2  A    between atoms: C7_8  and  C8_10 
ROOT
HETATM    1  N1  UNL     1      12.454  51.176  59.669  1.00  0.00    -0.365 NA
HETATM    2  C7  UNL     1      11.396  51.554  60.413  1.00  0.00     0.329 C 
HETATM    3  O1  UNL     1      11.543  51.949  61.610  1.00  0.00    -0.251 OA
ENDROOT
BRANCH   1   4
HETATM    4  C6  UNL     1      13.509  50.800  58.928  1.00  0.00     0.123 A 
HETATM    5  C4  UNL     1      13.411  49.798  57.970  1.00  0.00    -0.020 A 
HETATM    6  C3  UNL     1      14.458  49.408  57.182  1.00  0.00     0.017 A 
HETATM    7  C5  UNL     1      12.098  49.105  57.795  1.00  0.00     0.052 C 
HETATM    8  C2  UNL     1      15.662  50.034  57.340  1.00  0.00    -0.061 A 
HETATM    9  C1  UNL     1      16.825  49.633  56.494  1.00  0.00     0.048 C 
HETATM   10  C16 UNL     1      15.818  51.020  58.260  1.00  0.00     0.017 A 
HETATM   11  C14 UNL     1      14.759  51.408  59.051  1.00  0.00    -0.020 A 
HETATM   12  C15 UNL     1      14.852  52.464  60.090  1.00  0.00     0.052 C 
ENDBRANCH   1   4
BRANCH   2  13
HETATM   13  C8  UNL     1       9.945  51.568  59.972  1.00  0.00     0.084 A 
HETATM   14  C9  UNL     1       9.193  50.419  60.054  1.00  0.00     0.104 A 
HETATM   15  N2  UNL     1       9.594  49.118  60.532  1.00  0.00    -0.093 NA
HETATM   16  S1  UNL     1       7.659  50.874  59.466  1.00  0.00    -0.079 SA
HETATM   17  C10 UNL     1       7.988  52.505  59.125  1.00  0.00    -0.013 A 
HETATM   18  C11 UNL     1       7.031  53.533  58.556  1.00  0.00     0.057 C 
HETATM   19  C12 UNL     1       9.306  52.655  59.485  1.00  0.00    -0.030 A 
HETATM   20  C13 UNL     1       9.934  54.034  59.327  1.00  0.00     0.050 C 
ENDBRANCH   2  13
TORSDOF 2
ENDMDL
MODEL 5
REMARK VINA RESULT: -7.097370479      2.562      6.619
REMARK  2 active torsions:
REMARK  status: ('A' for Active; 'I' for Inactive)
REMARK    1  A    between atoms: C6_6  and  N1_7 
REMARK       I    between atoms: N1_7  and  C7_8 
REMARK    2  A    between atoms: C7_8  and  C8_10 
ROOT
HETATM    1  N1  UNL     1      12.087  50.349  60.105  1.00  0.00    -0.365 NA
HETATM    2  C7  UNL     1      13.398  50.041  60.131  1.00  0.00     0.329 C 
HETATM    3  O1  UNL     1      13.908  49.422  61.114  1.00  0.00    -0.251 OA
ENDROOT
BRANCH   1   4
HETATM    4  C6  UNL     1      10.779  50.656  60.079  1.00  0.00     0.123 A 
HETATM    5  C4  UNL     1       9.864  49.897  59.361  1.00  0.00    -0.020 A 
HETATM    6  C3  UNL     1       8.523  50.167  59.334  1.00  0.00     0.017 A 
HETATM    7  C5  UNL     1      10.366  48.732  58.572  1.00  0.00     0.052 C 
HETATM    8  C2  UNL     1       8.058  51.234  60.048  1.00  0.00    -0.061 A 
HETATM    9  C1  UNL     1       6.600  51.555  60.042  1.00  0.00     0.048 C 
HETATM   10  C16 UNL     1       8.905  52.011  60.770  1.00  0.00     0.017 A 
HETATM   11  C14 UNL     1      10.255  51.734  60.793  1.00  0.00    -0.020 A 
HETATM   12  C15 UNL     1      11.249  52.544  61.541  1.00  0.00     0.052 C 
ENDBRANCH   1   4
BRANCH   2  13
HETATM   13  C8  UNL     1      14.419  50.363  59.056  1.00  0.00     0.084 A 
HETATM   14  C9  UNL     1      15.268  51.434  59.217  1.00  0.00     0.104 A 
HETATM   15  N2  UNL     1      15.347  52.356  60.324  1.00  0.00    -0.093 NA
HETATM   16  S1  UNL     1      16.225  51.432  57.806  1.00  0.00    -0.079 SA
HETATM   17  C10 UNL     1      15.542  50.081  57.035  1.00  0.00    -0.013 A 
HETATM   18  C11 UNL     1      15.933  49.498  55.691  1.00  0.00     0.057 C 
HETATM   19  C12 UNL     1      14.571  49.661  57.911  1.00  0.00    -0.030 A 
HETATM   20  C13 UNL     1      13.758  48.427  57.535  1.00  0.00     0.050 C 
ENDBRANCH   2  13
TORSDOF 2
ENDMDL
