MODEL 1
REMARK VINA RESULT: -7.359488839      0.000      0.000
REMARK  3 active torsions:
REMARK  status: ('A' for Active; 'I' for Inactive)
REMARK    1  A    between atoms: C3_3  and  N1_4 
REMARK       I    between atoms: N1_4  and  C4_6 
REMARK       I    between atoms: C4_6  and  N2_8 
REMARK    2  A    between atoms: C6_10  and  N3_11 
REMARK    3  A    between atoms: C12_18  and  O3_19 
ROOT
HETATM    1  N1  UNL     1      -2.847   3.865  10.362  1.00  0.00    -0.332 N 
ATOM      2  H1  UNL     1      -2.674   4.738  10.860  1.00  0.00     0.164 HD
HETATM    3  C4  UNL     1      -3.370   2.782  11.087  1.00  0.00     0.320 C 
HETATM    4  O1  UNL     1      -3.596   1.697  10.515  1.00  0.00    -0.247 OA
HETATM    5  N2  UNL     1      -3.646   2.905  12.466  1.00  0.00    -0.305 N 
HETATM    6  C5  UNL     1      -4.195   1.855  13.346  1.00  0.00     0.166 C 
HETATM    7  C6  UNL     1      -4.145   2.469  14.695  1.00  0.00     0.245 C 
HETATM    8  C11 UNL     1      -4.406   3.932  14.384  1.00  0.00     0.091 C 
HETATM    9  C12 UNL     1      -3.425   4.122  13.247  1.00  0.00     0.226 C 
ENDROOT
BRANCH   9  10
HETATM   10  O3  UNL     1      -2.142   4.111  13.791  1.00  0.00    -0.377 OA
ATOM     11  H3  UNL     1      -1.551   4.608  13.238  1.00  0.00     0.212 HD
ENDBRANCH   9  10
BRANCH   1  12
HETATM   12  C3  UNL     1      -2.538   3.813   8.945  1.00  0.00     0.168 A 
HETATM   13  C2  UNL     1      -2.485   5.089   8.168  1.00  0.00     0.085 A 
HETATM   14  C1  UNL     1      -3.048   5.128   6.756  1.00  0.00     0.018 C 
HETATM   15  C13 UNL     1      -1.242   4.312   8.432  1.00  0.00     0.269 A 
HETATM   16  F1  UNL     1      -0.704   3.574   7.379  1.00  0.00    -0.204 F 
HETATM   17  F2  UNL     1      -0.304   4.877   9.241  1.00  0.00    -0.204 F 
ENDBRANCH   1  12
BRANCH   7  18
HETATM   18  N3  UNL     1      -4.973   1.916  15.682  1.00  0.00     0.099 N 
HETATM   19  C7  UNL     1      -6.302   2.421  15.595  1.00  0.00     0.299 C 
HETATM   20  C8  UNL     1      -7.197   1.861  16.702  1.00  0.00     0.198 C 
HETATM   21  O2  UNL     1      -7.051   0.462  16.775  1.00  0.00    -0.388 OA
HETATM   22  C9  UNL     1      -5.742   0.198  17.133  1.00  0.00     0.198 C 
HETATM   23  C10 UNL     1      -4.866   0.518  15.912  1.00  0.00     0.299 C 
ENDBRANCH   7  18
TORSDOF 3
ENDMDL
MODEL 2
REMARK VINA RESULT: -7.356459260      0.583      1.161
REMARK  3 active torsions:
REMARK  status: ('A' for Active; 'I' for Inactive)
REMARK    1  A    between atoms: C3_3  and  N1_4 
REMARK       I    between atoms: N1_4  and  C4_6 
REMARK       I    between atoms: C4_6  and  N2_8 
REMARK    2  A    between atoms: C6_10  and  N3_11 
REMARK    3  A    between atoms: C12_18  and  O3_19 
ROOT
HETATM    1  N1  UNL     1      -2.665   3.910  10.073  1.00  0.00    -0.332 N 
ATOM      2  H1  UNL     1      -2.332   4.705  10.620  1.00  0.00     0.164 HD
HETATM    3  C4  UNL     1      -3.394   2.909  10.736  1.00  0.00     0.320 C 
HETATM    4  O1  UNL     1      -3.818   1.922  10.103  1.00  0.00    -0.247 OA
HETATM    5  N2  UNL     1      -3.655   3.005  12.120  1.00  0.00    -0.305 N 
HETATM    6  C5  UNL     1      -4.404   2.033  12.939  1.00  0.00     0.166 C 
HETATM    7  C6  UNL     1      -4.250   2.548  14.321  1.00  0.00     0.245 C 
HETATM    8  C11 UNL     1      -4.222   4.050  14.095  1.00  0.00     0.091 C 
HETATM    9  C12 UNL     1      -3.212   4.111  12.969  1.00  0.00     0.226 C 
ENDROOT
BRANCH   9  10
HETATM   10  O3  UNL     1      -1.960   3.823  13.511  1.00  0.00    -0.377 OA
ATOM     11  H3  UNL     1      -1.845   4.292  14.329  1.00  0.00     0.212 HD
ENDBRANCH   9  10
BRANCH   1  12
HETATM   12  C3  UNL     1      -2.358   3.879   8.656  1.00  0.00     0.168 A 
HETATM   13  C2  UNL     1      -2.477   5.141   7.861  1.00  0.00     0.085 A 
HETATM   14  C1  UNL     1      -3.046   5.086   6.453  1.00  0.00     0.018 C 
HETATM   15  C13 UNL     1      -1.141   4.537   8.128  1.00  0.00     0.269 A 
HETATM   16  F1  UNL     1      -0.515   3.862   7.082  1.00  0.00    -0.204 F 
HETATM   17  F2  UNL     1      -0.282   5.232   8.924  1.00  0.00    -0.204 F 
ENDBRANCH   1  12
BRANCH   7  18
HETATM   18  N3  UNL     1      -5.178   2.111  15.275  1.00  0.00     0.099 N 
HETATM   19  C7  UNL     1      -4.693   0.987  16.002  1.00  0.00     0.299 C 
HETATM   20  C8  UNL     1      -5.723   0.472  17.010  1.00  0.00     0.198 C 
HETATM   21  O2  UNL     1      -6.234   1.545  17.765  1.00  0.00    -0.388 OA
HETATM   22  C9  UNL     1      -6.898   2.388  16.893  1.00  0.00     0.198 C 
HETATM   23  C10 UNL     1      -5.828   3.106  16.055  1.00  0.00     0.299 C 
ENDBRANCH   7  18
TORSDOF 3
ENDMDL
MODEL 3
REMARK VINA RESULT: -7.008368192      4.108      7.873
REMARK  3 active torsions:
REMARK  status: ('A' for Active; 'I' for Inactive)
REMARK    1  A    between atoms: C3_3  and  N1_4 
REMARK       I    between atoms: N1_4  and  C4_6 
REMARK       I    between atoms: C4_6  and  N2_8 
REMARK    2  A    between atoms: C6_10  and  N3_11 
REMARK    3  A    between atoms: C12_18  and  O3_19 
ROOT
HETATM    1  N1  UNL     1      -4.839   3.373  14.864  1.00  0.00    -0.332 N 
ATOM      2  H1  UNL     1      -4.804   4.356  15.133  1.00  0.00     0.164 HD
HETATM    3  C4  UNL     1      -3.971   2.933  13.851  1.00  0.00     0.320 C 
HETATM    4  O1  UNL     1      -3.983   1.739  13.493  1.00  0.00    -0.247 OA
HETATM    5  N2  UNL     1      -3.078   3.831  13.226  1.00  0.00    -0.305 N 
HETATM    6  C5  UNL     1      -2.117   3.507  12.155  1.00  0.00     0.166 C 
HETATM    7  C6  UNL     1      -1.554   4.827  11.781  1.00  0.00     0.245 C 
HETATM    8  C11 UNL     1      -1.557   5.559  13.111  1.00  0.00     0.091 C 
HETATM    9  C12 UNL     1      -2.971   5.252  13.558  1.00  0.00     0.226 C 
ENDROOT
BRANCH   9  10
HETATM   10  O3  UNL     1      -3.837   5.994  12.756  1.00  0.00    -0.377 OA
ATOM     11  H3  UNL     1      -4.608   5.479  12.549  1.00  0.00     0.212 HD
ENDBRANCH   9  10
BRANCH   1  12
HETATM   12  C3  UNL     1      -5.782   2.509  15.549  1.00  0.00     0.168 A 
HETATM   13  C2  UNL     1      -5.402   1.929  16.875  1.00  0.00     0.085 A 
HETATM   14  C1  UNL     1      -5.785   0.494  17.200  1.00  0.00     0.018 C 
HETATM   15  C13 UNL     1      -6.471   2.961  16.779  1.00  0.00     0.269 A 
HETATM   16  F1  UNL     1      -7.793   2.538  16.900  1.00  0.00    -0.204 F 
HETATM   17  F2  UNL     1      -6.230   4.175  17.347  1.00  0.00    -0.204 F 
ENDBRANCH   1  12
BRANCH   7  18
HETATM   18  N3  UNL     1      -0.325   4.831  11.106  1.00  0.00     0.099 N 
HETATM   19  C7  UNL     1       0.656   5.588  11.808  1.00  0.00     0.299 C 
HETATM   20  C8  UNL     1       1.984   5.640  11.051  1.00  0.00     0.198 C 
HETATM   21  O2  UNL     1       2.354   4.344  10.640  1.00  0.00    -0.388 OA
HETATM   22  C9  UNL     1       1.392   3.899   9.752  1.00  0.00     0.198 C 
HETATM   23  C10 UNL     1       0.127   3.595  10.570  1.00  0.00     0.299 C 
ENDBRANCH   7  18
TORSDOF 3
ENDMDL
MODEL 4
REMARK VINA RESULT: -6.918247041      1.551      2.765
REMARK  3 active torsions:
REMARK  status: ('A' for Active; 'I' for Inactive)
REMARK    1  A    between atoms: C3_3  and  N1_4 
REMARK       I    between atoms: N1_4  and  C4_6 
REMARK       I    between atoms: C4_6  and  N2_8 
REMARK    2  A    between atoms: C6_10  and  N3_11 
REMARK    3  A    between atoms: C12_18  and  O3_19 
ROOT
HETATM    1  N1  UNL     1      -1.504   3.749  10.533  1.00  0.00    -0.332 N 
ATOM      2  H1  UNL     1      -1.917   2.971  10.020  1.00  0.00     0.164 HD
HETATM    3  C4  UNL     1      -2.041   4.072  11.791  1.00  0.00     0.320 C 
HETATM    4  O1  UNL     1      -1.564   5.016  12.450  1.00  0.00    -0.247 OA
HETATM    5  N2  UNL     1      -3.122   3.336  12.323  1.00  0.00    -0.305 N 
HETATM    6  C5  UNL     1      -3.779   3.563  13.623  1.00  0.00     0.166 C 
HETATM    7  C6  UNL     1      -4.921   2.617  13.607  1.00  0.00     0.245 C 
HETATM    8  C11 UNL     1      -4.352   1.451  12.819  1.00  0.00     0.091 C 
HETATM    9  C12 UNL     1      -3.765   2.209  11.647  1.00  0.00     0.226 C 
ENDROOT
BRANCH   9  10
HETATM   10  O3  UNL     1      -4.826   2.666  10.867  1.00  0.00    -0.377 OA
ATOM     11  H3  UNL     1      -5.518   2.015  10.849  1.00  0.00     0.212 HD
ENDBRANCH   9  10
BRANCH   1  12
HETATM   12  C3  UNL     1      -0.396   4.460   9.923  1.00  0.00     0.168 A 
HETATM   13  C2  UNL     1       0.805   3.687   9.481  1.00  0.00     0.085 A 
HETATM   14  C1  UNL     1       2.191   4.274   9.693  1.00  0.00     0.018 C 
HETATM   15  C13 UNL     1      -0.102   4.313   8.480  1.00  0.00     0.269 A 
HETATM   16  F1  UNL     1       0.334   5.476   7.848  1.00  0.00    -0.204 F 
HETATM   17  F2  UNL     1      -0.817   3.484   7.669  1.00  0.00    -0.204 F 
ENDBRANCH   1  12
BRANCH   7  18
HETATM   18  N3  UNL     1      -5.488   2.276  14.843  1.00  0.00     0.099 N 
HETATM   19  C7  UNL     1      -4.838   1.150  15.426  1.00  0.00     0.299 C 
HETATM   20  C8  UNL     1      -5.486   0.741  16.749  1.00  0.00     0.198 C 
HETATM   21  O2  UNL     1      -5.657   1.871  17.570  1.00  0.00    -0.388 OA
HETATM   22  C9  UNL     1      -6.537   2.722  16.929  1.00  0.00     0.198 C 
HETATM   23  C10 UNL     1      -5.785   3.338  15.738  1.00  0.00     0.299 C 
ENDBRANCH   7  18
TORSDOF 3
ENDMDL
MODEL 5
REMARK VINA RESULT: -6.879369256      3.892      8.015
REMARK  3 active torsions:
REMARK  status: ('A' for Active; 'I' for Inactive)
REMARK    1  A    between atoms: C3_3  and  N1_4 
REMARK       I    between atoms: N1_4  and  C4_6 
REMARK       I    between atoms: C4_6  and  N2_8 
REMARK    2  A    between atoms: C6_10  and  N3_11 
REMARK    3  A    between atoms: C12_18  and  O3_19 
ROOT
HETATM    1  N1  UNL     1      -5.142   3.104  15.609  1.00  0.00    -0.332 N 
ATOM      2  H1  UNL     1      -5.434   4.076  15.714  1.00  0.00     0.164 HD
HETATM    3  C4  UNL     1      -4.564   2.715  14.389  1.00  0.00     0.320 C 
HETATM    4  O1  UNL     1      -4.193   1.537  14.222  1.00  0.00    -0.247 OA
HETATM    5  N2  UNL     1      -4.397   3.647  13.342  1.00  0.00    -0.305 N 
HETATM    6  C5  UNL     1      -3.808   3.377  12.017  1.00  0.00     0.166 C 
HETATM    7  C6  UNL     1      -4.011   4.648  11.279  1.00  0.00     0.245 C 
HETATM    8  C11 UNL     1      -3.876   5.678  12.386  1.00  0.00     0.091 C 
HETATM    9  C12 UNL     1      -4.791   5.054  13.418  1.00  0.00     0.226 C 
ENDROOT
BRANCH   9  10
HETATM   10  O3  UNL     1      -6.101   5.205  12.966  1.00  0.00    -0.377 OA
ATOM     11  H3  UNL     1      -6.692   5.282  13.706  1.00  0.00     0.212 HD
ENDBRANCH   9  10
BRANCH   1  12
HETATM   12  C3  UNL     1      -5.346   2.204  16.728  1.00  0.00     0.168 A 
HETATM   13  C2  UNL     1      -6.352   2.566  17.775  1.00  0.00     0.085 A 
HETATM   14  C1  UNL     1      -6.042   2.287  19.237  1.00  0.00     0.018 C 
HETATM   15  C13 UNL     1      -6.596   1.421  16.854  1.00  0.00     0.269 A 
HETATM   16  F1  UNL     1      -6.434   0.134  17.363  1.00  0.00    -0.204 F 
HETATM   17  F2  UNL     1      -7.622   1.533  15.965  1.00  0.00    -0.204 F 
ENDBRANCH   1  12
BRANCH   7  18
HETATM   18  N3  UNL     1      -3.202   4.874  10.157  1.00  0.00     0.099 N 
HETATM   19  C7  UNL     1      -2.671   3.659   9.639  1.00  0.00     0.299 C 
HETATM   20  C8  UNL     1      -1.745   3.904   8.447  1.00  0.00     0.198 C 
HETATM   21  O2  UNL     1      -2.368   4.769   7.526  1.00  0.00    -0.388 OA
HETATM   22  C9  UNL     1      -2.554   5.984   8.158  1.00  0.00     0.198 C 
HETATM   23  C10 UNL     1      -3.682   5.792   9.184  1.00  0.00     0.299 C 
ENDBRANCH   7  18
TORSDOF 3
ENDMDL
