MODEL 1
REMARK VINA RESULT: -6.122294952      0.000      0.000
REMARK  4 active torsions:
REMARK  status: ('A' for Active; 'I' for Inactive)
REMARK    1  A    between atoms: C3_3  and  O1_4 
REMARK    2  A    between atoms: C4_6  and  O2_7 
REMARK    3  A    between atoms: N1_13  and  C8_14 
REMARK    4  A    between atoms: C8_14  and  C9_16 
ROOT
HETATM    1  C1  UNL     1      -6.817   2.489  18.079  1.00  0.00     0.015 C 
HETATM    2  C2  UNL     1      -5.606   2.023  17.309  1.00  0.00     0.044 C 
HETATM    3  C3  UNL     1      -5.857   0.801  16.468  1.00  0.00     0.155 C 
HETATM    4  C4  UNL     1      -4.757   0.867  15.443  1.00  0.00     0.183 C 
HETATM    5  C5  UNL     1      -4.296   2.302  15.359  1.00  0.00     0.287 C 
HETATM    6  C6  UNL     1      -5.212   3.061  16.285  1.00  0.00     0.166 C 
HETATM    7  O3  UNL     1      -6.286   3.462  15.515  1.00  0.00    -0.354 OA
HETATM    8  C7  UNL     1      -6.002   3.186  14.186  1.00  0.00     0.443 C 
HETATM    9  N1  UNL     1      -4.635   2.834  14.084  1.00  0.00     0.137 N 
ENDROOT
BRANCH   9  10
HETATM   10  C8  UNL     1      -3.740   3.802  13.563  1.00  0.00     0.311 C 
HETATM   11 BR1  UNL     1      -2.813   3.222  11.980  1.00  0.00    -0.057 Br
BRANCH  10  12
HETATM   12  C9  UNL     1      -4.403   5.122  13.266  1.00  0.00     0.162 C 
HETATM   13 CL1  UNL     1      -3.345   6.457  13.834  1.00  0.00    -0.127 Cl
ENDBRANCH  10  12
ENDBRANCH   9  10
BRANCH   4  14
HETATM   14  O2  UNL     1      -3.742   0.018  15.868  1.00  0.00    -0.391 OA
ATOM     15  H2  UNL     1      -2.943   0.288  15.430  1.00  0.00     0.210 HD
ENDBRANCH   4  14
BRANCH   3  16
HETATM   16  O1  UNL     1      -5.763  -0.319  17.289  1.00  0.00    -0.392 OA
ATOM     17  H1  UNL     1      -5.851  -1.094  16.746  1.00  0.00     0.210 HD
ENDBRANCH   3  16
TORSDOF 4
ENDMDL
MODEL 2
REMARK VINA RESULT: -6.093279662      3.326      4.813
REMARK  4 active torsions:
REMARK  status: ('A' for Active; 'I' for Inactive)
REMARK    1  A    between atoms: C3_3  and  O1_4 
REMARK    2  A    between atoms: C4_6  and  O2_7 
REMARK    3  A    between atoms: N1_13  and  C8_14 
REMARK    4  A    between atoms: C8_14  and  C9_16 
ROOT
HETATM    1  C1  UNL     1      -2.047   4.286  12.437  1.00  0.00     0.015 C 
HETATM    2  C2  UNL     1      -3.430   3.693  12.320  1.00  0.00     0.044 C 
HETATM    3  C3  UNL     1      -3.431   2.219  12.017  1.00  0.00     0.155 C 
HETATM    4  C4  UNL     1      -4.795   1.782  12.479  1.00  0.00     0.183 C 
HETATM    5  C5  UNL     1      -5.282   2.795  13.486  1.00  0.00     0.287 C 
HETATM    6  C6  UNL     1      -4.138   3.762  13.652  1.00  0.00     0.166 C 
HETATM    7  O3  UNL     1      -3.361   3.260  14.679  1.00  0.00    -0.354 OA
HETATM    8  C7  UNL     1      -4.037   2.201  15.264  1.00  0.00     0.443 C 
HETATM    9  N1  UNL     1      -5.363   2.187  14.768  1.00  0.00     0.137 N 
ENDROOT
BRANCH   9  10
HETATM   10  C8  UNL     1      -6.391   2.671  15.616  1.00  0.00     0.311 C 
HETATM   11 BR1  UNL     1      -7.046   1.358  16.862  1.00  0.00    -0.057 Br
BRANCH  10  12
HETATM   12  C9  UNL     1      -5.990   3.899  16.391  1.00  0.00     0.162 C 
HETATM   13 CL1  UNL     1      -6.394   3.662  18.125  1.00  0.00    -0.127 Cl
ENDBRANCH  10  12
ENDBRANCH   9  10
BRANCH   4  14
HETATM   14  O2  UNL     1      -5.615   1.725  11.358  1.00  0.00    -0.391 OA
ATOM     15  H2  UNL     1      -6.092   0.904  11.397  1.00  0.00     0.210 HD
ENDBRANCH   4  14
BRANCH   3  16
HETATM   16  O1  UNL     1      -3.247   2.056  10.646  1.00  0.00    -0.392 OA
ATOM     17  H1  UNL     1      -3.584   1.202  10.401  1.00  0.00     0.210 HD
ENDBRANCH   3  16
TORSDOF 4
ENDMDL
MODEL 3
REMARK VINA RESULT: -5.806526226      1.919      2.021
REMARK  4 active torsions:
REMARK  status: ('A' for Active; 'I' for Inactive)
REMARK    1  A    between atoms: C3_3  and  O1_4 
REMARK    2  A    between atoms: C4_6  and  O2_7 
REMARK    3  A    between atoms: N1_13  and  C8_14 
REMARK    4  A    between atoms: C8_14  and  C9_16 
ROOT
HETATM    1  C1  UNL     1      -6.678   3.789  17.528  1.00  0.00     0.015 C 
HETATM    2  C2  UNL     1      -5.488   3.100  16.908  1.00  0.00     0.044 C 
HETATM    3  C3  UNL     1      -5.719   1.643  16.610  1.00  0.00     0.155 C 
HETATM    4  C4  UNL     1      -4.682   1.346  15.561  1.00  0.00     0.183 C 
HETATM    5  C5  UNL     1      -4.304   2.653  14.909  1.00  0.00     0.287 C 
HETATM    6  C6  UNL     1      -5.206   3.681  15.542  1.00  0.00     0.166 C 
HETATM    7  O3  UNL     1      -6.341   3.729  14.756  1.00  0.00    -0.354 OA
HETATM    8  C7  UNL     1      -6.116   2.976  13.613  1.00  0.00     0.443 C 
HETATM    9  N1  UNL     1      -4.740   2.650  13.556  1.00  0.00     0.137 N 
ENDROOT
BRANCH   9  10
HETATM   10  C8  UNL     1      -3.928   3.372  12.645  1.00  0.00     0.311 C 
HETATM   11 BR1  UNL     1      -2.523   4.377  13.494  1.00  0.00    -0.057 Br
BRANCH  10  12
HETATM   12  C9  UNL     1      -3.310   2.501  11.583  1.00  0.00     0.162 C 
HETATM   13 CL1  UNL     1      -4.471   1.208  11.129  1.00  0.00    -0.127 Cl
ENDBRANCH  10  12
ENDBRANCH   9  10
BRANCH   4  14
HETATM   14  O2  UNL     1      -3.602   0.751  16.202  1.00  0.00    -0.391 OA
ATOM     15  H2  UNL     1      -2.884   1.372  16.184  1.00  0.00     0.210 HD
ENDBRANCH   4  14
BRANCH   3  16
HETATM   16  O1  UNL     1      -5.522   0.922  17.785  1.00  0.00    -0.392 OA
ATOM     17  H1  UNL     1      -4.953   1.430  18.352  1.00  0.00     0.210 HD
ENDBRANCH   3  16
TORSDOF 4
ENDMDL
MODEL 4
REMARK VINA RESULT: -5.622263641      1.117      1.192
REMARK  4 active torsions:
REMARK  status: ('A' for Active; 'I' for Inactive)
REMARK    1  A    between atoms: C3_3  and  O1_4 
REMARK    2  A    between atoms: C4_6  and  O2_7 
REMARK    3  A    between atoms: N1_13  and  C8_14 
REMARK    4  A    between atoms: C8_14  and  C9_16 
ROOT
HETATM    1  C1  UNL     1      -6.940   3.223  17.567  1.00  0.00     0.015 C 
HETATM    2  C2  UNL     1      -5.623   2.772  16.985  1.00  0.00     0.044 C 
HETATM    3  C3  UNL     1      -5.639   1.355  16.477  1.00  0.00     0.155 C 
HETATM    4  C4  UNL     1      -4.488   1.332  15.508  1.00  0.00     0.183 C 
HETATM    5  C5  UNL     1      -4.227   2.754  15.075  1.00  0.00     0.287 C 
HETATM    6  C6  UNL     1      -5.303   3.570  15.743  1.00  0.00     0.166 C 
HETATM    7  O3  UNL     1      -6.365   3.598  14.859  1.00  0.00    -0.354 OA
HETATM    8  C7  UNL     1      -5.950   3.047  13.656  1.00  0.00     0.443 C 
HETATM    9  N1  UNL     1      -4.543   2.894  13.696  1.00  0.00     0.137 N 
ENDROOT
BRANCH   9  10
HETATM   10  C8  UNL     1      -3.756   3.828  12.975  1.00  0.00     0.311 C 
HETATM   11 BR1  UNL     1      -4.690   5.455  12.545  1.00  0.00    -0.057 Br
BRANCH  10  12
HETATM   12  C9  UNL     1      -2.475   4.191  13.678  1.00  0.00     0.162 C 
HETATM   13 CL1  UNL     1      -2.152   5.943  13.453  1.00  0.00    -0.127 Cl
ENDBRANCH  10  12
ENDBRANCH   9  10
BRANCH   4  14
HETATM   14  O2  UNL     1      -3.398   0.781  16.172  1.00  0.00    -0.391 OA
ATOM     15  H2  UNL     1      -3.245   1.304  16.950  1.00  0.00     0.210 HD
ENDBRANCH   4  14
BRANCH   3  16
HETATM   16  O1  UNL     1      -5.450   0.502  17.561  1.00  0.00    -0.392 OA
ATOM     17  H1  UNL     1      -5.652  -0.383  17.281  1.00  0.00     0.210 HD
ENDBRANCH   3  16
TORSDOF 4
ENDMDL
MODEL 5
REMARK VINA RESULT: -5.567738419      3.323      5.027
REMARK  4 active torsions:
REMARK  status: ('A' for Active; 'I' for Inactive)
REMARK    1  A    between atoms: C3_3  and  O1_4 
REMARK    2  A    between atoms: C4_6  and  O2_7 
REMARK    3  A    between atoms: N1_13  and  C8_14 
REMARK    4  A    between atoms: C8_14  and  C9_16 
ROOT
HETATM    1  C1  UNL     1      -1.716   3.803  11.103  1.00  0.00     0.015 C 
HETATM    2  C2  UNL     1      -3.177   3.533  11.363  1.00  0.00     0.044 C 
HETATM    3  C3  UNL     1      -3.525   2.070  11.401  1.00  0.00     0.155 C 
HETATM    4  C4  UNL     1      -4.814   2.051  12.179  1.00  0.00     0.183 C 
HETATM    5  C5  UNL     1      -4.869   3.315  13.002  1.00  0.00     0.287 C 
HETATM    6  C6  UNL     1      -3.554   4.005  12.748  1.00  0.00     0.166 C 
HETATM    7  O3  UNL     1      -2.682   3.532  13.710  1.00  0.00    -0.354 OA
HETATM    8  C7  UNL     1      -3.404   2.782  14.625  1.00  0.00     0.443 C 
HETATM    9  N1  UNL     1      -4.784   2.984  14.382  1.00  0.00     0.137 N 
ENDROOT
BRANCH   9  10
HETATM   10  C8  UNL     1      -5.492   3.838  15.265  1.00  0.00     0.311 C 
HETATM   11 BR1  UNL     1      -6.327   5.334  14.388  1.00  0.00    -0.057 Br
BRANCH  10  12
HETATM   12  C9  UNL     1      -6.541   3.118  16.071  1.00  0.00     0.162 C 
HETATM   13 CL1  UNL     1      -6.368   3.566  17.802  1.00  0.00    -0.127 Cl
ENDBRANCH  10  12
ENDBRANCH   9  10
BRANCH   4  14
HETATM   14  O2  UNL     1      -5.853   1.983  11.258  1.00  0.00    -0.391 OA
ATOM     15  H2  UNL     1      -6.619   2.369  11.664  1.00  0.00     0.210 HD
ENDBRANCH   4  14
BRANCH   3  16
HETATM   16  O1  UNL     1      -3.678   1.624  10.091  1.00  0.00    -0.392 OA
ATOM     17  H1  UNL     1      -2.914   1.108   9.862  1.00  0.00     0.210 HD
ENDBRANCH   3  16
TORSDOF 4
ENDMDL
