MODEL 1
REMARK VINA RESULT: -7.238185406      0.000      0.000
REMARK  6 active torsions:
REMARK  status: ('A' for Active; 'I' for Inactive)
REMARK    1  A    between atoms: C1_2  and  C2_4 
REMARK    2  A    between atoms: N1_8  and  C5_9 
REMARK    3  A    between atoms: C5_9  and  O3_10 
REMARK    4  A    between atoms: C5_9  and  C6_12 
REMARK    5  A    between atoms: C6_12  and  O4_13 
REMARK    6  A    between atoms: C11_21  and  O5_22 
ROOT
HETATM    1  C6  UNL     1      -5.336   3.231  14.378  1.00  0.00     0.148 C 
HETATM    2  C7  UNL     1      -5.992   3.786  15.638  1.00  0.00     0.055 C 
HETATM    3  C8  UNL     1      -6.605   2.704  16.481  1.00  0.00     0.082 C 
HETATM    4  C9  UNL     1      -5.621   1.611  16.826  1.00  0.00     0.246 C 
HETATM    5  F1  UNL     1      -5.463   1.482  18.205  1.00  0.00    -0.206 F 
HETATM    6  F2  UNL     1      -6.032   0.372  16.373  1.00  0.00    -0.206 F 
HETATM    7  C10 UNL     1      -4.262   1.888  16.205  1.00  0.00     0.114 C 
HETATM    8  C11 UNL     1      -4.457   2.033  14.726  1.00  0.00     0.166 C 
ENDROOT
BRANCH   1   9
HETATM    9  C5  UNL     1      -4.420   4.284  13.919  1.00  0.00     0.153 C 
BRANCH   9  10
HETATM   10  N1  UNL     1      -3.531   4.287  12.825  1.00  0.00    -0.338 N 
HETATM   11  C2  UNL     1      -3.782   4.038  11.458  1.00  0.00     0.197 C 
HETATM   12  C3  UNL     1      -3.182   5.146  10.600  1.00  0.00     0.112 C 
HETATM   13  S1  UNL     1      -1.769   5.648  11.611  1.00  0.00    -0.147 SA
HETATM   14  C4  UNL     1      -2.090   4.564  13.029  1.00  0.00     0.200 C 
BRANCH  11  15
HETATM   15  C1  UNL     1      -3.294   2.733  10.954  1.00  0.00     0.197 C 
HETATM   16  O1  UNL     1      -3.212   2.528   9.728  1.00  0.00    -0.646 OA
HETATM   17  O2  UNL     1      -2.936   1.756  11.844  1.00  0.00    -0.646 OA
ENDBRANCH  11  15
ENDBRANCH   9  10
BRANCH   9  18
HETATM   18  O3  UNL     1      -4.491   5.343  14.682  1.00  0.00    -0.347 OA
ATOM     19  H3  UNL     1      -5.341   5.632  14.992  1.00  0.00     0.219 HD
ENDBRANCH   9  18
ENDBRANCH   1   9
BRANCH   1  20
HETATM   20  O4  UNL     1      -6.299   2.797  13.530  1.00  0.00    -0.379 OA
ATOM     21  H4  UNL     1      -7.180   2.678  13.867  1.00  0.00     0.211 HD
ENDBRANCH   1  20
BRANCH   8  22
HETATM   22  O5  UNL     1      -5.016   0.845  14.250  1.00  0.00    -0.392 OA
ATOM     23  H5  UNL     1      -4.376   0.336  13.767  1.00  0.00     0.210 HD
ENDBRANCH   8  22
TORSDOF 6
ENDMDL
MODEL 2
REMARK VINA RESULT: -7.030447072      1.263      1.590
REMARK  6 active torsions:
REMARK  status: ('A' for Active; 'I' for Inactive)
REMARK    1  A    between atoms: C1_2  and  C2_4 
REMARK    2  A    between atoms: N1_8  and  C5_9 
REMARK    3  A    between atoms: C5_9  and  O3_10 
REMARK    4  A    between atoms: C5_9  and  C6_12 
REMARK    5  A    between atoms: C6_12  and  O4_13 
REMARK    6  A    between atoms: C11_21  and  O5_22 
ROOT
HETATM    1  C6  UNL     1      -5.360   4.799  14.103  1.00  0.00     0.148 C 
HETATM    2  C7  UNL     1      -5.410   5.364  15.519  1.00  0.00     0.055 C 
HETATM    3  C8  UNL     1      -6.344   4.589  16.405  1.00  0.00     0.082 C 
HETATM    4  C9  UNL     1      -6.030   3.112  16.428  1.00  0.00     0.246 C 
HETATM    5  F1  UNL     1      -5.733   2.672  17.717  1.00  0.00    -0.206 F 
HETATM    6  F2  UNL     1      -7.094   2.341  15.999  1.00  0.00    -0.206 F 
HETATM    7  C10 UNL     1      -4.852   2.793  15.522  1.00  0.00     0.114 C 
HETATM    8  C11 UNL     1      -5.188   3.283  14.146  1.00  0.00     0.166 C 
ENDROOT
BRANCH   1   9
HETATM    9  C5  UNL     1      -4.123   5.330  13.515  1.00  0.00     0.153 C 
BRANCH   9  10
HETATM   10  N1  UNL     1      -3.340   4.821  12.459  1.00  0.00    -0.338 N 
HETATM   11  C2  UNL     1      -3.642   4.711  11.084  1.00  0.00     0.197 C 
HETATM   12  C3  UNL     1      -2.510   5.293  10.246  1.00  0.00     0.112 C 
HETATM   13  S1  UNL     1      -1.084   4.977  11.312  1.00  0.00    -0.147 SA
HETATM   14  C4  UNL     1      -1.986   4.278  12.721  1.00  0.00     0.200 C 
BRANCH  11  15
HETATM   15  C1  UNL     1      -3.924   3.337  10.607  1.00  0.00     0.197 C 
HETATM   16  O1  UNL     1      -4.900   2.707  11.058  1.00  0.00    -0.646 OA
HETATM   17  O2  UNL     1      -3.106   2.765   9.669  1.00  0.00    -0.646 OA
ENDBRANCH  11  15
ENDBRANCH   9  10
BRANCH   9  18
HETATM   18  O3  UNL     1      -3.751   6.435  14.106  1.00  0.00    -0.347 OA
ATOM     19  H3  UNL     1      -3.176   6.383  14.860  1.00  0.00     0.219 HD
ENDBRANCH   9  18
ENDBRANCH   1   9
BRANCH   1  20
HETATM   20  O4  UNL     1      -6.535   5.058  13.480  1.00  0.00    -0.379 OA
ATOM     21  H4  UNL     1      -7.332   5.059  13.997  1.00  0.00     0.211 HD
ENDBRANCH   1  20
BRANCH   8  22
HETATM   22  O5  UNL     1      -6.353   2.634  13.734  1.00  0.00    -0.392 OA
ATOM     23  H5  UNL     1      -6.900   3.211  13.215  1.00  0.00     0.210 HD
ENDBRANCH   8  22
TORSDOF 6
ENDMDL
MODEL 3
REMARK VINA RESULT: -6.907753677      3.674      5.904
REMARK  6 active torsions:
REMARK  status: ('A' for Active; 'I' for Inactive)
REMARK    1  A    between atoms: C1_2  and  C2_4 
REMARK    2  A    between atoms: N1_8  and  C5_9 
REMARK    3  A    between atoms: C5_9  and  O3_10 
REMARK    4  A    between atoms: C5_9  and  C6_12 
REMARK    5  A    between atoms: C6_12  and  O4_13 
REMARK    6  A    between atoms: C11_21  and  O5_22 
ROOT
HETATM    1  C6  UNL     1      -2.754   3.136  12.098  1.00  0.00     0.148 C 
HETATM    2  C7  UNL     1      -1.542   4.057  11.992  1.00  0.00     0.055 C 
HETATM    3  C8  UNL     1      -0.951   4.057  10.611  1.00  0.00     0.082 C 
HETATM    4  C9  UNL     1      -1.969   4.386   9.545  1.00  0.00     0.246 C 
HETATM    5  F1  UNL     1      -1.608   5.525   8.827  1.00  0.00    -0.206 F 
HETATM    6  F2  UNL     1      -2.099   3.375   8.612  1.00  0.00    -0.206 F 
HETATM    7  C10 UNL     1      -3.342   4.611  10.156  1.00  0.00     0.114 C 
HETATM    8  C11 UNL     1      -3.705   3.381  10.930  1.00  0.00     0.166 C 
ENDROOT
BRANCH   1   9
HETATM    9  C5  UNL     1      -3.472   3.575  13.302  1.00  0.00     0.153 C 
BRANCH   9  10
HETATM   10  N1  UNL     1      -4.365   2.859  14.126  1.00  0.00    -0.338 N 
HETATM   11  C2  UNL     1      -4.112   1.797  15.022  1.00  0.00     0.197 C 
HETATM   12  C3  UNL     1      -4.745   2.086  16.377  1.00  0.00     0.112 C 
HETATM   13  S1  UNL     1      -6.167   3.093  15.894  1.00  0.00    -0.147 SA
HETATM   14  C4  UNL     1      -5.812   3.175  14.118  1.00  0.00     0.200 C 
BRANCH  11  15
HETATM   15  C1  UNL     1      -4.565   0.463  14.563  1.00  0.00     0.197 C 
HETATM   16  O1  UNL     1      -4.960  -0.382  15.390  1.00  0.00    -0.646 OA
HETATM   17  O2  UNL     1      -4.546   0.165  13.226  1.00  0.00    -0.646 OA
ENDBRANCH  11  15
ENDBRANCH   9  10
BRANCH   9  18
HETATM   18  O3  UNL     1      -3.198   4.819  13.593  1.00  0.00    -0.347 OA
ATOM     19  H3  UNL     1      -2.802   5.371  12.930  1.00  0.00     0.219 HD
ENDBRANCH   9  18
ENDBRANCH   1   9
BRANCH   1  20
HETATM   20  O4  UNL     1      -2.341   1.848  12.025  1.00  0.00    -0.379 OA
ATOM     21  H4  UNL     1      -1.542   1.601  12.477  1.00  0.00     0.211 HD
ENDBRANCH   1  20
BRANCH   8  22
HETATM   22  O5  UNL     1      -3.699   2.301  10.044  1.00  0.00    -0.392 OA
ATOM     23  H5  UNL     1      -4.581   2.082   9.767  1.00  0.00     0.210 HD
ENDBRANCH   8  22
TORSDOF 6
ENDMDL
MODEL 4
REMARK VINA RESULT: -6.739443746      2.164      2.686
REMARK  6 active torsions:
REMARK  status: ('A' for Active; 'I' for Inactive)
REMARK    1  A    between atoms: C1_2  and  C2_4 
REMARK    2  A    between atoms: N1_8  and  C5_9 
REMARK    3  A    between atoms: C5_9  and  O3_10 
REMARK    4  A    between atoms: C5_9  and  C6_12 
REMARK    5  A    between atoms: C6_12  and  O4_13 
REMARK    6  A    between atoms: C11_21  and  O5_22 
ROOT
HETATM    1  C6  UNL     1      -3.749   4.309  12.876  1.00  0.00     0.148 C 
HETATM    2  C7  UNL     1      -3.952   5.333  13.990  1.00  0.00     0.055 C 
HETATM    3  C8  UNL     1      -5.292   5.190  14.652  1.00  0.00     0.082 C 
HETATM    4  C9  UNL     1      -5.542   3.790  15.160  1.00  0.00     0.246 C 
HETATM    5  F1  UNL     1      -5.759   3.776  16.537  1.00  0.00    -0.206 F 
HETATM    6  F2  UNL     1      -6.664   3.217  14.593  1.00  0.00    -0.206 F 
HETATM    7  C10 UNL     1      -4.366   2.880  14.844  1.00  0.00     0.114 C 
HETATM    8  C11 UNL     1      -4.145   2.918  13.363  1.00  0.00     0.166 C 
ENDROOT
BRANCH   1   9
HETATM    9  C5  UNL     1      -2.298   4.261  12.651  1.00  0.00     0.153 C 
BRANCH   9  10
HETATM   10  N1  UNL     1      -1.581   4.045  11.456  1.00  0.00    -0.338 N 
HETATM   11  C2  UNL     1      -1.782   4.595  10.172  1.00  0.00     0.197 C 
HETATM   12  C3  UNL     1      -0.473   5.148   9.622  1.00  0.00     0.112 C 
HETATM   13  S1  UNL     1       0.731   4.056  10.415  1.00  0.00    -0.147 SA
HETATM   14  C4  UNL     1      -0.436   3.105  11.427  1.00  0.00     0.200 C 
BRANCH  11  15
HETATM   15  C1  UNL     1      -2.361   3.668   9.171  1.00  0.00     0.197 C 
HETATM   16  O1  UNL     1      -2.023   3.749   7.975  1.00  0.00    -0.646 OA
HETATM   17  O2  UNL     1      -3.269   2.723   9.570  1.00  0.00    -0.646 OA
ENDBRANCH  11  15
ENDBRANCH   9  10
BRANCH   9  18
HETATM   18  O3  UNL     1      -1.637   4.453  13.762  1.00  0.00    -0.347 OA
ATOM     19  H3  UNL     1      -0.921   3.869  13.980  1.00  0.00     0.219 HD
ENDBRANCH   9  18
ENDBRANCH   1   9
BRANCH   1  20
HETATM   20  O4  UNL     1      -4.555   4.622  11.833  1.00  0.00    -0.379 OA
ATOM     21  H4  UNL     1      -5.297   5.194  11.990  1.00  0.00     0.211 HD
ENDBRANCH   1  20
BRANCH   8  22
HETATM   22  O5  UNL     1      -5.320   2.485  12.744  1.00  0.00    -0.392 OA
ATOM     23  H5  UNL     1      -6.086   2.775  13.226  1.00  0.00     0.210 HD
ENDBRANCH   8  22
TORSDOF 6
ENDMDL
MODEL 5
REMARK VINA RESULT: -6.476694754      1.481      1.809
REMARK  6 active torsions:
REMARK  status: ('A' for Active; 'I' for Inactive)
REMARK    1  A    between atoms: C1_2  and  C2_4 
REMARK    2  A    between atoms: N1_8  and  C5_9 
REMARK    3  A    between atoms: C5_9  and  O3_10 
REMARK    4  A    between atoms: C5_9  and  C6_12 
REMARK    5  A    between atoms: C6_12  and  O4_13 
REMARK    6  A    between atoms: C11_21  and  O5_22 
ROOT
HETATM    1  C6  UNL     1      -5.302   5.112  14.176  1.00  0.00     0.148 C 
HETATM    2  C7  UNL     1      -5.469   5.536  15.633  1.00  0.00     0.055 C 
HETATM    3  C8  UNL     1      -6.388   4.619  16.388  1.00  0.00     0.082 C 
HETATM    4  C9  UNL     1      -5.966   3.172  16.297  1.00  0.00     0.246 C 
HETATM    5  F1  UNL     1      -5.706   2.634  17.557  1.00  0.00    -0.206 F 
HETATM    6  F2  UNL     1      -6.945   2.372  15.739  1.00  0.00    -0.206 F 
HETATM    7  C10 UNL     1      -4.721   3.022  15.438  1.00  0.00     0.114 C 
HETATM    8  C11 UNL     1      -5.020   3.614  14.094  1.00  0.00     0.166 C 
ENDROOT
BRANCH   1   9
HETATM    9  C5  UNL     1      -4.079   5.780  13.713  1.00  0.00     0.153 C 
BRANCH   9  10
HETATM   10  N1  UNL     1      -3.316   5.551  12.550  1.00  0.00    -0.338 N 
HETATM   11  C2  UNL     1      -3.666   5.725  11.193  1.00  0.00     0.197 C 
HETATM   12  C3  UNL     1      -2.594   6.531  10.470  1.00  0.00     0.112 C 
HETATM   13  S1  UNL     1      -1.115   6.065  11.401  1.00  0.00    -0.147 SA
HETATM   14  C4  UNL     1      -1.931   5.034  12.649  1.00  0.00     0.200 C 
BRANCH  11  15
HETATM   15  C1  UNL     1      -3.907   4.474  10.438  1.00  0.00     0.197 C 
HETATM   16  O1  UNL     1      -3.328   4.277   9.352  1.00  0.00    -0.646 OA
HETATM   17  O2  UNL     1      -4.770   3.536  10.940  1.00  0.00    -0.646 OA
ENDBRANCH  11  15
ENDBRANCH   9  10
BRANCH   9  18
HETATM   18  O3  UNL     1      -3.699   6.709  14.550  1.00  0.00    -0.347 OA
ATOM     19  H3  UNL     1      -4.357   7.242  14.979  1.00  0.00     0.219 HD
ENDBRANCH   9  18
ENDBRANCH   1   9
BRANCH   1  20
HETATM   20  O4  UNL     1      -6.459   5.345  13.511  1.00  0.00    -0.379 OA
ATOM     21  H4  UNL     1      -6.648   4.830  12.735  1.00  0.00     0.211 HD
ENDBRANCH   1  20
BRANCH   8  22
HETATM   22  O5  UNL     1      -6.110   2.926  13.557  1.00  0.00    -0.392 OA
ATOM     23  H5  UNL     1      -6.373   2.209  14.121  1.00  0.00     0.210 HD
ENDBRANCH   8  22
TORSDOF 6
ENDMDL
