MODEL 1
REMARK VINA RESULT: -6.722925034      0.000      0.000
REMARK  3 active torsions:
REMARK  status: ('A' for Active; 'I' for Inactive)
REMARK    1  A    between atoms: C8_11  and  C9_12 
REMARK       I    between atoms: C9_12  and  N2_14 
REMARK    2  A    between atoms: C11_16  and  O2_17 
REMARK    3  A    between atoms: C11_16  and  C12_19 
ROOT
HETATM    1  C1  UNL     1      -2.161   3.572   9.332  1.00  0.00     0.039 C 
HETATM    2  C2  UNL     1      -3.413   3.368  10.158  1.00  0.00     0.118 C 
HETATM    3  C3  UNL     1      -3.076   3.727  11.568  1.00  0.00     0.042 C 
HETATM    4  C4  UNL     1      -4.241   3.469  12.540  1.00  0.00    -0.021 C 
HETATM    5  C5  UNL     1      -5.208   4.616  12.324  1.00  0.00     0.038 C 
HETATM    6  C6  UNL     1      -5.127   5.689  13.346  1.00  0.00     0.233 C 
HETATM    7  N1  UNL     1      -3.771   5.846  13.767  1.00  0.00    -0.074 N 
ATOM      8  H11 UNL     1      -3.621   6.724  14.265  1.00  0.00     0.277 HD
ATOM      9  H12 UNL     1      -3.141   6.014  12.982  1.00  0.00     0.277 HD
HETATM   10  C7  UNL     1      -3.377   4.713  14.541  1.00  0.00     0.247 C 
HETATM   11  C8  UNL     1      -3.692   3.382  13.900  1.00  0.00     0.112 C 
HETATM   12  C13 UNL     1      -4.921   2.228  12.042  1.00  0.00     0.036 C 
HETATM   13  C14 UNL     1      -3.918   1.412  11.255  1.00  0.00     0.169 C 
HETATM   14  O3  UNL     1      -3.773   2.028  10.016  1.00  0.00    -0.386 OA
ENDROOT
BRANCH  11  15
HETATM   15  C9  UNL     1      -4.410   2.578  14.898  1.00  0.00     0.229 C 
HETATM   16  O1  UNL     1      -4.067   1.349  14.998  1.00  0.00    -0.273 OA
HETATM   17  N2  UNL     1      -5.441   3.037  15.754  1.00  0.00    -0.309 N 
HETATM   18  C10 UNL     1      -6.385   3.994  16.346  1.00  0.00     0.196 A 
HETATM   19  C11 UNL     1      -6.430   2.667  16.837  1.00  0.00     0.213 A 
BRANCH  19  20
HETATM   20  O2  UNL     1      -7.342   1.693  16.365  1.00  0.00    -0.365 OA
ATOM     21  H2  UNL     1      -7.695   1.189  17.088  1.00  0.00     0.212 HD
ENDBRANCH  19  20
BRANCH  19  22
HETATM   22  C12 UNL     1      -5.702   2.187  18.067  1.00  0.00     0.410 C 
HETATM   23  F1  UNL     1      -6.290   2.553  19.248  1.00  0.00    -0.209 F 
HETATM   24  F2  UNL     1      -5.601   0.810  18.019  1.00  0.00    -0.209 F 
ENDBRANCH  19  22
ENDBRANCH  11  15
TORSDOF 3
ENDMDL
MODEL 2
REMARK VINA RESULT: -6.676298791      3.583      5.036
REMARK  3 active torsions:
REMARK  status: ('A' for Active; 'I' for Inactive)
REMARK    1  A    between atoms: C8_11  and  C9_12 
REMARK       I    between atoms: C9_12  and  N2_14 
REMARK    2  A    between atoms: C11_16  and  O2_17 
REMARK    3  A    between atoms: C11_16  and  C12_19 
ROOT
HETATM    1  C1  UNL     1      -1.326   8.954  10.005  1.00  0.00     0.039 C 
HETATM    2  C2  UNL     1      -2.340   7.998  10.595  1.00  0.00     0.118 C 
HETATM    3  C3  UNL     1      -1.675   6.666  10.714  1.00  0.00     0.042 C 
HETATM    4  C4  UNL     1      -2.632   5.567  11.212  1.00  0.00    -0.021 C 
HETATM    5  C5  UNL     1      -2.768   5.798  12.703  1.00  0.00     0.038 C 
HETATM    6  C6  UNL     1      -1.944   4.892  13.543  1.00  0.00     0.233 C 
HETATM    7  N1  UNL     1      -0.709   4.620  12.879  1.00  0.00    -0.074 N 
ATOM      8  H11 UNL     1      -0.012   4.223  13.509  1.00  0.00     0.277 HD
ATOM      9  H12 UNL     1      -0.209   5.473  12.628  1.00  0.00     0.277 HD
HETATM   10  C7  UNL     1      -0.950   3.784  11.747  1.00  0.00     0.247 C 
HETATM   11  C8  UNL     1      -2.062   4.263  10.845  1.00  0.00     0.112 C 
HETATM   12  C13 UNL     1      -3.965   5.880  10.600  1.00  0.00     0.036 C 
HETATM   13  C14 UNL     1      -3.739   6.679   9.334  1.00  0.00     0.169 C 
HETATM   14  O3  UNL     1      -3.428   7.978   9.722  1.00  0.00    -0.386 OA
ENDROOT
BRANCH  11  15
HETATM   15  C9  UNL     1      -2.975   3.131  10.639  1.00  0.00     0.229 C 
HETATM   16  O1  UNL     1      -3.084   2.693   9.441  1.00  0.00    -0.273 OA
HETATM   17  N2  UNL     1      -3.740   2.484  11.640  1.00  0.00    -0.309 N 
HETATM   18  C10 UNL     1      -4.259   2.217  12.986  1.00  0.00     0.196 A 
HETATM   19  C11 UNL     1      -4.749   1.398  11.941  1.00  0.00     0.213 A 
BRANCH  19  20
HETATM   20  O2  UNL     1      -5.965   1.647  11.261  1.00  0.00    -0.365 OA
ATOM     21  H2  UNL     1      -6.151   0.951  10.643  1.00  0.00     0.212 HD
ENDBRANCH  19  20
BRANCH  19  22
HETATM   22  C12 UNL     1      -4.186   0.046  11.580  1.00  0.00     0.410 C 
HETATM   23  F1  UNL     1      -4.321  -0.900  12.559  1.00  0.00    -0.209 F 
HETATM   24  F2  UNL     1      -4.802  -0.402  10.427  1.00  0.00    -0.209 F 
ENDBRANCH  19  22
ENDBRANCH  11  15
TORSDOF 3
ENDMDL
MODEL 3
REMARK VINA RESULT: -6.356894193      3.421      4.863
REMARK  3 active torsions:
REMARK  status: ('A' for Active; 'I' for Inactive)
REMARK    1  A    between atoms: C8_11  and  C9_12 
REMARK       I    between atoms: C9_12  and  N2_14 
REMARK    2  A    between atoms: C11_16  and  O2_17 
REMARK    3  A    between atoms: C11_16  and  C12_19 
ROOT
HETATM    1  C1  UNL     1       0.462   8.228  12.632  1.00  0.00     0.039 C 
HETATM    2  C2  UNL     1      -0.469   7.393  11.780  1.00  0.00     0.118 C 
HETATM    3  C3  UNL     1      -1.114   6.391  12.680  1.00  0.00     0.042 C 
HETATM    4  C4  UNL     1      -2.019   5.405  11.919  1.00  0.00    -0.021 C 
HETATM    5  C5  UNL     1      -3.290   6.174  11.619  1.00  0.00     0.038 C 
HETATM    6  C6  UNL     1      -4.420   5.872  12.533  1.00  0.00     0.233 C 
HETATM    7  N1  UNL     1      -3.918   5.627  13.848  1.00  0.00    -0.074 N 
ATOM      8  H11 UNL     1      -4.652   5.669  14.555  1.00  0.00     0.277 HD
ATOM      9  H12 UNL     1      -3.341   6.395  14.190  1.00  0.00     0.277 HD
HETATM   10  C7  UNL     1      -3.223   4.380  13.868  1.00  0.00     0.247 C 
HETATM   11  C8  UNL     1      -2.209   4.216  12.760  1.00  0.00     0.112 C 
HETATM   12  C13 UNL     1      -1.339   5.160  10.605  1.00  0.00     0.036 C 
HETATM   13  C14 UNL     1       0.143   5.419  10.772  1.00  0.00     0.169 C 
HETATM   14  O3  UNL     1       0.316   6.799  10.791  1.00  0.00    -0.386 OA
ENDROOT
BRANCH  11  15
HETATM   15  C9  UNL     1      -2.483   2.929  12.106  1.00  0.00     0.229 C 
HETATM   16  O1  UNL     1      -1.470   2.282  11.667  1.00  0.00    -0.273 OA
HETATM   17  N2  UNL     1      -3.759   2.344  11.920  1.00  0.00    -0.309 N 
HETATM   18  C10 UNL     1      -5.220   2.227  11.999  1.00  0.00     0.196 A 
HETATM   19  C11 UNL     1      -4.531   1.172  11.354  1.00  0.00     0.213 A 
BRANCH  19  20
HETATM   20  O2  UNL     1      -4.362   1.098   9.951  1.00  0.00    -0.365 OA
ATOM     21  H2  UNL     1      -4.252   0.195   9.676  1.00  0.00     0.212 HD
ENDBRANCH  19  20
BRANCH  19  22
HETATM   22  C12 UNL     1      -4.107  -0.108  12.027  1.00  0.00     0.410 C 
HETATM   23  F1  UNL     1      -4.581  -0.258  13.302  1.00  0.00    -0.209 F 
HETATM   24  F2  UNL     1      -4.524  -1.178  11.259  1.00  0.00    -0.209 F 
ENDBRANCH  19  22
ENDBRANCH  11  15
TORSDOF 3
ENDMDL
MODEL 4
REMARK VINA RESULT: -6.303383998      1.967      3.042
REMARK  3 active torsions:
REMARK  status: ('A' for Active; 'I' for Inactive)
REMARK    1  A    between atoms: C8_11  and  C9_12 
REMARK       I    between atoms: C9_12  and  N2_14 
REMARK    2  A    between atoms: C11_16  and  O2_17 
REMARK    3  A    between atoms: C11_16  and  C12_19 
ROOT
HETATM    1  C1  UNL     1      -4.217   7.266  11.216  1.00  0.00     0.039 C 
HETATM    2  C2  UNL     1      -3.605   6.253  12.159  1.00  0.00     0.118 C 
HETATM    3  C3  UNL     1      -4.355   4.974  11.983  1.00  0.00     0.042 C 
HETATM    4  C4  UNL     1      -3.897   3.877  12.962  1.00  0.00    -0.021 C 
HETATM    5  C5  UNL     1      -2.588   3.359  12.401  1.00  0.00     0.038 C 
HETATM    6  C6  UNL     1      -2.701   2.079  11.658  1.00  0.00     0.233 C 
HETATM    7  N1  UNL     1      -3.947   2.041  10.961  1.00  0.00    -0.074 N 
ATOM      8  H11 UNL     1      -3.966   1.317  10.243  1.00  0.00     0.277 HD
ATOM      9  H12 UNL     1      -4.074   2.852  10.354  1.00  0.00     0.277 HD
HETATM   10  C7  UNL     1      -5.014   1.898  11.898  1.00  0.00     0.247 C 
HETATM   11  C8  UNL     1      -4.963   2.870  13.053  1.00  0.00     0.112 C 
HETATM   12  C13 UNL     1      -3.571   4.585  14.243  1.00  0.00     0.036 C 
HETATM   13  C14 UNL     1      -4.363   5.874  14.297  1.00  0.00     0.169 C 
HETATM   14  O3  UNL     1      -3.732   6.776  13.446  1.00  0.00    -0.386 OA
ENDROOT
BRANCH  11  15
HETATM   15  C9  UNL     1      -5.084   2.086  14.288  1.00  0.00     0.229 C 
HETATM   16  O1  UNL     1      -4.228   1.150  14.461  1.00  0.00    -0.273 OA
HETATM   17  N2  UNL     1      -6.056   2.272  15.302  1.00  0.00    -0.309 N 
HETATM   18  C10 UNL     1      -7.211   2.877  15.976  1.00  0.00     0.196 A 
HETATM   19  C11 UNL     1      -6.593   1.785  16.630  1.00  0.00     0.213 A 
BRANCH  19  20
HETATM   20  O2  UNL     1      -7.052   0.451  16.521  1.00  0.00    -0.365 OA
ATOM     21  H2  UNL     1      -7.893   0.423  16.080  1.00  0.00     0.212 HD
ENDBRANCH  19  20
BRANCH  19  22
HETATM   22  C12 UNL     1      -5.538   1.917  17.700  1.00  0.00     0.410 C 
HETATM   23  F1  UNL     1      -5.862   2.785  18.707  1.00  0.00    -0.209 F 
HETATM   24  F2  UNL     1      -5.289   0.669  18.239  1.00  0.00    -0.209 F 
ENDBRANCH  19  22
ENDBRANCH  11  15
TORSDOF 3
ENDMDL
MODEL 5
REMARK VINA RESULT: -6.298594652      2.049      2.980
REMARK  3 active torsions:
REMARK  status: ('A' for Active; 'I' for Inactive)
REMARK    1  A    between atoms: C8_11  and  C9_12 
REMARK       I    between atoms: C9_12  and  N2_14 
REMARK    2  A    between atoms: C11_16  and  O2_17 
REMARK    3  A    between atoms: C11_16  and  C12_19 
ROOT
HETATM    1  C1  UNL     1      -5.901   6.775  10.414  1.00  0.00     0.039 C 
HETATM    2  C2  UNL     1      -5.377   6.589  11.822  1.00  0.00     0.118 C 
HETATM    3  C3  UNL     1      -4.838   5.199  11.915  1.00  0.00     0.042 C 
HETATM    4  C4  UNL     1      -4.360   4.842  13.334  1.00  0.00    -0.021 C 
HETATM    5  C5  UNL     1      -3.020   5.531  13.493  1.00  0.00     0.038 C 
HETATM    6  C6  UNL     1      -1.846   4.640  13.313  1.00  0.00     0.233 C 
HETATM    7  N1  UNL     1      -2.137   3.664  12.310  1.00  0.00    -0.074 N 
ATOM      8  H11 UNL     1      -1.296   3.200  11.969  1.00  0.00     0.277 HD
ATOM      9  H12 UNL     1      -2.436   4.090  11.433  1.00  0.00     0.277 HD
HETATM   10  C7  UNL     1      -3.099   2.736  12.814  1.00  0.00     0.247 C 
HETATM   11  C8  UNL     1      -4.311   3.378  13.446  1.00  0.00     0.112 C 
HETATM   12  C13 UNL     1      -5.313   5.525  14.270  1.00  0.00     0.036 C 
HETATM   13  C14 UNL     1      -6.629   5.733  13.551  1.00  0.00     0.169 C 
HETATM   14  O3  UNL     1      -6.454   6.806  12.682  1.00  0.00    -0.386 OA
ENDROOT
BRANCH  11  15
HETATM   15  C9  UNL     1      -4.486   2.768  14.770  1.00  0.00     0.229 C 
HETATM   16  O1  UNL     1      -3.420   2.410  15.382  1.00  0.00    -0.273 OA
HETATM   17  N2  UNL     1      -5.720   2.543  15.428  1.00  0.00    -0.309 N 
HETATM   18  C10 UNL     1      -7.176   2.553  15.616  1.00  0.00     0.196 A 
HETATM   19  C11 UNL     1      -6.403   1.990  16.660  1.00  0.00     0.213 A 
BRANCH  19  20
HETATM   20  O2  UNL     1      -6.155   0.603  16.784  1.00  0.00    -0.365 OA
ATOM     21  H2  UNL     1      -6.320   0.313  17.673  1.00  0.00     0.212 HD
ENDBRANCH  19  20
BRANCH  19  22
HETATM   22  C12 UNL     1      -5.952   2.740  17.888  1.00  0.00     0.410 C 
HETATM   23  F1  UNL     1      -6.462   4.006  17.994  1.00  0.00    -0.209 F 
HETATM   24  F2  UNL     1      -6.302   2.014  19.010  1.00  0.00    -0.209 F 
ENDBRANCH  19  22
ENDBRANCH  11  15
TORSDOF 3
ENDMDL
