MODEL 1
REMARK VINA RESULT: -5.571558241      0.000      0.000
REMARK  4 active torsions:
REMARK  status: ('A' for Active; 'I' for Inactive)
REMARK    1  A    between atoms: O1_1  and  C1_3 
REMARK    2  A    between atoms: C1_3  and  C2_4 
REMARK    3  A    between atoms: C4_7  and  C5_8 
REMARK    4  A    between atoms: C7_12  and  O3_13 
ROOT
HETATM    1  C2  UNL     1      -2.788   2.811  11.392  1.00  0.00     0.172 C 
HETATM    2  C3  UNL     1      -3.008   3.933  12.417  1.00  0.00     0.203 C 
HETATM    3  O2  UNL     1      -3.315   3.268  13.593  1.00  0.00    -0.374 OA
HETATM    4  C4  UNL     1      -4.538   2.675  13.456  1.00  0.00     0.201 C 
HETATM    5  C7  UNL     1      -4.799   1.980  12.181  1.00  0.00     0.290 C 
HETATM    6  O4  UNL     1      -4.012   2.284  11.120  1.00  0.00    -0.349 OA
ENDROOT
BRANCH   4   7
HETATM    7  C5  UNL     1      -4.701   1.724  14.620  1.00  0.00     0.036 C 
HETATM    8  C6  UNL     1      -5.349   2.109  15.700  1.00  0.00     0.056 C 
HETATM    9 BR1  UNL     1      -5.550   0.910  17.154  1.00  0.00    -0.043 Br
HETATM   10 BR2  UNL     1      -6.093   3.879  15.818  1.00  0.00    -0.043 Br
ENDBRANCH   4   7
BRANCH   5  11
HETATM   11  O3  UNL     1      -4.771   0.575  12.345  1.00  0.00    -0.368 OA
ATOM     12  H3  UNL     1      -4.448   0.142  11.564  1.00  0.00     0.212 HD
ENDBRANCH   5  11
BRANCH   1  13
HETATM   13  C1  UNL     1      -2.151   3.450  10.193  1.00  0.00     0.198 C 
BRANCH  13  14
HETATM   14  O1  UNL     1      -2.923   3.318   9.040  1.00  0.00    -0.398 OA
ATOM     15  H1  UNL     1      -3.473   4.076   8.880  1.00  0.00     0.209 HD
ENDBRANCH  13  14
ENDBRANCH   1  13
TORSDOF 4
ENDMDL
MODEL 2
REMARK VINA RESULT: -5.548568376      3.492      5.514
REMARK  4 active torsions:
REMARK  status: ('A' for Active; 'I' for Inactive)
REMARK    1  A    between atoms: O1_1  and  C1_3 
REMARK    2  A    between atoms: C1_3  and  C2_4 
REMARK    3  A    between atoms: C4_7  and  C5_8 
REMARK    4  A    between atoms: C7_12  and  O3_13 
ROOT
HETATM    1  C2  UNL     1      -5.593   1.756  16.407  1.00  0.00     0.172 C 
HETATM    2  C3  UNL     1      -4.707   0.984  15.420  1.00  0.00     0.203 C 
HETATM    3  O2  UNL     1      -3.779   1.918  14.988  1.00  0.00    -0.374 OA
HETATM    4  C4  UNL     1      -4.421   2.853  14.225  1.00  0.00     0.201 C 
HETATM    5  C7  UNL     1      -5.716   3.347  14.731  1.00  0.00     0.290 C 
HETATM    6  O4  UNL     1      -6.356   2.606  15.667  1.00  0.00    -0.349 OA
ENDROOT
BRANCH   4   7
HETATM    7  C5  UNL     1      -3.456   4.001  14.030  1.00  0.00     0.036 C 
HETATM    8  C6  UNL     1      -2.786   4.114  12.901  1.00  0.00     0.056 C 
HETATM    9 BR1  UNL     1      -1.580   5.557  12.665  1.00  0.00    -0.043 Br
HETATM   10 BR2  UNL     1      -3.017   2.827  11.490  1.00  0.00    -0.043 Br
ENDBRANCH   4   7
BRANCH   5  11
HETATM   11  O3  UNL     1      -5.603   4.666  15.234  1.00  0.00    -0.368 OA
ATOM     12  H3  UNL     1      -5.443   4.666  16.171  1.00  0.00     0.212 HD
ENDBRANCH   5  11
BRANCH   1  13
HETATM   13  C1  UNL     1      -6.409   0.730  17.138  1.00  0.00     0.198 C 
BRANCH  13  14
HETATM   14  O1  UNL     1      -5.819  -0.533  17.125  1.00  0.00    -0.398 OA
ATOM     15  H1  UNL     1      -6.437  -1.223  16.914  1.00  0.00     0.209 HD
ENDBRANCH  13  14
ENDBRANCH   1  13
TORSDOF 4
ENDMDL
MODEL 3
REMARK VINA RESULT: -5.399519311      3.574      5.527
REMARK  4 active torsions:
REMARK  status: ('A' for Active; 'I' for Inactive)
REMARK    1  A    between atoms: O1_1  and  C1_3 
REMARK    2  A    between atoms: C1_3  and  C2_4 
REMARK    3  A    between atoms: C4_7  and  C5_8 
REMARK    4  A    between atoms: C7_12  and  O3_13 
ROOT
HETATM    1  C2  UNL     1      -5.295   1.841  16.497  1.00  0.00     0.172 C 
HETATM    2  C3  UNL     1      -4.454   1.409  15.288  1.00  0.00     0.203 C 
HETATM    3  O2  UNL     1      -3.823   2.571  14.875  1.00  0.00    -0.374 OA
HETATM    4  C4  UNL     1      -4.761   3.422  14.363  1.00  0.00     0.201 C 
HETATM    5  C7  UNL     1      -6.023   3.550  15.117  1.00  0.00     0.290 C 
HETATM    6  O4  UNL     1      -6.329   2.579  16.011  1.00  0.00    -0.349 OA
ENDROOT
BRANCH   4   7
HETATM    7  C5  UNL     1      -4.098   4.771  14.208  1.00  0.00     0.036 C 
HETATM    8  C6  UNL     1      -3.686   5.172  13.023  1.00  0.00     0.056 C 
HETATM    9 BR1  UNL     1      -2.856   6.866  12.839  1.00  0.00    -0.043 Br
HETATM   10 BR2  UNL     1      -3.917   4.054  11.475  1.00  0.00    -0.043 Br
ENDBRANCH   4   7
BRANCH   5  11
HETATM   11  O3  UNL     1      -6.095   4.791  15.793  1.00  0.00    -0.368 OA
ATOM     12  H3  UNL     1      -6.379   5.486  15.210  1.00  0.00     0.212 HD
ENDBRANCH   5  11
BRANCH   1  13
HETATM   13  C1  UNL     1      -5.748   0.580  17.172  1.00  0.00     0.198 C 
BRANCH  13  14
HETATM   14  O1  UNL     1      -7.003   0.158  16.737  1.00  0.00    -0.398 OA
ATOM     15  H1  UNL     1      -7.347  -0.562  17.254  1.00  0.00     0.209 HD
ENDBRANCH  13  14
ENDBRANCH   1  13
TORSDOF 4
ENDMDL
MODEL 4
REMARK VINA RESULT: -5.384941673      3.519      5.590
REMARK  4 active torsions:
REMARK  status: ('A' for Active; 'I' for Inactive)
REMARK    1  A    between atoms: O1_1  and  C1_3 
REMARK    2  A    between atoms: C1_3  and  C2_4 
REMARK    3  A    between atoms: C4_7  and  C5_8 
REMARK    4  A    between atoms: C7_12  and  O3_13 
ROOT
HETATM    1  C2  UNL     1      -5.940   2.275  16.845  1.00  0.00     0.172 C 
HETATM    2  C3  UNL     1      -5.451   3.322  15.834  1.00  0.00     0.203 C 
HETATM    3  O2  UNL     1      -5.471   2.659  14.617  1.00  0.00    -0.374 OA
HETATM    4  C4  UNL     1      -4.500   1.699  14.624  1.00  0.00     0.201 C 
HETATM    5  C7  UNL     1      -4.378   0.887  15.851  1.00  0.00     0.290 C 
HETATM    6  O4  UNL     1      -4.936   1.369  16.987  1.00  0.00    -0.349 OA
ENDROOT
BRANCH   4   7
HETATM    7  C5  UNL     1      -4.747   0.811  13.425  1.00  0.00     0.036 C 
HETATM    8  C6  UNL     1      -4.287   1.158  12.241  1.00  0.00     0.056 C 
HETATM    9 BR1  UNL     1      -4.601   0.039  10.745  1.00  0.00    -0.043 Br
HETATM   10 BR2  UNL     1      -3.299   2.793  12.014  1.00  0.00    -0.043 Br
ENDBRANCH   4   7
BRANCH   5  11
HETATM   11  O3  UNL     1      -4.874  -0.423  15.653  1.00  0.00    -0.368 OA
ATOM     12  H3  UNL     1      -5.591  -0.431  15.029  1.00  0.00     0.212 HD
ENDBRANCH   5  11
BRANCH   1  13
HETATM   13  C1  UNL     1      -6.238   3.018  18.114  1.00  0.00     0.198 C 
BRANCH  13  14
HETATM   14  O1  UNL     1      -5.985   2.257  19.254  1.00  0.00    -0.398 OA
ATOM     15  H1  UNL     1      -5.225   1.695  19.158  1.00  0.00     0.209 HD
ENDBRANCH  13  14
ENDBRANCH   1  13
TORSDOF 4
ENDMDL
MODEL 5
REMARK VINA RESULT: -5.339292309      3.582      5.513
REMARK  4 active torsions:
REMARK  status: ('A' for Active; 'I' for Inactive)
REMARK    1  A    between atoms: O1_1  and  C1_3 
REMARK    2  A    between atoms: C1_3  and  C2_4 
REMARK    3  A    between atoms: C4_7  and  C5_8 
REMARK    4  A    between atoms: C7_12  and  O3_13 
ROOT
HETATM    1  C2  UNL     1      -6.276   2.037  16.254  1.00  0.00     0.172 C 
HETATM    2  C3  UNL     1      -6.081   3.389  16.956  1.00  0.00     0.203 C 
HETATM    3  O2  UNL     1      -6.448   4.326  16.003  1.00  0.00    -0.374 OA
HETATM    4  C4  UNL     1      -5.522   4.316  14.999  1.00  0.00     0.201 C 
HETATM    5  C7  UNL     1      -5.067   2.993  14.528  1.00  0.00     0.290 C 
HETATM    6  O4  UNL     1      -5.280   1.926  15.335  1.00  0.00    -0.349 OA
ENDROOT
BRANCH   4   7
HETATM    7  C5  UNL     1      -6.104   5.113  13.854  1.00  0.00     0.036 C 
HETATM    8  C6  UNL     1      -5.345   5.959  13.186  1.00  0.00     0.056 C 
HETATM    9 BR1  UNL     1      -6.083   6.953  11.751  1.00  0.00    -0.043 Br
HETATM   10 BR2  UNL     1      -3.494   6.194  13.653  1.00  0.00    -0.043 Br
ENDBRANCH   4   7
BRANCH   5  11
HETATM   11  O3  UNL     1      -5.610   2.684  13.258  1.00  0.00    -0.368 OA
ATOM     12  H3  UNL     1      -5.628   3.448  12.694  1.00  0.00     0.212 HD
ENDBRANCH   5  11
BRANCH   1  13
HETATM   13  C1  UNL     1      -6.199   0.989  17.325  1.00  0.00     0.198 C 
BRANCH  13  14
HETATM   14  O1  UNL     1      -5.888  -0.273  16.821  1.00  0.00    -0.398 OA
ATOM     15  H1  UNL     1      -5.022  -0.567  17.079  1.00  0.00     0.209 HD
ENDBRANCH  13  14
ENDBRANCH   1  13
TORSDOF 4
ENDMDL
