MODEL 1
REMARK VINA RESULT: -6.137913640      0.000      0.000
REMARK  5 active torsions:
REMARK  status: ('A' for Active; 'I' for Inactive)
REMARK    1  A    between atoms: N1_2  and  C3_4 
REMARK    2  A    between atoms: C3_4  and  C4_8 
REMARK    3  A    between atoms: C6_11  and  O2_12 
REMARK    4  A    between atoms: C7_14  and  C8_15 
REMARK    5  A    between atoms: C8_15  and  O3_16 
ROOT
HETATM    1  C4  UNL     1      -4.407   4.712  12.141  1.00  0.00     0.214 C 
HETATM    2  O1  UNL     1      -5.415   3.999  12.778  1.00  0.00    -0.366 OA
HETATM    3  C5  UNL     1      -5.408   4.344  14.109  1.00  0.00     0.184 C 
HETATM    4  C6  UNL     1      -5.856   3.212  15.012  1.00  0.00     0.180 C 
HETATM    5  C7  UNL     1      -4.558   2.572  15.409  1.00  0.00     0.177 C 
HETATM    6  O4  UNL     1      -3.624   3.012  14.473  1.00  0.00    -0.371 OA
HETATM    7  C9  UNL     1      -3.909   4.375  14.413  1.00  0.00     0.179 C 
HETATM    8  C10 UNL     1      -3.368   5.022  13.170  1.00  0.00     0.095 C 
HETATM    9  C11 UNL     1      -3.287   6.518  13.435  1.00  0.00     0.038 C 
HETATM   10 CL1  UNL     1      -1.767   4.443  12.783  1.00  0.00    -0.114 Cl
ENDROOT
BRANCH   1  11
HETATM   11  C3  UNL     1      -3.926   3.990  10.967  1.00  0.00     0.103 C 
HETATM   12  N2  UNL     1      -4.077   2.713  10.961  1.00  0.00    -0.387 N 
ATOM     13  H22 UNL     1      -3.741   2.208  10.141  1.00  0.00     0.157 HD
ATOM     14  H21 UNL     1      -4.523   2.292  11.776  1.00  0.00     0.157 HD
BRANCH  11  15
HETATM   15  N1  UNL     1      -3.312   4.570   9.842  1.00  0.00    -0.378 N 
HETATM   16  C1  UNL     1      -3.668   5.899   9.438  1.00  0.00     0.150 C 
HETATM   17  C2  UNL     1      -2.328   3.866   9.076  1.00  0.00     0.150 C 
ENDBRANCH  11  15
ENDBRANCH   1  11
BRANCH   4  18
HETATM   18  O2  UNL     1      -6.431   3.775  16.151  1.00  0.00    -0.390 OA
ATOM     19  H2  UNL     1      -6.366   3.140  16.854  1.00  0.00     0.210 HD
ENDBRANCH   4  18
BRANCH   5  20
HETATM   20  C8  UNL     1      -4.700   1.062  15.391  1.00  0.00     0.198 C 
BRANCH  20  21
HETATM   21  O3  UNL     1      -3.962   0.570  16.468  1.00  0.00    -0.398 OA
ATOM     22  H3  UNL     1      -3.724  -0.325  16.256  1.00  0.00     0.209 HD
ENDBRANCH  20  21
ENDBRANCH   5  20
TORSDOF 5
ENDMDL
MODEL 2
REMARK VINA RESULT: -6.035866701      2.558      3.306
REMARK  5 active torsions:
REMARK  status: ('A' for Active; 'I' for Inactive)
REMARK    1  A    between atoms: N1_2  and  C3_4 
REMARK    2  A    between atoms: C3_4  and  C4_8 
REMARK    3  A    between atoms: C6_11  and  O2_12 
REMARK    4  A    between atoms: C7_14  and  C8_15 
REMARK    5  A    between atoms: C8_15  and  O3_16 
ROOT
HETATM    1  C4  UNL     1      -2.404   4.161  11.943  1.00  0.00     0.214 C 
HETATM    2  O1  UNL     1      -2.436   2.791  12.172  1.00  0.00    -0.366 OA
HETATM    3  C5  UNL     1      -3.705   2.340  11.893  1.00  0.00     0.184 C 
HETATM    4  C6  UNL     1      -4.107   1.152  12.744  1.00  0.00     0.180 C 
HETATM    5  C7  UNL     1      -4.836   1.796  13.886  1.00  0.00     0.177 C 
HETATM    6  O4  UNL     1      -4.452   3.135  13.866  1.00  0.00    -0.371 OA
HETATM    7  C9  UNL     1      -4.568   3.441  12.512  1.00  0.00     0.179 C 
HETATM    8  C10 UNL     1      -3.797   4.671  12.131  1.00  0.00     0.095 C 
HETATM    9  C11 UNL     1      -4.375   5.182  10.819  1.00  0.00     0.038 C 
HETATM   10 CL1  UNL     1      -3.954   5.931  13.330  1.00  0.00    -0.114 Cl
ENDROOT
BRANCH   1  11
HETATM   11  C3  UNL     1      -1.389   4.800  12.776  1.00  0.00     0.103 C 
HETATM   12  N2  UNL     1      -1.294   4.402  13.995  1.00  0.00    -0.387 N 
ATOM     13  H22 UNL     1      -0.585   4.848  14.577  1.00  0.00     0.157 HD
ATOM     14  H21 UNL     1      -1.934   3.667  14.297  1.00  0.00     0.157 HD
BRANCH  11  15
HETATM   15  N1  UNL     1      -0.506   5.813  12.360  1.00  0.00    -0.378 N 
HETATM   16  C1  UNL     1       0.627   5.484  11.545  1.00  0.00     0.150 C 
HETATM   17  C2  UNL     1      -0.705   7.182  12.729  1.00  0.00     0.150 C 
ENDBRANCH  11  15
ENDBRANCH   1  11
BRANCH   4  18
HETATM   18  O2  UNL     1      -5.021   0.393  12.015  1.00  0.00    -0.390 OA
ATOM     19  H2  UNL     1      -4.874  -0.522  12.225  1.00  0.00     0.210 HD
ENDBRANCH   4  18
BRANCH   5  20
HETATM   20  C8  UNL     1      -4.454   1.122  15.190  1.00  0.00     0.198 C 
BRANCH  20  21
HETATM   21  O3  UNL     1      -4.869  -0.206  15.099  1.00  0.00    -0.398 OA
ATOM     22  H3  UNL     1      -5.598  -0.312  15.700  1.00  0.00     0.209 HD
ENDBRANCH  20  21
ENDBRANCH   5  20
TORSDOF 5
ENDMDL
MODEL 3
REMARK VINA RESULT: -5.920017492      3.277      5.410
REMARK  5 active torsions:
REMARK  status: ('A' for Active; 'I' for Inactive)
REMARK    1  A    between atoms: N1_2  and  C3_4 
REMARK    2  A    between atoms: C3_4  and  C4_8 
REMARK    3  A    between atoms: C6_11  and  O2_12 
REMARK    4  A    between atoms: C7_14  and  C8_15 
REMARK    5  A    between atoms: C8_15  and  O3_16 
ROOT
HETATM    1  C4  UNL     1      -4.602   3.250  15.079  1.00  0.00     0.214 C 
HETATM    2  O1  UNL     1      -3.724   2.434  14.378  1.00  0.00    -0.366 OA
HETATM    3  C5  UNL     1      -3.473   3.020  13.160  1.00  0.00     0.184 C 
HETATM    4  C6  UNL     1      -3.199   2.007  12.066  1.00  0.00     0.180 C 
HETATM    5  C7  UNL     1      -4.550   1.823  11.440  1.00  0.00     0.177 C 
HETATM    6  O4  UNL     1      -5.463   2.305  12.376  1.00  0.00    -0.371 OA
HETATM    7  C9  UNL     1      -4.867   3.505  12.758  1.00  0.00     0.179 C 
HETATM    8  C10 UNL     1      -5.392   4.017  14.068  1.00  0.00     0.095 C 
HETATM    9  C11 UNL     1      -5.072   5.503  14.135  1.00  0.00     0.038 C 
HETATM   10 CL1  UNL     1      -7.122   3.819  14.194  1.00  0.00    -0.114 Cl
ENDROOT
BRANCH   1  11
HETATM   11  C3  UNL     1      -5.393   2.467  16.024  1.00  0.00     0.103 C 
HETATM   12  N2  UNL     1      -5.576   1.224  15.748  1.00  0.00    -0.387 N 
ATOM     13  H22 UNL     1      -6.128   0.677  16.408  1.00  0.00     0.157 HD
ATOM     14  H21 UNL     1      -5.155   0.871  14.888  1.00  0.00     0.157 HD
BRANCH  11  15
HETATM   15  N1  UNL     1      -5.972   2.954  17.210  1.00  0.00    -0.378 N 
HETATM   16  C1  UNL     1      -6.032   2.119  18.373  1.00  0.00     0.150 C 
HETATM   17  C2  UNL     1      -6.513   4.278  17.293  1.00  0.00     0.150 C 
ENDBRANCH  11  15
ENDBRANCH   1  11
BRANCH   4  18
HETATM   18  O2  UNL     1      -2.361   2.608  11.127  1.00  0.00    -0.390 OA
ATOM     19  H2  UNL     1      -1.657   3.039  11.597  1.00  0.00     0.210 HD
ENDBRANCH   4  18
BRANCH   5  20
HETATM   20  C8  UNL     1      -4.782   0.356  11.133  1.00  0.00     0.198 C 
BRANCH  20  21
HETATM   21  O3  UNL     1      -4.715   0.213   9.748  1.00  0.00    -0.398 OA
ATOM     22  H3  UNL     1      -4.449   1.054   9.394  1.00  0.00     0.209 HD
ENDBRANCH  20  21
ENDBRANCH   5  20
TORSDOF 5
ENDMDL
MODEL 4
REMARK VINA RESULT: -5.891493838      2.738      5.336
REMARK  5 active torsions:
REMARK  status: ('A' for Active; 'I' for Inactive)
REMARK    1  A    between atoms: N1_2  and  C3_4 
REMARK    2  A    between atoms: C3_4  and  C4_8 
REMARK    3  A    between atoms: C6_11  and  O2_12 
REMARK    4  A    between atoms: C7_14  and  C8_15 
REMARK    5  A    between atoms: C8_15  and  O3_16 
ROOT
HETATM    1  C4  UNL     1      -4.360   3.375  15.244  1.00  0.00     0.214 C 
HETATM    2  O1  UNL     1      -3.236   3.260  14.437  1.00  0.00    -0.366 OA
HETATM    3  C5  UNL     1      -3.152   4.389  13.657  1.00  0.00     0.184 C 
HETATM    4  C6  UNL     1      -2.517   4.124  12.306  1.00  0.00     0.180 C 
HETATM    5  C7  UNL     1      -3.707   3.884  11.424  1.00  0.00     0.177 C 
HETATM    6  O4  UNL     1      -4.761   3.598  12.290  1.00  0.00    -0.371 OA
HETATM    7  C9  UNL     1      -4.612   4.595  13.251  1.00  0.00     0.179 C 
HETATM    8  C10 UNL     1      -5.324   4.270  14.533  1.00  0.00     0.095 C 
HETATM    9  C11 UNL     1      -5.519   5.576  15.289  1.00  0.00     0.038 C 
HETATM   10 CL1  UNL     1      -6.893   3.562  14.240  1.00  0.00    -0.114 Cl
ENDROOT
BRANCH   1  11
HETATM   11  C3  UNL     1      -4.879   2.056  15.598  1.00  0.00     0.103 C 
HETATM   12  N2  UNL     1      -4.654   1.096  14.773  1.00  0.00    -0.387 N 
ATOM     13  H22 UNL     1      -5.016   0.175  15.020  1.00  0.00     0.157 HD
ATOM     14  H21 UNL     1      -4.129   1.321  13.928  1.00  0.00     0.157 HD
BRANCH  11  15
HETATM   15  N1  UNL     1      -5.603   1.746  16.764  1.00  0.00    -0.378 N 
HETATM   16  C1  UNL     1      -5.927   0.382  17.063  1.00  0.00     0.150 C 
HETATM   17  C2  UNL     1      -6.033   2.764  17.675  1.00  0.00     0.150 C 
ENDBRANCH  11  15
ENDBRANCH   1  11
BRANCH   4  18
HETATM   18  O2  UNL     1      -1.894   5.300  11.888  1.00  0.00    -0.390 OA
ATOM     19  H2  UNL     1      -2.219   5.510  11.021  1.00  0.00     0.210 HD
ENDBRANCH   4  18
BRANCH   5  20
HETATM   20  C8  UNL     1      -3.427   2.729  10.481  1.00  0.00     0.198 C 
BRANCH  20  21
HETATM   21  O3  UNL     1      -4.621   2.024  10.334  1.00  0.00    -0.398 OA
ATOM     22  H3  UNL     1      -4.479   1.374   9.655  1.00  0.00     0.209 HD
ENDBRANCH  20  21
ENDBRANCH   5  20
TORSDOF 5
ENDMDL
MODEL 5
REMARK VINA RESULT: -5.846981906      2.659      3.507
REMARK  5 active torsions:
REMARK  status: ('A' for Active; 'I' for Inactive)
REMARK    1  A    between atoms: N1_2  and  C3_4 
REMARK    2  A    between atoms: C3_4  and  C4_8 
REMARK    3  A    between atoms: C6_11  and  O2_12 
REMARK    4  A    between atoms: C7_14  and  C8_15 
REMARK    5  A    between atoms: C8_15  and  O3_16 
ROOT
HETATM    1  C4  UNL     1      -1.846   3.897  10.591  1.00  0.00     0.214 C 
HETATM    2  O1  UNL     1      -2.497   2.687  10.791  1.00  0.00    -0.366 OA
HETATM    3  C5  UNL     1      -3.851   2.923  10.786  1.00  0.00     0.184 C 
HETATM    4  C6  UNL     1      -4.618   1.969  11.679  1.00  0.00     0.180 C 
HETATM    5  C7  UNL     1      -4.723   2.732  12.967  1.00  0.00     0.177 C 
HETATM    6  O4  UNL     1      -3.747   3.724  12.892  1.00  0.00    -0.371 OA
HETATM    7  C9  UNL     1      -3.943   4.214  11.602  1.00  0.00     0.179 C 
HETATM    8  C10 UNL     1      -2.755   4.974  11.088  1.00  0.00     0.095 C 
HETATM    9  C11 UNL     1      -3.238   5.855   9.945  1.00  0.00     0.038 C 
HETATM   10 CL1  UNL     1      -2.060   6.000  12.319  1.00  0.00    -0.114 Cl
ENDROOT
BRANCH   1  11
HETATM   11  C3  UNL     1      -0.516   3.874  11.195  1.00  0.00     0.103 C 
HETATM   12  N2  UNL     1      -0.386   3.235  12.303  1.00  0.00    -0.387 N 
ATOM     13  H22 UNL     1       0.542   3.219  12.725  1.00  0.00     0.157 HD
ATOM     14  H21 UNL     1      -1.220   2.788  12.684  1.00  0.00     0.157 HD
BRANCH  11  15
HETATM   15  N1  UNL     1       0.633   4.491  10.669  1.00  0.00    -0.378 N 
HETATM   16  C1  UNL     1       1.119   4.114   9.374  1.00  0.00     0.150 C 
HETATM   17  C2  UNL     1       1.346   5.497  11.397  1.00  0.00     0.150 C 
ENDBRANCH  11  15
ENDBRANCH   1  11
BRANCH   4  18
HETATM   18  O2  UNL     1      -5.901   1.825  11.152  1.00  0.00    -0.390 OA
ATOM     19  H2  UNL     1      -6.390   2.614  11.353  1.00  0.00     0.210 HD
ENDBRANCH   4  18
BRANCH   5  20
HETATM   20  C8  UNL     1      -4.488   1.802  14.141  1.00  0.00     0.198 C 
BRANCH  20  21
HETATM   21  O3  UNL     1      -4.654   0.500  13.669  1.00  0.00    -0.398 OA
ATOM     22  H3  UNL     1      -4.494   0.521  12.732  1.00  0.00     0.209 HD
ENDBRANCH  20  21
ENDBRANCH   5  20
TORSDOF 5
ENDMDL
