MODEL 1
REMARK VINA RESULT: -6.952053707      0.000      0.000
REMARK  5 active torsions:
REMARK  status: ('A' for Active; 'I' for Inactive)
REMARK    1  A    between atoms: O1_1  and  C1_3 
REMARK    2  A    between atoms: C4_6  and  N1_7 
REMARK    3  A    between atoms: N2_10  and  C7_11 
REMARK    4  A    between atoms: C9_13  and  O2_14 
REMARK    5  A    between atoms: C13_20  and  O3_21 
ROOT
HETATM    1  N1  UNL     1      -5.066   4.758  13.134  1.00  0.00     0.132 N 
HETATM    2  C5  UNL     1      -6.149   5.230  13.985  1.00  0.00     0.307 C 
HETATM    3  C6  UNL     1      -6.059   4.841  15.415  1.00  0.00     0.303 C 
HETATM    4  N2  UNL     1      -5.837   3.420  15.494  1.00  0.00     0.099 N 
HETATM    5  C11 UNL     1      -4.702   3.033  14.725  1.00  0.00     0.342 C 
HETATM    6  C12 UNL     1      -4.056   4.233  14.008  1.00  0.00     0.433 C 
HETATM    7  F1  UNL     1      -2.937   3.734  13.432  1.00  0.00    -0.214 F 
ENDROOT
BRANCH   1   8
HETATM    8  C4  UNL     1      -4.609   5.820  12.268  1.00  0.00     0.255 C 
HETATM    9  C3  UNL     1      -3.633   6.771  12.867  1.00  0.00     0.041 C 
HETATM   10  C2  UNL     1      -3.215   7.714  11.725  1.00  0.00     0.034 C 
HETATM   11  C1  UNL     1      -2.311   6.840  10.867  1.00  0.00     0.120 C 
HETATM   12  C14 UNL     1      -3.016   5.630  10.318  1.00  0.00     0.065 C 
HETATM   13  C13 UNL     1      -4.384   5.412  10.873  1.00  0.00     0.154 C 
BRANCH  11  14
HETATM   14  O1  UNL     1      -1.838   7.688   9.851  1.00  0.00    -0.395 OA
ATOM     15  H1  UNL     1      -1.170   7.186   9.401  1.00  0.00     0.210 HD
ENDBRANCH  11  14
BRANCH  13  16
HETATM   16  O3  UNL     1      -4.750   4.089  10.668  1.00  0.00    -0.393 OA
ATOM     17  H3  UNL     1      -4.502   3.793   9.800  1.00  0.00     0.210 HD
ENDBRANCH  13  16
ENDBRANCH   1   8
BRANCH   4  18
HETATM   18  C7  UNL     1      -5.868   2.864  16.799  1.00  0.00     0.228 C 
HETATM   19  C8  UNL     1      -6.970   1.887  17.104  1.00  0.00     0.067 C 
HETATM   20  C9  UNL     1      -6.084   0.795  16.545  1.00  0.00     0.122 C 
HETATM   21  C10 UNL     1      -4.896   1.681  16.895  1.00  0.00     0.067 C 
BRANCH  20  22
HETATM   22  O2  UNL     1      -6.056  -0.352  17.329  1.00  0.00    -0.395 OA
ATOM     23  H2  UNL     1      -5.296  -0.900  17.172  1.00  0.00     0.210 HD
ENDBRANCH  20  22
ENDBRANCH   4  18
TORSDOF 5
ENDMDL
MODEL 2
REMARK VINA RESULT: -6.190811637      2.438      3.185
REMARK  5 active torsions:
REMARK  status: ('A' for Active; 'I' for Inactive)
REMARK    1  A    between atoms: O1_1  and  C1_3 
REMARK    2  A    between atoms: C4_6  and  N1_7 
REMARK    3  A    between atoms: N2_10  and  C7_11 
REMARK    4  A    between atoms: C9_13  and  O2_14 
REMARK    5  A    between atoms: C13_20  and  O3_21 
ROOT
HETATM    1  N1  UNL     1      -2.924   3.314  12.325  1.00  0.00     0.132 N 
HETATM    2  C5  UNL     1      -3.796   2.152  12.431  1.00  0.00     0.307 C 
HETATM    3  C6  UNL     1      -5.142   2.409  13.000  1.00  0.00     0.303 C 
HETATM    4  N2  UNL     1      -4.991   3.135  14.236  1.00  0.00     0.099 N 
HETATM    5  C11 UNL     1      -4.217   4.316  14.047  1.00  0.00     0.342 C 
HETATM    6  C12 UNL     1      -3.739   4.465  12.591  1.00  0.00     0.433 C 
HETATM    7  F1  UNL     1      -3.135   5.676  12.544  1.00  0.00    -0.214 F 
ENDROOT
BRANCH   1   8
HETATM    8  C4  UNL     1      -2.269   3.334  11.039  1.00  0.00     0.255 C 
HETATM    9  C3  UNL     1      -3.033   3.971   9.931  1.00  0.00     0.041 C 
HETATM   10  C2  UNL     1      -2.084   3.977   8.719  1.00  0.00     0.034 C 
HETATM   11  C1  UNL     1      -1.079   5.065   9.070  1.00  0.00     0.120 C 
HETATM   12  C14 UNL     1      -0.317   4.772  10.333  1.00  0.00     0.065 C 
HETATM   13  C13 UNL     1      -0.822   3.594  11.097  1.00  0.00     0.154 C 
BRANCH  11  14
HETATM   14  O1  UNL     1      -0.237   5.162   7.950  1.00  0.00    -0.395 OA
ATOM     15  H1  UNL     1       0.456   4.534   8.106  1.00  0.00     0.210 HD
ENDBRANCH  11  14
BRANCH  13  16
HETATM   16  O3  UNL     1      -0.377   3.680  12.409  1.00  0.00    -0.393 OA
ATOM     17  H3  UNL     1       0.449   3.225  12.523  1.00  0.00     0.210 HD
ENDBRANCH  13  16
ENDBRANCH   1   8
BRANCH   4  18
HETATM   18  C7  UNL     1      -6.182   3.337  14.980  1.00  0.00     0.228 C 
HETATM   19  C8  UNL     1      -6.527   2.305  16.018  1.00  0.00     0.067 C 
HETATM   20  C9  UNL     1      -5.662   3.072  16.993  1.00  0.00     0.122 C 
HETATM   21  C10 UNL     1      -5.924   4.307  16.141  1.00  0.00     0.067 C 
BRANCH  20  22
HETATM   22  O2  UNL     1      -6.246   3.237  18.243  1.00  0.00    -0.395 OA
ATOM     23  H2  UNL     1      -5.844   2.707  18.922  1.00  0.00     0.210 HD
ENDBRANCH  20  22
ENDBRANCH   4  18
TORSDOF 5
ENDMDL
MODEL 3
REMARK VINA RESULT: -6.148113271      2.053      6.954
REMARK  5 active torsions:
REMARK  status: ('A' for Active; 'I' for Inactive)
REMARK    1  A    between atoms: O1_1  and  C1_3 
REMARK    2  A    between atoms: C4_6  and  N1_7 
REMARK    3  A    between atoms: N2_10  and  C7_11 
REMARK    4  A    between atoms: C9_13  and  O2_14 
REMARK    5  A    between atoms: C13_20  and  O3_21 
ROOT
HETATM    1  N1  UNL     1      -4.012   3.263  14.425  1.00  0.00     0.132 N 
HETATM    2  C5  UNL     1      -3.897   4.688  14.148  1.00  0.00     0.307 C 
HETATM    3  C6  UNL     1      -3.941   5.070  12.714  1.00  0.00     0.303 C 
HETATM    4  N2  UNL     1      -2.993   4.260  11.992  1.00  0.00     0.099 N 
HETATM    5  C11 UNL     1      -3.223   2.873  12.219  1.00  0.00     0.342 C 
HETATM    6  C12 UNL     1      -4.392   2.635  13.192  1.00  0.00     0.433 C 
HETATM    7  F1  UNL     1      -4.564   1.292  13.208  1.00  0.00    -0.214 F 
ENDROOT
BRANCH   1   8
HETATM    8  C4  UNL     1      -4.932   3.036  15.515  1.00  0.00     0.255 C 
HETATM    9  C3  UNL     1      -6.378   3.144  15.178  1.00  0.00     0.041 C 
HETATM   10  C2  UNL     1      -7.135   2.743  16.456  1.00  0.00     0.034 C 
HETATM   11  C1  UNL     1      -6.941   1.234  16.516  1.00  0.00     0.120 C 
HETATM   12  C14 UNL     1      -5.494   0.834  16.615  1.00  0.00     0.065 C 
HETATM   13  C13 UNL     1      -4.531   1.960  16.434  1.00  0.00     0.154 C 
BRANCH  11  14
HETATM   14  O1  UNL     1      -7.688   0.812  17.628  1.00  0.00    -0.395 OA
ATOM     15  H1  UNL     1      -7.866   1.604  18.121  1.00  0.00     0.210 HD
ENDBRANCH  11  14
BRANCH  13  16
HETATM   16  O3  UNL     1      -3.289   1.443  16.096  1.00  0.00    -0.393 OA
ATOM     17  H3  UNL     1      -2.638   2.131  16.018  1.00  0.00     0.210 HD
ENDBRANCH  13  16
ENDBRANCH   1   8
BRANCH   4  18
HETATM   18  C7  UNL     1      -2.810   4.599  10.626  1.00  0.00     0.228 C 
HETATM   19  C8  UNL     1      -2.249   5.962  10.325  1.00  0.00     0.067 C 
HETATM   20  C9  UNL     1      -0.866   5.367  10.473  1.00  0.00     0.122 C 
HETATM   21  C10 UNL     1      -1.485   4.024  10.109  1.00  0.00     0.067 C 
BRANCH  20  22
HETATM   22  O2  UNL     1       0.017   5.758   9.473  1.00  0.00    -0.395 OA
ATOM     23  H2  UNL     1       0.870   6.017   9.801  1.00  0.00     0.210 HD
ENDBRANCH  20  22
ENDBRANCH   4  18
TORSDOF 5
ENDMDL
MODEL 4
REMARK VINA RESULT: -6.146291948      1.974      2.520
REMARK  5 active torsions:
REMARK  status: ('A' for Active; 'I' for Inactive)
REMARK    1  A    between atoms: O1_1  and  C1_3 
REMARK    2  A    between atoms: C4_6  and  N1_7 
REMARK    3  A    between atoms: N2_10  and  C7_11 
REMARK    4  A    between atoms: C9_13  and  O2_14 
REMARK    5  A    between atoms: C13_20  and  O3_21 
ROOT
HETATM    1  N1  UNL     1      -3.501   3.698  13.169  1.00  0.00     0.132 N 
HETATM    2  C5  UNL     1      -4.201   2.421  13.218  1.00  0.00     0.307 C 
HETATM    3  C6  UNL     1      -5.539   2.448  13.860  1.00  0.00     0.303 C 
HETATM    4  N2  UNL     1      -5.424   3.096  15.142  1.00  0.00     0.099 N 
HETATM    5  C11 UNL     1      -4.828   4.383  15.015  1.00  0.00     0.342 C 
HETATM    6  C12 UNL     1      -4.450   4.702  13.557  1.00  0.00     0.433 C 
HETATM    7  F1  UNL     1      -4.018   5.985  13.581  1.00  0.00    -0.214 F 
ENDROOT
BRANCH   1   8
HETATM    8  C4  UNL     1      -2.921   3.901  11.862  1.00  0.00     0.255 C 
HETATM    9  C3  UNL     1      -3.819   4.508  10.841  1.00  0.00     0.041 C 
HETATM   10  C2  UNL     1      -2.943   4.732   9.595  1.00  0.00     0.034 C 
HETATM   11  C1  UNL     1      -2.074   5.919   9.991  1.00  0.00     0.120 C 
HETATM   12  C14 UNL     1      -1.216   5.640  11.194  1.00  0.00     0.065 C 
HETATM   13  C13 UNL     1      -1.521   4.351  11.881  1.00  0.00     0.154 C 
BRANCH  11  14
HETATM   14  O1  UNL     1      -1.312   6.212   8.848  1.00  0.00    -0.395 OA
ATOM     15  H1  UNL     1      -0.484   5.767   8.983  1.00  0.00     0.210 HD
ENDBRANCH  11  14
BRANCH  13  16
HETATM   16  O3  UNL     1      -1.024   4.400  13.176  1.00  0.00    -0.393 OA
ATOM     17  H3  UNL     1      -0.218   4.900  13.218  1.00  0.00     0.210 HD
ENDBRANCH  13  16
ENDBRANCH   1   8
BRANCH   4  18
HETATM   18  C7  UNL     1      -6.592   3.076  15.948  1.00  0.00     0.228 C 
HETATM   19  C8  UNL     1      -6.814   1.862  16.807  1.00  0.00     0.067 C 
HETATM   20  C9  UNL     1      -5.963   2.524  17.869  1.00  0.00     0.122 C 
HETATM   21  C10 UNL     1      -6.353   3.858  17.246  1.00  0.00     0.067 C 
BRANCH  20  22
HETATM   22  O2  UNL     1      -6.501   2.432  19.147  1.00  0.00    -0.395 OA
ATOM     23  H2  UNL     1      -6.364   3.211  19.673  1.00  0.00     0.210 HD
ENDBRANCH  20  22
ENDBRANCH   4  18
TORSDOF 5
ENDMDL
MODEL 5
REMARK VINA RESULT: -6.140207757      2.169      6.949
REMARK  5 active torsions:
REMARK  status: ('A' for Active; 'I' for Inactive)
REMARK    1  A    between atoms: O1_1  and  C1_3 
REMARK    2  A    between atoms: C4_6  and  N1_7 
REMARK    3  A    between atoms: N2_10  and  C7_11 
REMARK    4  A    between atoms: C9_13  and  O2_14 
REMARK    5  A    between atoms: C13_20  and  O3_21 
ROOT
HETATM    1  N1  UNL     1      -4.744   3.625  12.803  1.00  0.00     0.132 N 
HETATM    2  C5  UNL     1      -4.532   2.662  11.730  1.00  0.00     0.307 C 
HETATM    3  C6  UNL     1      -3.206   2.721  11.066  1.00  0.00     0.303 C 
HETATM    4  N2  UNL     1      -2.943   4.085  10.681  1.00  0.00     0.099 N 
HETATM    5  C11 UNL     1      -3.062   4.965  11.794  1.00  0.00     0.342 C 
HETATM    6  C12 UNL     1      -3.466   4.219  13.078  1.00  0.00     0.433 C 
HETATM    7  F1  UNL     1      -3.417   5.154  14.056  1.00  0.00    -0.214 F 
ENDROOT
BRANCH   1   8
HETATM    8  C4  UNL     1      -5.359   2.983  13.940  1.00  0.00     0.255 C 
HETATM    9  C3  UNL     1      -4.443   2.203  14.819  1.00  0.00     0.041 C 
HETATM   10  C2  UNL     1      -5.305   1.731  16.004  1.00  0.00     0.034 C 
HETATM   11  C1  UNL     1      -5.506   3.005  16.815  1.00  0.00     0.120 C 
HETATM   12  C14 UNL     1      -6.217   4.083  16.044  1.00  0.00     0.065 C 
HETATM   13  C13 UNL     1      -6.407   3.780  14.596  1.00  0.00     0.154 C 
BRANCH  11  14
HETATM   14  O1  UNL     1      -6.221   2.603  17.955  1.00  0.00    -0.395 OA
ATOM     15  H1  UNL     1      -6.703   3.374  18.229  1.00  0.00     0.210 HD
ENDBRANCH  11  14
BRANCH  13  16
HETATM   16  O3  UNL     1      -6.641   4.965  13.912  1.00  0.00    -0.393 OA
ATOM     17  H3  UNL     1      -7.256   5.517  14.380  1.00  0.00     0.210 HD
ENDBRANCH  13  16
ENDBRANCH   1   8
BRANCH   4  18
HETATM   18  C7  UNL     1      -1.772   4.289   9.904  1.00  0.00     0.228 C 
HETATM   19  C8  UNL     1      -1.857   3.970   8.437  1.00  0.00     0.067 C 
HETATM   20  C9  UNL     1      -2.377   5.374   8.217  1.00  0.00     0.122 C 
HETATM   21  C10 UNL     1      -1.656   5.764   9.500  1.00  0.00     0.067 C 
BRANCH  20  22
HETATM   22  O2  UNL     1      -1.788   6.021   7.136  1.00  0.00    -0.395 OA
ATOM     23  H2  UNL     1      -1.352   6.831   7.372  1.00  0.00     0.210 HD
ENDBRANCH  20  22
ENDBRANCH   4  18
TORSDOF 5
ENDMDL
