MODEL 1
REMARK VINA RESULT: -6.348695808      0.000      0.000
REMARK  6 active torsions:
REMARK  status: ('A' for Active; 'I' for Inactive)
REMARK    1  A    between atoms: N1_1  and  N2_4 
REMARK    2  A    between atoms: N2_4  and  N3_5 
REMARK    3  A    between atoms: N3_5  and  C1_7 
REMARK    4  A    between atoms: C4_11  and  O1_12 
REMARK    5  A    between atoms: C5_14  and  O2_15 
REMARK    6  A    between atoms: C6_17  and  C7_18 
REMARK       I    between atoms: C7_18  and  N4_20 
ROOT
HETATM    1  C1  UNL     1      -4.327   3.949  13.340  1.00  0.00     0.215 C 
HETATM    2  F1  UNL     1      -5.065   4.877  14.054  1.00  0.00    -0.216 F 
HETATM    3  C2  UNL     1      -4.184   4.495  11.937  1.00  0.00     0.072 C 
HETATM    4  C3  UNL     1      -3.484   3.534  11.017  1.00  0.00     0.039 C 
HETATM    5  C4  UNL     1      -3.560   2.108  11.431  1.00  0.00     0.148 C 
HETATM    6  C5  UNL     1      -4.848   1.804  12.156  1.00  0.00     0.165 C 
HETATM    7  C6  UNL     1      -5.090   2.655  13.369  1.00  0.00     0.172 C 
ENDROOT
BRANCH   7   8
HETATM    8  C7  UNL     1      -4.798   1.882  14.584  1.00  0.00     0.231 C 
HETATM    9  O3  UNL     1      -3.761   1.172  14.754  1.00  0.00    -0.273 OA
HETATM   10  N4  UNL     1      -5.729   1.916  15.656  1.00  0.00    -0.347 N 
HETATM   11  C8  UNL     1      -6.971   2.641  15.763  1.00  0.00     0.161 C 
HETATM   12  C11 UNL     1      -5.579   1.175  16.890  1.00  0.00     0.161 C 
HETATM   13  C9  UNL     1      -7.090   3.042  17.221  1.00  0.00     0.236 A 
HETATM   14  N5  UNL     1      -5.879   3.412  17.929  1.00  0.00    -0.059 N 
HETATM   15  C10 UNL     1      -6.253   2.021  17.916  1.00  0.00     0.236 A 
ATOM     16  H52 UNL     1      -5.033   3.918  17.664  1.00  0.00     0.278 HD
ATOM     17  H51 UNL     1      -5.671   4.080  18.671  1.00  0.00     0.278 HD
ENDBRANCH   7   8
BRANCH   1  18
HETATM   18  N3  UNL     1      -3.022   3.892  13.961  1.00  0.00    -0.211 N 
ATOM     19  H3  UNL     1      -2.890   3.290  14.774  1.00  0.00     0.201 HD
BRANCH  18  20
HETATM   20  N2  UNL     1      -2.061   4.546  13.542  1.00  0.00    -0.245 NA
BRANCH  20  21
HETATM   21  N1  UNL     1      -0.970   5.011  13.194  1.00  0.00    -0.261 N 
ATOM     22  H12 UNL     1      -0.613   4.065  13.061  1.00  0.00     0.193 HD
ATOM     23  H11 UNL     1      -0.156   5.570  12.937  1.00  0.00     0.193 HD
ENDBRANCH  20  21
ENDBRANCH  18  20
ENDBRANCH   1  18
BRANCH   6  24
HETATM   24  O2  UNL     1      -5.868   2.012  11.205  1.00  0.00    -0.392 OA
ATOM     25  H2  UNL     1      -6.499   1.319  11.361  1.00  0.00     0.210 HD
ENDBRANCH   6  24
BRANCH   5  26
HETATM   26  O1  UNL     1      -2.447   1.619  12.091  1.00  0.00    -0.393 OA
ATOM     27  H1  UNL     1      -2.144   0.765  11.805  1.00  0.00     0.210 HD
ENDBRANCH   5  26
TORSDOF 6
ENDMDL
MODEL 2
REMARK VINA RESULT: -6.264857260      2.549      3.380
REMARK  6 active torsions:
REMARK  status: ('A' for Active; 'I' for Inactive)
REMARK    1  A    between atoms: N1_1  and  N2_4 
REMARK    2  A    between atoms: N2_4  and  N3_5 
REMARK    3  A    between atoms: N3_5  and  C1_7 
REMARK    4  A    between atoms: C4_11  and  O1_12 
REMARK    5  A    between atoms: C5_14  and  O2_15 
REMARK    6  A    between atoms: C6_17  and  C7_18 
REMARK       I    between atoms: C7_18  and  N4_20 
ROOT
HETATM    1  C1  UNL     1      -3.976   1.972  12.763  1.00  0.00     0.215 C 
HETATM    2  F1  UNL     1      -3.842   0.769  13.435  1.00  0.00    -0.216 F 
HETATM    3  C2  UNL     1      -2.769   2.102  11.862  1.00  0.00     0.072 C 
HETATM    4  C3  UNL     1      -2.732   3.421  11.141  1.00  0.00     0.039 C 
HETATM    5  C4  UNL     1      -3.490   4.515  11.803  1.00  0.00     0.148 C 
HETATM    6  C5  UNL     1      -3.486   4.368  13.305  1.00  0.00     0.165 C 
HETATM    7  C6  UNL     1      -4.028   3.058  13.799  1.00  0.00     0.172 C 
ENDROOT
BRANCH   7   8
HETATM    8  C7  UNL     1      -5.392   3.249  14.315  1.00  0.00     0.231 C 
HETATM    9  O3  UNL     1      -6.353   3.736  13.647  1.00  0.00    -0.273 OA
HETATM   10  N4  UNL     1      -5.674   2.870  15.654  1.00  0.00    -0.347 N 
HETATM   11  C8  UNL     1      -4.803   2.275  16.638  1.00  0.00     0.161 C 
HETATM   12  C11 UNL     1      -6.962   3.035  16.293  1.00  0.00     0.161 C 
HETATM   13  C9  UNL     1      -5.676   1.335  17.447  1.00  0.00     0.236 A 
HETATM   14  N5  UNL     1      -6.721   0.606  16.753  1.00  0.00    -0.059 N 
HETATM   15  C10 UNL     1      -7.040   1.912  17.270  1.00  0.00     0.236 A 
ATOM     16  H52 UNL     1      -6.789   0.176  15.830  1.00  0.00     0.278 HD
ATOM     17  H51 UNL     1      -7.134  -0.320  16.870  1.00  0.00     0.278 HD
ENDBRANCH   7   8
BRANCH   1  18
HETATM   18  N3  UNL     1      -5.166   1.861  11.948  1.00  0.00    -0.211 N 
ATOM     19  H3  UNL     1      -5.932   2.515  12.104  1.00  0.00     0.201 HD
BRANCH  18  20
HETATM   20  N2  UNL     1      -5.287   1.000  11.069  1.00  0.00    -0.245 NA
BRANCH  20  21
HETATM   21  N1  UNL     1      -5.196   0.062  10.270  1.00  0.00    -0.261 N 
ATOM     22  H12 UNL     1      -5.613   0.645   9.544  1.00  0.00     0.193 HD
ATOM     23  H11 UNL     1      -5.042  -0.810   9.763  1.00  0.00     0.193 HD
ENDBRANCH  20  21
ENDBRANCH  18  20
ENDBRANCH   1  18
BRANCH   6  24
HETATM   24  O2  UNL     1      -2.137   4.511  13.689  1.00  0.00    -0.392 OA
ATOM     25  H2  UNL     1      -1.830   5.288  13.237  1.00  0.00     0.210 HD
ENDBRANCH   6  24
BRANCH   5  26
HETATM   26  O1  UNL     1      -4.753   4.758  11.294  1.00  0.00    -0.393 OA
ATOM     27  H1  UNL     1      -4.913   5.649  11.004  1.00  0.00     0.210 HD
ENDBRANCH   5  26
TORSDOF 6
ENDMDL
MODEL 3
REMARK VINA RESULT: -6.176767897      2.668      3.664
REMARK  6 active torsions:
REMARK  status: ('A' for Active; 'I' for Inactive)
REMARK    1  A    between atoms: N1_1  and  N2_4 
REMARK    2  A    between atoms: N2_4  and  N3_5 
REMARK    3  A    between atoms: N3_5  and  C1_7 
REMARK    4  A    between atoms: C4_11  and  O1_12 
REMARK    5  A    between atoms: C5_14  and  O2_15 
REMARK    6  A    between atoms: C6_17  and  C7_18 
REMARK       I    between atoms: C7_18  and  N4_20 
ROOT
HETATM    1  C1  UNL     1      -3.367   2.672  11.645  1.00  0.00     0.215 C 
HETATM    2  F1  UNL     1      -2.748   1.559  12.187  1.00  0.00    -0.216 F 
HETATM    3  C2  UNL     1      -2.410   3.247  10.626  1.00  0.00     0.072 C 
HETATM    4  C3  UNL     1      -2.915   4.529  10.026  1.00  0.00     0.039 C 
HETATM    5  C4  UNL     1      -3.895   5.267  10.865  1.00  0.00     0.148 C 
HETATM    6  C5  UNL     1      -3.634   5.064  12.338  1.00  0.00     0.165 C 
HETATM    7  C6  UNL     1      -3.634   3.627  12.773  1.00  0.00     0.172 C 
ENDROOT
BRANCH   7   8
HETATM    8  C7  UNL     1      -4.898   3.316  13.458  1.00  0.00     0.231 C 
HETATM    9  O3  UNL     1      -6.049   3.486  12.955  1.00  0.00    -0.273 OA
HETATM   10  N4  UNL     1      -4.848   2.789  14.776  1.00  0.00    -0.347 N 
HETATM   11  C8  UNL     1      -3.701   2.470  15.589  1.00  0.00     0.161 C 
HETATM   12  C11 UNL     1      -6.016   2.473  15.571  1.00  0.00     0.161 C 
HETATM   13  C9  UNL     1      -4.094   1.246  16.394  1.00  0.00     0.236 A 
HETATM   14  N5  UNL     1      -4.929   0.247  15.754  1.00  0.00    -0.059 N 
HETATM   15  C10 UNL     1      -5.582   1.337  16.433  1.00  0.00     0.236 A 
ATOM     16  H52 UNL     1      -4.981  -0.128  14.807  1.00  0.00     0.278 HD
ATOM     17  H51 UNL     1      -4.994  -0.769  15.824  1.00  0.00     0.278 HD
ENDBRANCH   7   8
BRANCH   1  18
HETATM   18  N3  UNL     1      -4.552   2.196  10.966  1.00  0.00    -0.211 N 
ATOM     19  H3  UNL     1      -5.319   2.847  10.800  1.00  0.00     0.201 HD
BRANCH  18  20
HETATM   20  N2  UNL     1      -4.669   1.027  10.580  1.00  0.00    -0.245 NA
BRANCH  20  21
HETATM   21  N1  UNL     1      -5.020  -0.103  10.226  1.00  0.00    -0.261 N 
ATOM     22  H12 UNL     1      -5.783  -0.073  10.902  1.00  0.00     0.193 HD
ATOM     23  H11 UNL     1      -5.157  -1.024   9.809  1.00  0.00     0.193 HD
ENDBRANCH  20  21
ENDBRANCH  18  20
ENDBRANCH   1  18
BRANCH   6  24
HETATM   24  O2  UNL     1      -2.371   5.643  12.574  1.00  0.00    -0.392 OA
ATOM     25  H2  UNL     1      -2.553   6.497  12.947  1.00  0.00     0.210 HD
ENDBRANCH   6  24
BRANCH   5  26
HETATM   26  O1  UNL     1      -5.225   5.085  10.529  1.00  0.00    -0.393 OA
ATOM     27  H1  UNL     1      -5.397   4.395   9.899  1.00  0.00     0.210 HD
ENDBRANCH   5  26
TORSDOF 6
ENDMDL
MODEL 4
REMARK VINA RESULT: -6.020657611      2.080      2.828
REMARK  6 active torsions:
REMARK  status: ('A' for Active; 'I' for Inactive)
REMARK    1  A    between atoms: N1_1  and  N2_4 
REMARK    2  A    between atoms: N2_4  and  N3_5 
REMARK    3  A    between atoms: N3_5  and  C1_7 
REMARK    4  A    between atoms: C4_11  and  O1_12 
REMARK    5  A    between atoms: C5_14  and  O2_15 
REMARK    6  A    between atoms: C6_17  and  C7_18 
REMARK       I    between atoms: C7_18  and  N4_20 
ROOT
HETATM    1  C1  UNL     1      -2.243   4.458  12.199  1.00  0.00     0.215 C 
HETATM    2  F1  UNL     1      -2.151   4.859  13.521  1.00  0.00    -0.216 F 
HETATM    3  C2  UNL     1      -2.003   5.690  11.355  1.00  0.00     0.072 C 
HETATM    4  C3  UNL     1      -2.174   5.419   9.886  1.00  0.00     0.039 C 
HETATM    5  C4  UNL     1      -3.040   4.255   9.564  1.00  0.00     0.148 C 
HETATM    6  C5  UNL     1      -4.126   4.063  10.595  1.00  0.00     0.165 C 
HETATM    7  C6  UNL     1      -3.621   3.895  11.999  1.00  0.00     0.172 C 
ENDROOT
BRANCH   7   8
HETATM    8  C7  UNL     1      -3.688   2.478  12.384  1.00  0.00     0.231 C 
HETATM    9  O3  UNL     1      -3.131   1.533  11.748  1.00  0.00    -0.273 OA
HETATM   10  N4  UNL     1      -4.422   2.119  13.545  1.00  0.00    -0.347 N 
HETATM   11  C8  UNL     1      -5.134   2.964  14.472  1.00  0.00     0.161 C 
HETATM   12  C11 UNL     1      -4.594   0.761  14.013  1.00  0.00     0.161 C 
HETATM   13  C9  UNL     1      -4.962   2.318  15.834  1.00  0.00     0.236 A 
HETATM   14  N5  UNL     1      -3.691   1.686  16.134  1.00  0.00    -0.059 N 
HETATM   15  C10 UNL     1      -4.706   0.888  15.494  1.00  0.00     0.236 A 
ATOM     16  H52 UNL     1      -2.721   1.907  15.909  1.00  0.00     0.278 HD
ATOM     17  H51 UNL     1      -3.141   1.576  16.986  1.00  0.00     0.278 HD
ENDBRANCH   7   8
BRANCH   1  18
HETATM   18  N3  UNL     1      -1.169   3.515  11.977  1.00  0.00    -0.211 N 
ATOM     19  H3  UNL     1      -1.344   2.523  12.141  1.00  0.00     0.201 HD
BRANCH  18  20
HETATM   20  N2  UNL     1      -0.047   3.867  11.596  1.00  0.00    -0.245 NA
BRANCH  20  21
HETATM   21  N1  UNL     1       1.147   4.135  11.427  1.00  0.00    -0.261 N 
ATOM     22  H12 UNL     1       1.349   3.142  11.311  1.00  0.00     0.193 HD
ATOM     23  H11 UNL     1       2.075   4.543  11.313  1.00  0.00     0.193 HD
ENDBRANCH  20  21
ENDBRANCH  18  20
ENDBRANCH   1  18
BRANCH   6  24
HETATM   24  O2  UNL     1      -4.933   5.215  10.504  1.00  0.00    -0.392 OA
ATOM     25  H2  UNL     1      -5.643   4.976   9.921  1.00  0.00     0.210 HD
ENDBRANCH   6  24
BRANCH   5  26
HETATM   26  O1  UNL     1      -2.373   3.080   9.265  1.00  0.00    -0.393 OA
ATOM     27  H1  UNL     1      -2.759   2.555   8.574  1.00  0.00     0.210 HD
ENDBRANCH   5  26
TORSDOF 6
ENDMDL
MODEL 5
REMARK VINA RESULT: -5.806465396      2.669      3.677
REMARK  6 active torsions:
REMARK  status: ('A' for Active; 'I' for Inactive)
REMARK    1  A    between atoms: N1_1  and  N2_4 
REMARK    2  A    between atoms: N2_4  and  N3_5 
REMARK    3  A    between atoms: N3_5  and  C1_7 
REMARK    4  A    between atoms: C4_11  and  O1_12 
REMARK    5  A    between atoms: C5_14  and  O2_15 
REMARK    6  A    between atoms: C6_17  and  C7_18 
REMARK       I    between atoms: C7_18  and  N4_20 
ROOT
HETATM    1  C1  UNL     1      -3.645   3.805  12.166  1.00  0.00     0.215 C 
HETATM    2  F1  UNL     1      -2.872   2.691  12.445  1.00  0.00    -0.216 F 
HETATM    3  C2  UNL     1      -2.785   4.735  11.340  1.00  0.00     0.072 C 
HETATM    4  C3  UNL     1      -3.470   6.040  11.048  1.00  0.00     0.039 C 
HETATM    5  C4  UNL     1      -4.539   6.413  12.011  1.00  0.00     0.148 C 
HETATM    6  C5  UNL     1      -4.243   5.901  13.400  1.00  0.00     0.165 C 
HETATM    7  C6  UNL     1      -4.038   4.416  13.480  1.00  0.00     0.172 C 
ENDROOT
BRANCH   7   8
HETATM    8  C7  UNL     1      -5.241   3.779  14.036  1.00  0.00     0.231 C 
HETATM    9  O3  UNL     1      -6.413   3.931  13.578  1.00  0.00    -0.273 OA
HETATM   10  N4  UNL     1      -5.103   2.930  15.166  1.00  0.00    -0.347 N 
HETATM   11  C8  UNL     1      -3.911   2.551  15.884  1.00  0.00     0.161 C 
HETATM   12  C11 UNL     1      -6.208   2.270  15.829  1.00  0.00     0.161 C 
HETATM   13  C9  UNL     1      -4.134   1.118  16.327  1.00  0.00     0.236 A 
HETATM   14  N5  UNL     1      -4.849   0.229  15.430  1.00  0.00    -0.059 N 
HETATM   15  C10 UNL     1      -5.622   1.009  16.364  1.00  0.00     0.236 A 
ATOM     16  H52 UNL     1      -4.871   0.117  14.416  1.00  0.00     0.278 HD
ATOM     17  H51 UNL     1      -4.786  -0.768  15.225  1.00  0.00     0.278 HD
ENDBRANCH   7   8
BRANCH   1  18
HETATM   18  N3  UNL     1      -4.755   3.346  11.360  1.00  0.00    -0.211 N 
ATOM     19  H3  UNL     1      -5.485   4.011  11.103  1.00  0.00     0.201 HD
BRANCH  18  20
HETATM   20  N2  UNL     1      -4.853   2.176  10.972  1.00  0.00    -0.245 NA
BRANCH  20  21
HETATM   21  N1  UNL     1      -5.077   0.976  10.785  1.00  0.00    -0.261 N 
ATOM     22  H12 UNL     1      -4.164   0.748  11.178  1.00  0.00     0.193 HD
ATOM     23  H11 UNL     1      -5.435   0.048  10.558  1.00  0.00     0.193 HD
ENDBRANCH  20  21
ENDBRANCH  18  20
ENDBRANCH   1  18
BRANCH   6  24
HETATM   24  O2  UNL     1      -3.072   6.576  13.802  1.00  0.00    -0.392 OA
ATOM     25  H2  UNL     1      -2.703   6.043  14.496  1.00  0.00     0.210 HD
ENDBRANCH   6  24
BRANCH   5  26
HETATM   26  O1  UNL     1      -5.832   6.135  11.604  1.00  0.00    -0.393 OA
ATOM     27  H1  UNL     1      -6.207   6.749  10.984  1.00  0.00     0.210 HD
ENDBRANCH   5  26
TORSDOF 6
ENDMDL
