MODEL 1
REMARK VINA RESULT: -7.588020641      0.000      0.000
REMARK  4 active torsions:
REMARK  status: ('A' for Active; 'I' for Inactive)
REMARK    1  A    between atoms: C4_4  and  C5_5 
REMARK    2  A    between atoms: C7_9  and  C8_10 
REMARK    3  A    between atoms: C13_18  and  O2_19 
REMARK    4  A    between atoms: C14_21  and  O3_22 
ROOT
HETATM    1  C1  UNL     1       0.876   3.639   9.789  1.00  0.00     0.017 C 
HETATM    2  C2  UNL     1      -0.029   3.828  10.556  1.00  0.00    -0.090 C 
HETATM    3  C3  UNL     1      -1.124   4.061  11.484  1.00  0.00     0.064 C 
HETATM    4  C4  UNL     1      -2.340   3.638  11.206  1.00  0.00     0.042 C 
ENDROOT
BRANCH   4   5
HETATM    5  C5  UNL     1      -3.430   3.887  12.160  1.00  0.00     0.289 C 
HETATM    6  O1  UNL     1      -3.575   5.240  12.447  1.00  0.00    -0.321 OA
HETATM    7  C6  UNL     1      -4.382   5.197  13.589  1.00  0.00     0.341 C 
HETATM    8  F1  UNL     1      -5.678   5.036  13.158  1.00  0.00    -0.217 F 
HETATM    9  C7  UNL     1      -3.851   4.003  14.315  1.00  0.00     0.218 C 
HETATM   10  O4  UNL     1      -3.185   3.244  13.351  1.00  0.00    -0.345 OA
BRANCH   9  11
HETATM   11  C8  UNL     1      -4.970   3.186  14.963  1.00  0.00     0.251 C 
HETATM   12  N1  UNL     1      -5.568   4.018  15.959  1.00  0.00    -0.061 N 
HETATM   13  C9  UNL     1      -6.661   3.417  16.634  1.00  0.00     0.193 C 
ATOM     14  H12 UNL     1      -4.866   4.337  16.627  1.00  0.00     0.278 HD
ATOM     15  H11 UNL     1      -5.843   4.914  15.558  1.00  0.00     0.278 HD
HETATM   16  C10 UNL     1      -6.790   4.007  18.046  1.00  0.00     0.034 C 
HETATM   17  C12 UNL     1      -6.362   2.091  17.192  1.00  0.00     0.048 C 
HETATM   18  C11 UNL     1      -6.097   2.760  18.547  1.00  0.00     0.011 C 
HETATM   19  C13 UNL     1      -5.198   1.364  16.684  1.00  0.00     0.155 C 
HETATM   20  C14 UNL     1      -4.375   1.982  15.635  1.00  0.00     0.180 C 
BRANCH  19  21
HETATM   21  O2  UNL     1      -5.647   0.108  16.206  1.00  0.00    -0.392 OA
ATOM     22  H2  UNL     1      -5.744   0.176  15.264  1.00  0.00     0.210 HD
ENDBRANCH  19  21
BRANCH  20  23
HETATM   23  O3  UNL     1      -4.030   1.077  14.614  1.00  0.00    -0.391 OA
ATOM     24  H3  UNL     1      -4.737   0.445  14.557  1.00  0.00     0.210 HD
ENDBRANCH  20  23
ENDBRANCH   9  11
ENDBRANCH   4   5
TORSDOF 4
ENDMDL
MODEL 2
REMARK VINA RESULT: -7.560882798      1.065      1.076
REMARK  4 active torsions:
REMARK  status: ('A' for Active; 'I' for Inactive)
REMARK    1  A    between atoms: C4_4  and  C5_5 
REMARK    2  A    between atoms: C7_9  and  C8_10 
REMARK    3  A    between atoms: C13_18  and  O2_19 
REMARK    4  A    between atoms: C14_21  and  O3_22 
ROOT
HETATM    1  C1  UNL     1      -1.296   3.994   8.017  1.00  0.00     0.017 C 
HETATM    2  C2  UNL     1      -2.023   4.186   8.953  1.00  0.00    -0.090 C 
HETATM    3  C3  UNL     1      -2.908   4.421  10.084  1.00  0.00     0.064 C 
HETATM    4  C4  UNL     1      -3.164   3.458  10.944  1.00  0.00     0.042 C 
ENDROOT
BRANCH   4   5
HETATM    5  C5  UNL     1      -4.062   3.720  12.079  1.00  0.00     0.289 C 
HETATM    6  O1  UNL     1      -4.043   5.056  12.463  1.00  0.00    -0.321 OA
HETATM    7  C6  UNL     1      -4.658   4.993  13.718  1.00  0.00     0.341 C 
HETATM    8  F1  UNL     1      -6.014   4.961  13.499  1.00  0.00    -0.217 F 
HETATM    9  C7  UNL     1      -4.121   3.714  14.276  1.00  0.00     0.218 C 
HETATM   10  O4  UNL     1      -3.686   2.978  13.174  1.00  0.00    -0.345 OA
BRANCH   9  11
HETATM   11  C8  UNL     1      -5.188   2.939  15.052  1.00  0.00     0.251 C 
HETATM   12  N1  UNL     1      -5.694   3.822  16.056  1.00  0.00    -0.061 N 
HETATM   13  C9  UNL     1      -6.732   3.264  16.846  1.00  0.00     0.193 C 
ATOM     14  H12 UNL     1      -4.937   4.162  16.648  1.00  0.00     0.278 HD
ATOM     15  H11 UNL     1      -5.995   4.703  15.639  1.00  0.00     0.278 HD
HETATM   16  C10 UNL     1      -6.737   3.918  18.235  1.00  0.00     0.034 C 
HETATM   17  C12 UNL     1      -6.397   1.961  17.437  1.00  0.00     0.048 C 
HETATM   18  C11 UNL     1      -6.013   2.687  18.734  1.00  0.00     0.011 C 
HETATM   19  C13 UNL     1      -5.284   1.200  16.867  1.00  0.00     0.155 C 
HETATM   20  C14 UNL     1      -4.548   1.760  15.726  1.00  0.00     0.180 C 
BRANCH  19  21
HETATM   21  O2  UNL     1      -5.782  -0.071  16.486  1.00  0.00    -0.392 OA
ATOM     22  H2  UNL     1      -5.084  -0.704  16.610  1.00  0.00     0.210 HD
ENDBRANCH  19  21
BRANCH  20  23
HETATM   23  O3  UNL     1      -4.296   0.806  14.722  1.00  0.00    -0.391 OA
ATOM     24  H3  UNL     1      -3.483   0.373  14.954  1.00  0.00     0.210 HD
ENDBRANCH  20  23
ENDBRANCH   9  11
ENDBRANCH   4   5
TORSDOF 4
ENDMDL
MODEL 3
REMARK VINA RESULT: -7.429497746      2.644      4.045
REMARK  4 active torsions:
REMARK  status: ('A' for Active; 'I' for Inactive)
REMARK    1  A    between atoms: C4_4  and  C5_5 
REMARK    2  A    between atoms: C7_9  and  C8_10 
REMARK    3  A    between atoms: C13_18  and  O2_19 
REMARK    4  A    between atoms: C14_21  and  O3_22 
ROOT
HETATM    1  C1  UNL     1      -7.055   8.874   9.966  1.00  0.00     0.017 C 
HETATM    2  C2  UNL     1      -6.640   8.053  10.738  1.00  0.00    -0.090 C 
HETATM    3  C3  UNL     1      -6.141   7.054  11.671  1.00  0.00     0.064 C 
HETATM    4  C4  UNL     1      -4.858   6.762  11.715  1.00  0.00     0.042 C 
ENDROOT
BRANCH   4   5
HETATM    5  C5  UNL     1      -4.379   5.748  12.666  1.00  0.00     0.289 C 
HETATM    6  O1  UNL     1      -3.521   4.833  12.066  1.00  0.00    -0.321 OA
HETATM    7  C6  UNL     1      -3.489   3.813  13.024  1.00  0.00     0.341 C 
HETATM    8  F1  UNL     1      -2.586   4.196  13.987  1.00  0.00    -0.217 F 
HETATM    9  C7  UNL     1      -4.901   3.790  13.518  1.00  0.00     0.218 C 
HETATM   10  O4  UNL     1      -5.434   5.036  13.185  1.00  0.00    -0.345 OA
BRANCH   9  11
HETATM   11  C8  UNL     1      -4.972   3.560  15.028  1.00  0.00     0.251 C 
HETATM   12  N1  UNL     1      -4.947   2.146  15.235  1.00  0.00    -0.061 N 
HETATM   13  C9  UNL     1      -4.966   1.761  16.600  1.00  0.00     0.193 C 
ATOM     14  H12 UNL     1      -5.707   1.696  14.725  1.00  0.00     0.278 HD
ATOM     15  H11 UNL     1      -4.149   1.729  14.756  1.00  0.00     0.278 HD
HETATM   16  C10 UNL     1      -5.609   0.374  16.740  1.00  0.00     0.034 C 
HETATM   17  C12 UNL     1      -6.056   2.369  17.375  1.00  0.00     0.048 C 
HETATM   18  C11 UNL     1      -6.873   1.087  17.165  1.00  0.00     0.011 C 
HETATM   19  C13 UNL     1      -6.721   3.556  16.837  1.00  0.00     0.155 C 
HETATM   20  C14 UNL     1      -6.274   4.099  15.547  1.00  0.00     0.180 C 
BRANCH  19  21
HETATM   21  O2  UNL     1      -6.618   4.585  17.806  1.00  0.00    -0.392 OA
ATOM     22  H2  UNL     1      -5.966   5.205  17.500  1.00  0.00     0.210 HD
ENDBRANCH  19  21
BRANCH  20  23
HETATM   23  O3  UNL     1      -6.155   5.502  15.561  1.00  0.00    -0.391 OA
ATOM     24  H3  UNL     1      -6.152   5.767  16.474  1.00  0.00     0.210 HD
ENDBRANCH  20  23
ENDBRANCH   9  11
ENDBRANCH   4   5
TORSDOF 4
ENDMDL
MODEL 4
REMARK VINA RESULT: -7.312537438      2.410      3.327
REMARK  4 active torsions:
REMARK  status: ('A' for Active; 'I' for Inactive)
REMARK    1  A    between atoms: C4_4  and  C5_5 
REMARK    2  A    between atoms: C7_9  and  C8_10 
REMARK    3  A    between atoms: C13_18  and  O2_19 
REMARK    4  A    between atoms: C14_21  and  O3_22 
ROOT
HETATM    1  C1  UNL     1      -6.523   8.582  10.492  1.00  0.00     0.017 C 
HETATM    2  C2  UNL     1      -6.359   7.698  11.288  1.00  0.00    -0.090 C 
HETATM    3  C3  UNL     1      -6.165   6.623  12.250  1.00  0.00     0.064 C 
HETATM    4  C4  UNL     1      -4.984   6.059  12.394  1.00  0.00     0.042 C 
ENDROOT
BRANCH   4   5
HETATM    5  C5  UNL     1      -4.813   4.975  13.372  1.00  0.00     0.289 C 
HETATM    6  O1  UNL     1      -3.532   4.437  13.337  1.00  0.00    -0.321 OA
HETATM    7  C6  UNL     1      -3.710   3.249  14.054  1.00  0.00     0.341 C 
HETATM    8  F1  UNL     1      -3.657   3.574  15.388  1.00  0.00    -0.217 F 
HETATM    9  C7  UNL     1      -5.067   2.804  13.610  1.00  0.00     0.218 C 
HETATM   10  O4  UNL     1      -5.691   3.948  13.112  1.00  0.00    -0.345 OA
BRANCH   9  11
HETATM   11  C8  UNL     1      -5.877   2.208  14.763  1.00  0.00     0.251 C 
HETATM   12  N1  UNL     1      -6.242   3.294  15.617  1.00  0.00    -0.061 N 
HETATM   13  C9  UNL     1      -7.041   2.913  16.727  1.00  0.00     0.193 C 
ATOM     14  H12 UNL     1      -5.413   3.799  15.929  1.00  0.00     0.278 HD
ATOM     15  H11 UNL     1      -6.701   4.031  15.082  1.00  0.00     0.278 HD
HETATM   16  C10 UNL     1      -6.819   3.892  17.888  1.00  0.00     0.034 C 
HETATM   17  C12 UNL     1      -6.475   1.812  17.518  1.00  0.00     0.048 C 
HETATM   18  C11 UNL     1      -5.900   2.852  18.489  1.00  0.00     0.011 C 
HETATM   19  C13 UNL     1      -5.440   0.974  16.912  1.00  0.00     0.155 C 
HETATM   20  C14 UNL     1      -5.007   1.259  15.536  1.00  0.00     0.180 C 
BRANCH  19  21
HETATM   21  O2  UNL     1      -5.888  -0.369  16.961  1.00  0.00    -0.392 OA
ATOM     22  H2  UNL     1      -6.653  -0.439  16.401  1.00  0.00     0.210 HD
ENDBRANCH  19  21
BRANCH  20  23
HETATM   23  O3  UNL     1      -4.883   0.095  14.755  1.00  0.00    -0.391 OA
ATOM     24  H3  UNL     1      -4.914  -0.642  15.354  1.00  0.00     0.210 HD
ENDBRANCH  20  23
ENDBRANCH   9  11
ENDBRANCH   4   5
TORSDOF 4
ENDMDL
MODEL 5
REMARK VINA RESULT: -6.972864866      1.770      1.908
REMARK  4 active torsions:
REMARK  status: ('A' for Active; 'I' for Inactive)
REMARK    1  A    between atoms: C4_4  and  C5_5 
REMARK    2  A    between atoms: C7_9  and  C8_10 
REMARK    3  A    between atoms: C13_18  and  O2_19 
REMARK    4  A    between atoms: C14_21  and  O3_22 
ROOT
HETATM    1  C1  UNL     1      -2.628   6.097   7.784  1.00  0.00     0.017 C 
HETATM    2  C2  UNL     1      -3.314   5.928   8.755  1.00  0.00    -0.090 C 
HETATM    3  C3  UNL     1      -4.150   5.721   9.928  1.00  0.00     0.064 C 
HETATM    4  C4  UNL     1      -3.732   4.966  10.922  1.00  0.00     0.042 C 
ENDROOT
BRANCH   4   5
HETATM    5  C5  UNL     1      -4.595   4.771  12.097  1.00  0.00     0.289 C 
HETATM    6  O1  UNL     1      -4.875   5.970  12.743  1.00  0.00    -0.321 OA
HETATM    7  C6  UNL     1      -5.378   5.515  13.967  1.00  0.00     0.341 C 
HETATM    8  F1  UNL     1      -6.697   5.188  13.762  1.00  0.00    -0.217 F 
HETATM    9  C7  UNL     1      -4.515   4.327  14.249  1.00  0.00     0.218 C 
HETATM   10  O4  UNL     1      -3.983   3.949  13.014  1.00  0.00    -0.345 OA
BRANCH   9  11
HETATM   11  C8  UNL     1      -5.312   3.176  14.864  1.00  0.00     0.251 C 
HETATM   12  N1  UNL     1      -5.902   3.676  16.066  1.00  0.00    -0.061 N 
HETATM   13  C9  UNL     1      -6.717   2.734  16.745  1.00  0.00     0.193 C 
ATOM     14  H12 UNL     1      -5.186   4.045  16.690  1.00  0.00     0.278 HD
ATOM     15  H11 UNL     1      -6.424   4.532  15.878  1.00  0.00     0.278 HD
HETATM   16  C10 UNL     1      -6.736   3.050  18.247  1.00  0.00     0.034 C 
HETATM   17  C12 UNL     1      -6.055   1.448  17.001  1.00  0.00     0.048 C 
HETATM   18  C11 UNL     1      -5.720   1.943  18.415  1.00  0.00     0.011 C 
HETATM   19  C13 UNL     1      -4.862   1.108  16.226  1.00  0.00     0.155 C 
HETATM   20  C14 UNL     1      -4.372   2.060  15.218  1.00  0.00     0.180 C 
BRANCH  19  21
HETATM   21  O2  UNL     1      -5.105  -0.129  15.579  1.00  0.00    -0.392 OA
ATOM     22  H2  UNL     1      -4.863  -0.030  14.666  1.00  0.00     0.210 HD
ENDBRANCH  19  21
BRANCH  20  23
HETATM   23  O3  UNL     1      -4.014   1.433  14.010  1.00  0.00    -0.391 OA
ATOM     24  H3  UNL     1      -3.513   0.659  14.241  1.00  0.00     0.210 HD
ENDBRANCH  20  23
ENDBRANCH   9  11
ENDBRANCH   4   5
TORSDOF 4
ENDMDL
