MODEL 1
REMARK VINA RESULT: -6.367446349      0.000      0.000
REMARK  5 active torsions:
REMARK  status: ('A' for Active; 'I' for Inactive)
REMARK    1  A    between atoms: C3_3  and  C4_4 
REMARK    2  A    between atoms: N1_8  and  C7_9 
REMARK    3  A    between atoms: C9_12  and  O2_13 
REMARK    4  A    between atoms: C10_15  and  O3_16 
REMARK    5  A    between atoms: C11_18  and  O4_19 
ROOT
HETATM    1  C1  UNL     1      -6.312   3.611  17.855  1.00  0.00     0.012 C 
HETATM    2  C2  UNL     1      -6.300   3.267  16.690  1.00  0.00    -0.116 C 
HETATM    3  C3  UNL     1      -6.304   2.861  15.284  1.00  0.00     0.118 C 
ENDROOT
BRANCH   3   4
HETATM    4  C4  UNL     1      -4.877   2.600  14.841  1.00  0.00     0.050 C 
HETATM    5 CL1  UNL     1      -4.062   1.699  16.163  1.00  0.00    -0.118 Cl
HETATM    6  C5  UNL     1      -4.137   3.898  14.595  1.00  0.00     0.057 C 
HETATM    7  C6  UNL     1      -4.442   4.341  13.184  1.00  0.00     0.278 C 
HETATM    8  N1  UNL     1      -3.870   3.487  12.187  1.00  0.00     0.120 N 
HETATM    9  C12 UNL     1      -3.588   2.203  12.743  1.00  0.00     0.278 C 
HETATM   10  C13 UNL     1      -4.778   1.765  13.610  1.00  0.00     0.057 C 
BRANCH   8  11
HETATM   11  C7  UNL     1      -2.692   4.093  11.543  1.00  0.00     0.390 C 
HETATM   12  O1  UNL     1      -1.529   3.714  12.122  1.00  0.00    -0.352 OA
HETATM   13  C8  UNL     1      -0.489   3.314  11.355  1.00  0.00     0.205 C 
HETATM   14  C9  UNL     1      -0.403   4.070  10.022  1.00  0.00     0.173 C 
HETATM   15  C10 UNL     1      -1.644   3.612   9.286  1.00  0.00     0.182 C 
HETATM   16  C11 UNL     1      -2.847   3.972  10.080  1.00  0.00     0.208 C 
BRANCH  14  17
HETATM   17  O2  UNL     1       0.752   3.622   9.364  1.00  0.00    -0.391 OA
ATOM     18  H2  UNL     1       1.030   2.824   9.798  1.00  0.00     0.210 HD
ENDBRANCH  14  17
BRANCH  15  19
HETATM   19  O3  UNL     1      -1.677   4.200   8.032  1.00  0.00    -0.390 OA
ATOM     20  H3  UNL     1      -1.943   3.554   7.388  1.00  0.00     0.210 HD
ENDBRANCH  15  19
BRANCH  16  21
HETATM   21  O4  UNL     1      -3.824   2.988   9.788  1.00  0.00    -0.388 OA
ATOM     22  H4  UNL     1      -3.649   2.612   8.933  1.00  0.00     0.210 HD
ENDBRANCH  16  21
ENDBRANCH   8  11
ENDBRANCH   3   4
TORSDOF 5
ENDMDL
MODEL 2
REMARK VINA RESULT: -6.265677942      4.012      6.660
REMARK  5 active torsions:
REMARK  status: ('A' for Active; 'I' for Inactive)
REMARK    1  A    between atoms: C3_3  and  C4_4 
REMARK    2  A    between atoms: N1_8  and  C7_9 
REMARK    3  A    between atoms: C9_12  and  O2_13 
REMARK    4  A    between atoms: C10_15  and  O3_16 
REMARK    5  A    between atoms: C11_18  and  O4_19 
ROOT
HETATM    1  C1  UNL     1      -1.660   9.118  12.256  1.00  0.00     0.012 C 
HETATM    2  C2  UNL     1      -2.563   8.342  12.016  1.00  0.00    -0.116 C 
HETATM    3  C3  UNL     1      -3.659   7.421  11.713  1.00  0.00     0.118 C 
ENDROOT
BRANCH   3   4
HETATM    4  C4  UNL     1      -3.226   6.008  12.057  1.00  0.00     0.050 C 
HETATM    5 CL1  UNL     1      -1.905   5.562  10.926  1.00  0.00    -0.118 Cl
HETATM    6  C5  UNL     1      -4.372   5.032  11.892  1.00  0.00     0.057 C 
HETATM    7  C6  UNL     1      -5.175   5.044  13.172  1.00  0.00     0.278 C 
HETATM    8  N1  UNL     1      -4.472   4.482  14.286  1.00  0.00     0.120 N 
HETATM    9  C12 UNL     1      -3.066   4.507  14.042  1.00  0.00     0.278 C 
HETATM   10  C13 UNL     1      -2.689   5.868  13.441  1.00  0.00     0.057 C 
BRANCH   8  11
HETATM   11  C7  UNL     1      -4.961   3.137  14.632  1.00  0.00     0.390 C 
HETATM   12  O1  UNL     1      -3.956   2.274  14.914  1.00  0.00    -0.352 OA
HETATM   13  C8  UNL     1      -4.028   1.485  16.010  1.00  0.00     0.205 C 
HETATM   14  C9  UNL     1      -5.461   1.034  16.330  1.00  0.00     0.173 C 
HETATM   15  C10 UNL     1      -6.149   2.325  16.718  1.00  0.00     0.182 C 
HETATM   16  C11 UNL     1      -6.082   3.279  15.580  1.00  0.00     0.208 C 
BRANCH  14  17
HETATM   17  O2  UNL     1      -5.387   0.167  17.429  1.00  0.00    -0.391 OA
ATOM     18  H2  UNL     1      -6.123   0.368  17.995  1.00  0.00     0.210 HD
ENDBRANCH  14  17
BRANCH  15  19
HETATM   19  O3  UNL     1      -7.463   2.056  17.069  1.00  0.00    -0.390 OA
ATOM     20  H3  UNL     1      -7.521   1.173  17.416  1.00  0.00     0.210 HD
ENDBRANCH  15  19
BRANCH  16  21
HETATM   21  O4  UNL     1      -6.058   4.575  16.152  1.00  0.00    -0.388 OA
ATOM     22  H4  UNL     1      -6.084   4.505  17.099  1.00  0.00     0.210 HD
ENDBRANCH  16  21
ENDBRANCH   8  11
ENDBRANCH   3   4
TORSDOF 5
ENDMDL
MODEL 3
REMARK VINA RESULT: -6.263238736      1.756      2.576
REMARK  5 active torsions:
REMARK  status: ('A' for Active; 'I' for Inactive)
REMARK    1  A    between atoms: C3_3  and  C4_4 
REMARK    2  A    between atoms: N1_8  and  C7_9 
REMARK    3  A    between atoms: C9_12  and  O2_13 
REMARK    4  A    between atoms: C10_15  and  O3_16 
REMARK    5  A    between atoms: C11_18  and  O4_19 
ROOT
HETATM    1  C1  UNL     1      -7.446   1.279  16.931  1.00  0.00     0.012 C 
HETATM    2  C2  UNL     1      -6.341   1.605  16.544  1.00  0.00    -0.116 C 
HETATM    3  C3  UNL     1      -5.004   1.978  16.082  1.00  0.00     0.118 C 
ENDROOT
BRANCH   3   4
HETATM    4  C4  UNL     1      -5.112   3.204  15.194  1.00  0.00     0.050 C 
HETATM    5 CL1  UNL     1      -6.047   4.441  16.100  1.00  0.00    -0.118 Cl
HETATM    6  C5  UNL     1      -5.836   2.880  13.905  1.00  0.00     0.057 C 
HETATM    7  C6  UNL     1      -4.820   2.327  12.933  1.00  0.00     0.278 C 
HETATM    8  N1  UNL     1      -3.868   3.303  12.495  1.00  0.00     0.120 N 
HETATM    9  C12 UNL     1      -3.807   4.383  13.426  1.00  0.00     0.278 C 
HETATM   10  C13 UNL     1      -3.794   3.810  14.851  1.00  0.00     0.057 C 
BRANCH   8  11
HETATM   11  C7  UNL     1      -4.130   3.758  11.120  1.00  0.00     0.390 C 
HETATM   12  O1  UNL     1      -4.565   5.039  11.069  1.00  0.00    -0.352 OA
HETATM   13  C8  UNL     1      -4.024   5.904  10.179  1.00  0.00     0.205 C 
HETATM   14  C9  UNL     1      -3.638   5.233   8.852  1.00  0.00     0.173 C 
HETATM   15  C10 UNL     1      -2.507   4.309   9.252  1.00  0.00     0.182 C 
HETATM   16  C11 UNL     1      -2.998   3.342  10.268  1.00  0.00     0.208 C 
BRANCH  14  17
HETATM   17  O2  UNL     1      -3.169   6.242   7.999  1.00  0.00    -0.391 OA
ATOM     18  H2  UNL     1      -2.532   6.750   8.487  1.00  0.00     0.210 HD
ENDBRANCH  14  17
BRANCH  15  19
HETATM   19  O3  UNL     1      -2.032   3.654   8.126  1.00  0.00    -0.390 OA
ATOM     20  H3  UNL     1      -1.514   2.904   8.395  1.00  0.00     0.210 HD
ENDBRANCH  15  19
BRANCH  16  21
HETATM   21  O4  UNL     1      -1.884   3.024  11.083  1.00  0.00    -0.388 OA
ATOM     22  H4  UNL     1      -1.094   3.380  10.693  1.00  0.00     0.210 HD
ENDBRANCH  16  21
ENDBRANCH   8  11
ENDBRANCH   3   4
TORSDOF 5
ENDMDL
MODEL 4
REMARK VINA RESULT: -6.187191400      3.471      6.716
REMARK  5 active torsions:
REMARK  status: ('A' for Active; 'I' for Inactive)
REMARK    1  A    between atoms: C3_3  and  C4_4 
REMARK    2  A    between atoms: N1_8  and  C7_9 
REMARK    3  A    between atoms: C9_12  and  O2_13 
REMARK    4  A    between atoms: C10_15  and  O3_16 
REMARK    5  A    between atoms: C11_18  and  O4_19 
ROOT
HETATM    1  C1  UNL     1      -1.762   4.029   8.193  1.00  0.00     0.012 C 
HETATM    2  C2  UNL     1      -2.133   4.603   9.197  1.00  0.00    -0.116 C 
HETATM    3  C3  UNL     1      -2.591   5.307  10.395  1.00  0.00     0.118 C 
ENDROOT
BRANCH   3   4
HETATM    4  C4  UNL     1      -2.320   4.441  11.611  1.00  0.00     0.050 C 
HETATM    5 CL1  UNL     1      -0.554   4.120  11.658  1.00  0.00    -0.118 Cl
HETATM    6  C5  UNL     1      -3.061   3.124  11.518  1.00  0.00     0.057 C 
HETATM    7  C6  UNL     1      -4.459   3.344  12.047  1.00  0.00     0.278 C 
HETATM    8  N1  UNL     1      -4.495   3.599  13.456  1.00  0.00     0.120 N 
HETATM    9  C12 UNL     1      -3.222   4.061  13.905  1.00  0.00     0.278 C 
HETATM   10  C13 UNL     1      -2.685   5.092  12.901  1.00  0.00     0.057 C 
BRANCH   8  11
HETATM   11  C7  UNL     1      -4.975   2.436  14.221  1.00  0.00     0.390 C 
HETATM   12  O1  UNL     1      -3.964   1.713  14.757  1.00  0.00    -0.352 OA
HETATM   13  C8  UNL     1      -4.024   1.319  16.050  1.00  0.00     0.205 C 
HETATM   14  C9  UNL     1      -5.453   0.989  16.509  1.00  0.00     0.173 C 
HETATM   15  C10 UNL     1      -6.145   2.335  16.467  1.00  0.00     0.182 C 
HETATM   16  C11 UNL     1      -6.091   2.872  15.082  1.00  0.00     0.208 C 
BRANCH  14  17
HETATM   17  O2  UNL     1      -5.367   0.523  17.828  1.00  0.00    -0.391 OA
ATOM     18  H2  UNL     1      -4.453   0.567  18.084  1.00  0.00     0.210 HD
ENDBRANCH  14  17
BRANCH  15  19
HETATM   19  O3  UNL     1      -7.455   2.190  16.896  1.00  0.00    -0.390 OA
ATOM     20  H3  UNL     1      -7.726   1.286  16.777  1.00  0.00     0.210 HD
ENDBRANCH  15  19
BRANCH  16  21
HETATM   21  O4  UNL     1      -6.070   4.283  15.206  1.00  0.00    -0.388 OA
ATOM     22  H4  UNL     1      -5.186   4.601  15.065  1.00  0.00     0.210 HD
ENDBRANCH  16  21
ENDBRANCH   8  11
ENDBRANCH   3   4
TORSDOF 5
ENDMDL
MODEL 5
REMARK VINA RESULT: -6.056669764      3.457      5.434
REMARK  5 active torsions:
REMARK  status: ('A' for Active; 'I' for Inactive)
REMARK    1  A    between atoms: C3_3  and  C4_4 
REMARK    2  A    between atoms: N1_8  and  C7_9 
REMARK    3  A    between atoms: C9_12  and  O2_13 
REMARK    4  A    between atoms: C10_15  and  O3_16 
REMARK    5  A    between atoms: C11_18  and  O4_19 
ROOT
HETATM    1  C1  UNL     1       0.886   9.501  13.321  1.00  0.00     0.012 C 
HETATM    2  C2  UNL     1      -0.225   9.190  12.938  1.00  0.00    -0.116 C 
HETATM    3  C3  UNL     1      -1.558   8.825  12.459  1.00  0.00     0.118 C 
ENDROOT
BRANCH   3   4
HETATM    4  C4  UNL     1      -2.049   7.618  13.235  1.00  0.00     0.050 C 
HETATM    5 CL1  UNL     1      -1.968   8.033  14.980  1.00  0.00    -0.118 Cl
HETATM    6  C5  UNL     1      -1.177   6.409  12.971  1.00  0.00     0.057 C 
HETATM    7  C6  UNL     1      -1.681   5.743  11.712  1.00  0.00     0.278 C 
HETATM    8  N1  UNL     1      -2.971   5.142  11.869  1.00  0.00     0.120 N 
HETATM    9  C12 UNL     1      -3.654   5.726  12.978  1.00  0.00     0.278 C 
HETATM   10  C13 UNL     1      -3.462   7.249  12.934  1.00  0.00     0.057 C 
BRANCH   8  11
HETATM   11  C7  UNL     1      -2.895   3.675  11.964  1.00  0.00     0.390 C 
HETATM   12  O1  UNL     1      -3.118   3.221  13.220  1.00  0.00    -0.352 OA
HETATM   13  C8  UNL     1      -3.962   2.185  13.426  1.00  0.00     0.205 C 
HETATM   14  C9  UNL     1      -3.923   1.147  12.294  1.00  0.00     0.173 C 
HETATM   15  C10 UNL     1      -4.496   1.903  11.115  1.00  0.00     0.182 C 
HETATM   16  C11 UNL     1      -3.652   3.094  10.838  1.00  0.00     0.208 C 
BRANCH  14  17
HETATM   17  O2  UNL     1      -4.774   0.096  12.665  1.00  0.00    -0.391 OA
ATOM     18  H2  UNL     1      -5.535   0.138  12.098  1.00  0.00     0.210 HD
ENDBRANCH  14  17
BRANCH  15  19
HETATM   19  O3  UNL     1      -4.551   1.063  10.015  1.00  0.00    -0.390 OA
ATOM     20  H3  UNL     1      -3.671   0.911   9.690  1.00  0.00     0.210 HD
ENDBRANCH  15  19
BRANCH  16  21
HETATM   21  O4  UNL     1      -4.518   4.076  10.295  1.00  0.00    -0.388 OA
ATOM     22  H4  UNL     1      -4.465   4.056   9.347  1.00  0.00     0.210 HD
ENDBRANCH  16  21
ENDBRANCH   8  11
ENDBRANCH   3   4
TORSDOF 5
ENDMDL
