MODEL 1
REMARK VINA RESULT: -7.189057450      0.000      0.000
REMARK  4 active torsions:
REMARK  status: ('A' for Active; 'I' for Inactive)
REMARK    1  A    between atoms: C6_7  and  O1_8 
REMARK    2  A    between atoms: O1_8  and  C7_9 
REMARK    3  A    between atoms: C12_15  and  O3_16 
REMARK    4  A    between atoms: C13_18  and  O4_19 
ROOT
HETATM    1  C1  UNL     1      -5.859   6.079  12.872  1.00  0.00     0.015 C 
HETATM    2  C2  UNL     1      -4.904   5.523  12.404  1.00  0.00    -0.068 C 
HETATM    3  C3  UNL     1      -3.749   4.839  11.853  1.00  0.00     0.228 C 
HETATM    4  F1  UNL     1      -3.290   5.369  10.686  1.00  0.00    -0.223 F 
HETATM    5  C4  UNL     1      -2.615   4.743  12.881  1.00  0.00     0.243 C 
HETATM    6  C5  UNL     1      -3.222   4.366  14.180  1.00  0.00     0.072 C 
HETATM    7  C6  UNL     1      -4.051   3.138  14.178  1.00  0.00     0.156 C 
HETATM    8  C12 UNL     1      -4.639   2.743  12.880  1.00  0.00     0.187 C 
HETATM    9  C13 UNL     1      -4.023   3.355  11.674  1.00  0.00     0.159 C 
HETATM   10  C14 UNL     1      -2.591   2.819  11.571  1.00  0.00     0.277 C 
HETATM   11  N1  UNL     1      -1.774   3.714  12.356  1.00  0.00    -0.064 N 
ATOM     12  H11 UNL     1      -1.246   3.230  13.082  1.00  0.00     0.277 HD
ATOM     13  H12 UNL     1      -0.981   4.085  11.832  1.00  0.00     0.277 HD
ENDROOT
BRANCH   9  14
HETATM   14  O4  UNL     1      -4.763   3.088  10.549  1.00  0.00    -0.381 OA
ATOM     15  H4  UNL     1      -5.456   2.459  10.709  1.00  0.00     0.211 HD
ENDBRANCH   9  14
BRANCH   8  16
HETATM   16  O3  UNL     1      -4.614   1.345  12.688  1.00  0.00    -0.390 OA
ATOM     17  H3  UNL     1      -5.341   1.044  12.156  1.00  0.00     0.210 HD
ENDBRANCH   8  16
BRANCH   7  18
HETATM   18  O1  UNL     1      -5.017   3.319  15.186  1.00  0.00    -0.378 OA
BRANCH  18  19
HETATM   19  C7  UNL     1      -5.707   2.179  15.487  1.00  0.00     0.126 C 
HETATM   20  C8  UNL     1      -4.826   1.093  16.082  1.00  0.00     0.058 C 
HETATM   21  C9  UNL     1      -5.462   0.548  17.358  1.00  0.00     0.170 C 
HETATM   22  O2  UNL     1      -6.796   0.271  17.211  1.00  0.00    -0.391 OA
HETATM   23  C10 UNL     1      -7.570   1.331  16.821  1.00  0.00     0.170 C 
HETATM   24  C11 UNL     1      -6.724   2.536  16.569  1.00  0.00     0.058 C 
ENDBRANCH  18  19
ENDBRANCH   7  18
TORSDOF 4
ENDMDL
MODEL 2
REMARK VINA RESULT: -7.124309316      1.370      1.793
REMARK  4 active torsions:
REMARK  status: ('A' for Active; 'I' for Inactive)
REMARK    1  A    between atoms: C6_7  and  O1_8 
REMARK    2  A    between atoms: O1_8  and  C7_9 
REMARK    3  A    between atoms: C12_15  and  O3_16 
REMARK    4  A    between atoms: C13_18  and  O4_19 
ROOT
HETATM    1  C1  UNL     1      -5.121   6.156  11.458  1.00  0.00     0.015 C 
HETATM    2  C2  UNL     1      -4.053   5.619  11.352  1.00  0.00    -0.068 C 
HETATM    3  C3  UNL     1      -2.767   4.957  11.238  1.00  0.00     0.228 C 
HETATM    4  F1  UNL     1      -1.938   5.501  10.305  1.00  0.00    -0.223 F 
HETATM    5  C4  UNL     1      -2.061   4.874  12.598  1.00  0.00     0.243 C 
HETATM    6  C5  UNL     1      -3.076   4.479  13.603  1.00  0.00     0.072 C 
HETATM    7  C6  UNL     1      -3.831   3.238  13.313  1.00  0.00     0.156 C 
HETATM    8  C12 UNL     1      -3.922   2.841  11.891  1.00  0.00     0.187 C 
HETATM    9  C13 UNL     1      -2.935   3.470  10.975  1.00  0.00     0.159 C 
HETATM   10  C14 UNL     1      -1.548   2.958  11.378  1.00  0.00     0.277 C 
HETATM   11  N1  UNL     1      -1.072   3.862  12.399  1.00  0.00    -0.064 N 
ATOM     12  H11 UNL     1      -0.821   3.382  13.263  1.00  0.00     0.277 HD
ATOM     13  H12 UNL     1      -0.152   4.248  12.184  1.00  0.00     0.277 HD
ENDROOT
BRANCH   9  14
HETATM   14  O4  UNL     1      -3.232   3.198   9.663  1.00  0.00    -0.381 OA
ATOM     15  H4  UNL     1      -3.220   2.268   9.472  1.00  0.00     0.211 HD
ENDBRANCH   9  14
BRANCH   8  16
HETATM   16  O3  UNL     1      -3.807   1.445  11.720  1.00  0.00    -0.390 OA
ATOM     17  H3  UNL     1      -4.608   0.989  11.949  1.00  0.00     0.210 HD
ENDBRANCH   8  16
BRANCH   7  18
HETATM   18  O1  UNL     1      -5.091   3.397  13.920  1.00  0.00    -0.378 OA
BRANCH  18  19
HETATM   19  C7  UNL     1      -5.039   3.403  15.285  1.00  0.00     0.126 C 
HETATM   20  C8  UNL     1      -5.896   4.495  15.905  1.00  0.00     0.058 C 
HETATM   21  C9  UNL     1      -6.779   3.903  17.000  1.00  0.00     0.170 C 
HETATM   22  O2  UNL     1      -6.092   3.079  17.851  1.00  0.00    -0.391 OA
HETATM   23  C10 UNL     1      -5.464   2.019  17.252  1.00  0.00     0.170 C 
HETATM   24  C11 UNL     1      -5.627   2.080  15.769  1.00  0.00     0.058 C 
ENDBRANCH  18  19
ENDBRANCH   7  18
TORSDOF 4
ENDMDL
MODEL 3
REMARK VINA RESULT: -6.871614648      1.317      2.028
REMARK  4 active torsions:
REMARK  status: ('A' for Active; 'I' for Inactive)
REMARK    1  A    between atoms: C6_7  and  O1_8 
REMARK    2  A    between atoms: O1_8  and  C7_9 
REMARK    3  A    between atoms: C12_15  and  O3_16 
REMARK    4  A    between atoms: C13_18  and  O4_19 
ROOT
HETATM    1  C1  UNL     1      -5.258   6.258  12.401  1.00  0.00     0.015 C 
HETATM    2  C2  UNL     1      -4.209   5.927  11.921  1.00  0.00    -0.068 C 
HETATM    3  C3  UNL     1      -2.944   5.508  11.347  1.00  0.00     0.228 C 
HETATM    4  F1  UNL     1      -2.245   6.510  10.745  1.00  0.00    -0.223 F 
HETATM    5  C4  UNL     1      -2.071   4.793  12.386  1.00  0.00     0.243 C 
HETATM    6  C5  UNL     1      -2.948   3.870  13.145  1.00  0.00     0.072 C 
HETATM    7  C6  UNL     1      -3.726   2.901  12.338  1.00  0.00     0.156 C 
HETATM    8  C12 UNL     1      -3.996   3.280  10.934  1.00  0.00     0.187 C 
HETATM    9  C13 UNL     1      -3.137   4.356  10.375  1.00  0.00     0.159 C 
HETATM   10  C14 UNL     1      -1.706   3.810  10.307  1.00  0.00     0.277 C 
HETATM   11  N1  UNL     1      -1.109   4.097  11.590  1.00  0.00    -0.064 N 
ATOM     12  H11 UNL     1      -0.748   3.262  12.051  1.00  0.00     0.277 HD
ATOM     13  H12 UNL     1      -0.227   4.603  11.509  1.00  0.00     0.277 HD
ENDROOT
BRANCH   9  14
HETATM   14  O4  UNL     1      -3.596   4.772   9.150  1.00  0.00    -0.381 OA
ATOM     15  H4  UNL     1      -3.353   5.669   8.955  1.00  0.00     0.211 HD
ENDBRANCH   9  14
BRANCH   8  16
HETATM   16  O3  UNL     1      -3.895   2.179  10.057  1.00  0.00    -0.390 OA
ATOM     17  H3  UNL     1      -4.738   1.775   9.892  1.00  0.00     0.210 HD
ENDBRANCH   8  16
BRANCH   7  18
HETATM   18  O1  UNL     1      -4.900   2.638  13.070  1.00  0.00    -0.378 OA
BRANCH  18  19
HETATM   19  C7  UNL     1      -4.724   2.713  14.422  1.00  0.00     0.126 C 
HETATM   20  C8  UNL     1      -5.889   3.379  15.135  1.00  0.00     0.058 C 
HETATM   21  C9  UNL     1      -6.343   2.517  16.310  1.00  0.00     0.170 C 
HETATM   22  O2  UNL     1      -5.299   2.075  17.080  1.00  0.00    -0.391 OA
HETATM   23  C10 UNL     1      -4.353   1.344  16.412  1.00  0.00     0.170 C 
HETATM   24  C11 UNL     1      -4.669   1.282  14.954  1.00  0.00     0.058 C 
ENDBRANCH  18  19
ENDBRANCH   7  18
TORSDOF 4
ENDMDL
MODEL 4
REMARK VINA RESULT: -6.802164300      1.410      1.513
REMARK  4 active torsions:
REMARK  status: ('A' for Active; 'I' for Inactive)
REMARK    1  A    between atoms: C6_7  and  O1_8 
REMARK    2  A    between atoms: O1_8  and  C7_9 
REMARK    3  A    between atoms: C12_15  and  O3_16 
REMARK    4  A    between atoms: C13_18  and  O4_19 
ROOT
HETATM    1  C1  UNL     1      -5.160   6.249  10.781  1.00  0.00     0.015 C 
HETATM    2  C2  UNL     1      -4.135   5.637  10.902  1.00  0.00    -0.068 C 
HETATM    3  C3  UNL     1      -2.904   4.886  11.064  1.00  0.00     0.228 C 
HETATM    4  F1  UNL     1      -1.923   5.224  10.183  1.00  0.00    -0.223 F 
HETATM    5  C4  UNL     1      -2.384   4.973  12.505  1.00  0.00     0.243 C 
HETATM    6  C5  UNL     1      -3.547   4.805  13.409  1.00  0.00     0.072 C 
HETATM    7  C6  UNL     1      -4.359   3.583  13.204  1.00  0.00     0.156 C 
HETATM    8  C12 UNL     1      -4.304   2.975  11.857  1.00  0.00     0.187 C 
HETATM    9  C13 UNL     1      -3.161   3.389  11.002  1.00  0.00     0.159 C 
HETATM   10  C14 UNL     1      -1.882   2.862  11.662  1.00  0.00     0.277 C 
HETATM   11  N1  UNL     1      -1.465   3.882  12.594  1.00  0.00    -0.064 N 
ATOM     12  H11 UNL     1      -1.366   3.529  13.546  1.00  0.00     0.277 HD
ATOM     13  H12 UNL     1      -0.497   4.172  12.453  1.00  0.00     0.277 HD
ENDROOT
BRANCH   9  14
HETATM   14  O4  UNL     1      -3.312   2.934   9.717  1.00  0.00    -0.381 OA
ATOM     15  H4  UNL     1      -2.830   2.132   9.555  1.00  0.00     0.211 HD
ENDBRANCH   9  14
BRANCH   8  16
HETATM   16  O3  UNL     1      -4.284   1.565  11.910  1.00  0.00    -0.390 OA
ATOM     17  H3  UNL     1      -4.589   1.172  11.101  1.00  0.00     0.210 HD
ENDBRANCH   8  16
BRANCH   7  18
HETATM   18  O1  UNL     1      -5.668   3.914  13.603  1.00  0.00    -0.378 OA
BRANCH  18  19
HETATM   19  C7  UNL     1      -6.087   3.233  14.710  1.00  0.00     0.126 C 
HETATM   20  C8  UNL     1      -5.187   2.059  15.059  1.00  0.00     0.058 C 
HETATM   21  C9  UNL     1      -4.812   2.112  16.537  1.00  0.00     0.170 C 
HETATM   22  O2  UNL     1      -5.889   2.347  17.351  1.00  0.00    -0.391 OA
HETATM   23  C10 UNL     1      -6.574   3.504  17.089  1.00  0.00     0.170 C 
HETATM   24  C11 UNL     1      -6.002   4.194  15.894  1.00  0.00     0.058 C 
ENDBRANCH  18  19
ENDBRANCH   7  18
TORSDOF 4
ENDMDL
MODEL 5
REMARK VINA RESULT: -6.533645217      1.887      2.612
REMARK  4 active torsions:
REMARK  status: ('A' for Active; 'I' for Inactive)
REMARK    1  A    between atoms: C6_7  and  O1_8 
REMARK    2  A    between atoms: O1_8  and  C7_9 
REMARK    3  A    between atoms: C12_15  and  O3_16 
REMARK    4  A    between atoms: C13_18  and  O4_19 
ROOT
HETATM    1  C1  UNL     1      -6.765   7.131  11.950  1.00  0.00     0.015 C 
HETATM    2  C2  UNL     1      -5.630   7.101  11.561  1.00  0.00    -0.068 C 
HETATM    3  C3  UNL     1      -4.255   7.047  11.099  1.00  0.00     0.228 C 
HETATM    4  F1  UNL     1      -3.877   8.117  10.346  1.00  0.00    -0.223 F 
HETATM    5  C4  UNL     1      -3.283   6.844  12.268  1.00  0.00     0.243 C 
HETATM    6  C5  UNL     1      -3.867   5.812  13.158  1.00  0.00     0.072 C 
HETATM    7  C6  UNL     1      -4.216   4.522  12.518  1.00  0.00     0.156 C 
HETATM    8  C12 UNL     1      -4.480   4.560  11.063  1.00  0.00     0.187 C 
HETATM    9  C13 UNL     1      -3.980   5.759  10.342  1.00  0.00     0.159 C 
HETATM   10  C14 UNL     1      -2.448   5.724  10.405  1.00  0.00     0.277 C 
HETATM   11  N1  UNL     1      -2.085   6.396  11.630  1.00  0.00    -0.064 N 
ATOM     12  H11 UNL     1      -1.508   5.816  12.240  1.00  0.00     0.277 HD
ATOM     13  H12 UNL     1      -1.414   7.149  11.481  1.00  0.00     0.277 HD
ENDROOT
BRANCH   9  14
HETATM   14  O4  UNL     1      -4.449   5.795   9.053  1.00  0.00    -0.381 OA
ATOM     15  H4  UNL     1      -5.394   5.880   9.011  1.00  0.00     0.211 HD
ENDBRANCH   9  14
BRANCH   8  16
HETATM   16  O3  UNL     1      -3.953   3.433  10.397  1.00  0.00    -0.390 OA
ATOM     17  H3  UNL     1      -3.753   3.616   9.487  1.00  0.00     0.210 HD
ENDBRANCH   8  16
BRANCH   7  18
HETATM   18  O1  UNL     1      -5.293   3.999  13.258  1.00  0.00    -0.378 OA
BRANCH  18  19
HETATM   19  C7  UNL     1      -4.968   3.692  14.548  1.00  0.00     0.126 C 
HETATM   20  C8  UNL     1      -6.087   3.998  15.530  1.00  0.00     0.058 C 
HETATM   21  C9  UNL     1      -6.339   2.788  16.425  1.00  0.00     0.170 C 
HETATM   22  O2  UNL     1      -5.184   2.249  16.929  1.00  0.00    -0.391 OA
HETATM   23  C10 UNL     1      -4.273   1.847  15.990  1.00  0.00     0.170 C 
HETATM   24  C11 UNL     1      -4.750   2.182  14.615  1.00  0.00     0.058 C 
ENDBRANCH  18  19
ENDBRANCH   7  18
TORSDOF 4
ENDMDL
