MODEL 1
REMARK VINA RESULT: -7.082362593      0.000      0.000
REMARK  5 active torsions:
REMARK  status: ('A' for Active; 'I' for Inactive)
REMARK    1  A    between atoms: C2_2  and  O1_3 
REMARK    2  A    between atoms: C2_2  and  C3_5 
REMARK    3  A    between atoms: C5_9  and  N1_10 
REMARK       I    between atoms: N1_10  and  C6_12 
REMARK    4  A    between atoms: C6_12  and  C7_14 
REMARK    5  A    between atoms: C9_19  and  O5_20 
ROOT
HETATM    1  C3  UNL     1      -5.694   1.753  16.175  1.00  0.00     0.225 C 
HETATM    2  O2  UNL     1      -5.989   3.099  16.147  1.00  0.00    -0.229 OA
HETATM    3  O3  UNL     1      -4.903   3.785  16.024  1.00  0.00    -0.230 OA
HETATM    4  C4  UNL     1      -3.955   3.049  15.358  1.00  0.00     0.220 C 
HETATM    5  C5  UNL     1      -4.227   2.876  13.868  1.00  0.00     0.122 C 
HETATM    6  C8  UNL     1      -4.336   1.387  14.051  1.00  0.00     0.071 C 
HETATM    7  C9  UNL     1      -4.335   1.592  15.539  1.00  0.00     0.122 C 
ENDROOT
BRANCH   5   8
HETATM    8  N1  UNL     1      -3.091   3.320  13.102  1.00  0.00    -0.350 N 
HETATM    9  C6  UNL     1      -3.273   3.688  11.752  1.00  0.00     0.273 C 
HETATM   10  O4  UNL     1      -4.422   3.618  11.256  1.00  0.00    -0.269 OA
ATOM     11  H1  UNL     1      -2.167   3.368  13.531  1.00  0.00     0.163 HD
BRANCH   9  12
HETATM   12  C7  UNL     1      -2.089   4.148  10.969  1.00  0.00     0.269 C 
HETATM   13 CL1  UNL     1      -0.679   3.225  11.551  1.00  0.00    -0.073 Cl
HETATM   14 CL2  UNL     1      -1.809   5.902  11.252  1.00  0.00    -0.073 Cl
HETATM   15 CL3  UNL     1      -2.304   3.923   9.234  1.00  0.00    -0.073 Cl
ENDBRANCH   9  12
ENDBRANCH   5   8
BRANCH   7  16
HETATM   16  O5  UNL     1      -3.434   0.827  16.235  1.00  0.00    -0.384 OA
ATOM     17  H5  UNL     1      -2.554   0.796  15.879  1.00  0.00     0.210 HD
ENDBRANCH   7  16
BRANCH   1  18
HETATM   18  C2  UNL     1      -5.631   1.179  17.565  1.00  0.00     0.149 C 
HETATM   19  C1  UNL     1      -6.479   1.925  18.553  1.00  0.00     0.042 C 
BRANCH  18  20
HETATM   20  O1  UNL     1      -6.134  -0.128  17.488  1.00  0.00    -0.393 OA
ATOM     21  H1  UNL     1      -5.475  -0.706  17.853  1.00  0.00     0.210 HD
ENDBRANCH  18  20
ENDBRANCH   1  18
TORSDOF 5
ENDMDL
MODEL 2
REMARK VINA RESULT: -7.055452432      0.068      1.186
REMARK  5 active torsions:
REMARK  status: ('A' for Active; 'I' for Inactive)
REMARK    1  A    between atoms: C2_2  and  O1_3 
REMARK    2  A    between atoms: C2_2  and  C3_5 
REMARK    3  A    between atoms: C5_9  and  N1_10 
REMARK       I    between atoms: N1_10  and  C6_12 
REMARK    4  A    between atoms: C6_12  and  C7_14 
REMARK    5  A    between atoms: C9_19  and  O5_20 
ROOT
HETATM    1  C3  UNL     1      -5.694   1.751  16.169  1.00  0.00     0.225 C 
HETATM    2  O2  UNL     1      -5.982   3.098  16.136  1.00  0.00    -0.229 OA
HETATM    3  O3  UNL     1      -4.892   3.778  16.015  1.00  0.00    -0.230 OA
HETATM    4  C4  UNL     1      -3.945   3.035  15.355  1.00  0.00     0.220 C 
HETATM    5  C5  UNL     1      -4.212   2.859  13.864  1.00  0.00     0.122 C 
HETATM    6  C8  UNL     1      -4.329   1.372  14.051  1.00  0.00     0.071 C 
HETATM    7  C9  UNL     1      -4.333   1.581  15.538  1.00  0.00     0.122 C 
ENDROOT
BRANCH   5   8
HETATM    8  N1  UNL     1      -3.070   3.296  13.102  1.00  0.00    -0.350 N 
HETATM    9  C6  UNL     1      -3.261   3.766  11.785  1.00  0.00     0.273 C 
HETATM   10  O4  UNL     1      -4.422   3.791  11.315  1.00  0.00    -0.269 OA
ATOM     11  H1  UNL     1      -2.135   3.265  13.509  1.00  0.00     0.163 HD
BRANCH   9  12
HETATM   12  C7  UNL     1      -2.071   4.216  11.006  1.00  0.00     0.269 C 
HETATM   13 CL1  UNL     1      -2.407   3.885   9.287  1.00  0.00    -0.073 Cl
HETATM   14 CL2  UNL     1      -0.617   3.289  11.518  1.00  0.00    -0.073 Cl
HETATM   15 CL3  UNL     1      -1.717   5.926  11.251  1.00  0.00    -0.073 Cl
ENDBRANCH   9  12
ENDBRANCH   5   8
BRANCH   7  16
HETATM   16  O5  UNL     1      -3.439   0.813  16.240  1.00  0.00    -0.384 OA
ATOM     17  H5  UNL     1      -2.860   0.270  15.718  1.00  0.00     0.210 HD
ENDBRANCH   7  16
BRANCH   1  18
HETATM   18  C2  UNL     1      -5.639   1.180  17.561  1.00  0.00     0.149 C 
HETATM   19  C1  UNL     1      -6.489   1.932  18.543  1.00  0.00     0.042 C 
BRANCH  18  20
HETATM   20  O1  UNL     1      -6.147  -0.126  17.484  1.00  0.00    -0.393 OA
ATOM     21  H1  UNL     1      -6.037  -0.419  16.588  1.00  0.00     0.210 HD
ENDBRANCH  18  20
ENDBRANCH   1  18
TORSDOF 5
ENDMDL
MODEL 3
REMARK VINA RESULT: -7.045176620      0.080      1.193
REMARK  5 active torsions:
REMARK  status: ('A' for Active; 'I' for Inactive)
REMARK    1  A    between atoms: C2_2  and  O1_3 
REMARK    2  A    between atoms: C2_2  and  C3_5 
REMARK    3  A    between atoms: C5_9  and  N1_10 
REMARK       I    between atoms: N1_10  and  C6_12 
REMARK    4  A    between atoms: C6_12  and  C7_14 
REMARK    5  A    between atoms: C9_19  and  O5_20 
ROOT
HETATM    1  C3  UNL     1      -5.693   1.759  16.161  1.00  0.00     0.225 C 
HETATM    2  O2  UNL     1      -5.972   3.108  16.125  1.00  0.00    -0.229 OA
HETATM    3  O3  UNL     1      -4.878   3.780  15.999  1.00  0.00    -0.230 OA
HETATM    4  C4  UNL     1      -3.938   3.029  15.337  1.00  0.00     0.220 C 
HETATM    5  C5  UNL     1      -4.211   2.850  13.848  1.00  0.00     0.122 C 
HETATM    6  C8  UNL     1      -4.338   1.365  14.039  1.00  0.00     0.071 C 
HETATM    7  C9  UNL     1      -4.335   1.578  15.526  1.00  0.00     0.122 C 
ENDROOT
BRANCH   5   8
HETATM    8  N1  UNL     1      -3.069   3.276  13.081  1.00  0.00    -0.350 N 
HETATM    9  C6  UNL     1      -3.266   3.776  11.775  1.00  0.00     0.273 C 
HETATM   10  O4  UNL     1      -4.431   3.834  11.319  1.00  0.00    -0.269 OA
ATOM     11  H1  UNL     1      -2.131   3.219  13.476  1.00  0.00     0.163 HD
BRANCH   9  12
HETATM   12  C7  UNL     1      -2.075   4.215  10.990  1.00  0.00     0.269 C 
HETATM   13 CL1  UNL     1      -1.883   5.966  11.255  1.00  0.00    -0.073 Cl
HETATM   14 CL2  UNL     1      -2.346   3.903   9.239  1.00  0.00    -0.073 Cl
HETATM   15 CL3  UNL     1      -0.610   3.352  11.457  1.00  0.00    -0.073 Cl
ENDBRANCH   9  12
ENDBRANCH   5   8
BRANCH   7  16
HETATM   16  O5  UNL     1      -3.445   0.805  16.227  1.00  0.00    -0.384 OA
ATOM     17  H5  UNL     1      -3.700   0.580  17.114  1.00  0.00     0.210 HD
ENDBRANCH   7  16
BRANCH   1  18
HETATM   18  C2  UNL     1      -5.637   1.191  17.554  1.00  0.00     0.149 C 
HETATM   19  C1  UNL     1      -6.489   1.944  18.534  1.00  0.00     0.042 C 
BRANCH  18  20
HETATM   20  O1  UNL     1      -6.142  -0.116  17.481  1.00  0.00    -0.393 OA
ATOM     21  H1  UNL     1      -7.071  -0.070  17.677  1.00  0.00     0.210 HD
ENDBRANCH  18  20
ENDBRANCH   1  18
TORSDOF 5
ENDMDL
MODEL 4
REMARK VINA RESULT: -6.946710357      3.860      6.570
REMARK  5 active torsions:
REMARK  status: ('A' for Active; 'I' for Inactive)
REMARK    1  A    between atoms: C2_2  and  O1_3 
REMARK    2  A    between atoms: C2_2  and  C3_5 
REMARK    3  A    between atoms: C5_9  and  N1_10 
REMARK       I    between atoms: N1_10  and  C6_12 
REMARK    4  A    between atoms: C6_12  and  C7_14 
REMARK    5  A    between atoms: C9_19  and  O5_20 
ROOT
HETATM    1  C3  UNL     1      -2.679   2.989  11.559  1.00  0.00     0.225 C 
HETATM    2  O2  UNL     1      -1.874   3.213  12.655  1.00  0.00    -0.229 OA
HETATM    3  O3  UNL     1      -2.499   3.939  13.519  1.00  0.00    -0.230 OA
HETATM    4  C4  UNL     1      -3.853   3.736  13.413  1.00  0.00     0.220 C 
HETATM    5  C5  UNL     1      -4.328   2.386  13.937  1.00  0.00     0.122 C 
HETATM    6  C8  UNL     1      -4.807   2.010  12.562  1.00  0.00     0.071 C 
HETATM    7  C9  UNL     1      -4.102   3.216  12.010  1.00  0.00     0.122 C 
ENDROOT
BRANCH   5   8
HETATM    8  N1  UNL     1      -5.364   2.574  14.919  1.00  0.00    -0.350 N 
HETATM    9  C6  UNL     1      -5.154   2.112  16.237  1.00  0.00     0.273 C 
HETATM   10  O4  UNL     1      -4.069   1.551  16.515  1.00  0.00    -0.269 OA
ATOM     11  H1  UNL     1      -6.238   3.034  14.666  1.00  0.00     0.163 HD
BRANCH   9  12
HETATM   12  C7  UNL     1      -6.235   2.313  17.246  1.00  0.00     0.269 C 
HETATM   13 CL1  UNL     1      -7.572   1.216  16.815  1.00  0.00    -0.073 Cl
HETATM   14 CL2  UNL     1      -6.818   4.013  17.189  1.00  0.00    -0.073 Cl
HETATM   15 CL3  UNL     1      -5.682   2.001  18.891  1.00  0.00    -0.073 Cl
ENDBRANCH   9  12
ENDBRANCH   5   8
BRANCH   7  16
HETATM   16  O5  UNL     1      -4.864   4.023  11.205  1.00  0.00    -0.384 OA
ATOM     17  H5  UNL     1      -5.086   3.668  10.353  1.00  0.00     0.210 HD
ENDBRANCH   7  16
BRANCH   1  18
HETATM   18  C2  UNL     1      -2.400   3.917  10.406  1.00  0.00     0.149 C 
HETATM   19  C1  UNL     1      -0.936   4.076  10.116  1.00  0.00     0.042 C 
BRANCH  18  20
HETATM   20  O1  UNL     1      -2.990   3.342   9.271  1.00  0.00    -0.393 OA
ATOM     21  H1  UNL     1      -3.428   2.548   9.552  1.00  0.00     0.210 HD
ENDBRANCH  18  20
ENDBRANCH   1  18
TORSDOF 5
ENDMDL
MODEL 5
REMARK VINA RESULT: -6.937880131      3.847      6.575
REMARK  5 active torsions:
REMARK  status: ('A' for Active; 'I' for Inactive)
REMARK    1  A    between atoms: C2_2  and  O1_3 
REMARK    2  A    between atoms: C2_2  and  C3_5 
REMARK    3  A    between atoms: C5_9  and  N1_10 
REMARK       I    between atoms: N1_10  and  C6_12 
REMARK    4  A    between atoms: C6_12  and  C7_14 
REMARK    5  A    between atoms: C9_19  and  O5_20 
ROOT
HETATM    1  C3  UNL     1      -2.651   3.005  11.518  1.00  0.00     0.225 C 
HETATM    2  O2  UNL     1      -1.868   3.259  12.623  1.00  0.00    -0.229 OA
HETATM    3  O3  UNL     1      -2.525   3.973  13.473  1.00  0.00    -0.230 OA
HETATM    4  C4  UNL     1      -3.871   3.731  13.351  1.00  0.00     0.220 C 
HETATM    5  C5  UNL     1      -4.315   2.371  13.878  1.00  0.00     0.122 C 
HETATM    6  C8  UNL     1      -4.764   1.973  12.500  1.00  0.00     0.071 C 
HETATM    7  C9  UNL     1      -4.086   3.195  11.949  1.00  0.00     0.122 C 
ENDROOT
BRANCH   5   8
HETATM    8  N1  UNL     1      -5.370   2.537  14.845  1.00  0.00    -0.350 N 
HETATM    9  C6  UNL     1      -5.154   2.116  16.176  1.00  0.00     0.273 C 
HETATM   10  O4  UNL     1      -4.049   1.610  16.478  1.00  0.00    -0.269 OA
ATOM     11  H1  UNL     1      -6.260   2.952  14.572  1.00  0.00     0.163 HD
BRANCH   9  12
HETATM   12  C7  UNL     1      -6.254   2.293  17.168  1.00  0.00     0.269 C 
HETATM   13 CL1  UNL     1      -6.787   3.990  17.071  1.00  0.00    -0.073 Cl
HETATM   14 CL2  UNL     1      -5.643   1.955  18.826  1.00  0.00    -0.073 Cl
HETATM   15 CL3  UNL     1      -7.606   1.200  16.873  1.00  0.00    -0.073 Cl
ENDBRANCH   9  12
ENDBRANCH   5   8
BRANCH   7  16
HETATM   16  O5  UNL     1      -4.859   3.975  11.128  1.00  0.00    -0.384 OA
ATOM     17  H5  UNL     1      -4.791   4.912  11.262  1.00  0.00     0.210 HD
ENDBRANCH   7  16
BRANCH   1  18
HETATM   18  C2  UNL     1      -2.383   3.932  10.363  1.00  0.00     0.149 C 
HETATM   19  C1  UNL     1      -0.921   4.106  10.071  1.00  0.00     0.042 C 
BRANCH  18  20
HETATM   20  O1  UNL     1      -2.968   3.348   9.229  1.00  0.00    -0.393 OA
ATOM     21  H1  UNL     1      -3.232   4.055   8.653  1.00  0.00     0.210 HD
ENDBRANCH  18  20
ENDBRANCH   1  18
TORSDOF 5
ENDMDL
