MODEL 1
REMARK VINA RESULT: -6.878143697      0.000      0.000
REMARK  4 active torsions:
REMARK  status: ('A' for Active; 'I' for Inactive)
REMARK    1  A    between atoms: C3_5  and  C4_6 
REMARK    2  A    between atoms: C6_10  and  C7_12 
REMARK    3  A    between atoms: C8_15  and  O4_16 
REMARK    4  A    between atoms: C9_18  and  O5_19 
ROOT
HETATM    1  C1  UNL     1      -3.856   3.890  10.284  1.00  0.00     0.313 C 
HETATM    2  N1  UNL     1      -3.374   4.183  11.572  1.00  0.00     0.117 N 
HETATM    3  C2  UNL     1      -2.314   3.367  12.061  1.00  0.00     0.441 C 
HETATM    4  O1  UNL     1      -2.409   3.320  13.451  1.00  0.00    -0.346 OA
HETATM    5  C3  UNL     1      -3.419   4.212  13.814  1.00  0.00     0.130 C 
HETATM    6  C5  UNL     1      -4.037   3.942  15.122  1.00  0.00     0.101 C 
HETATM    7  C6  UNL     1      -4.984   2.803  15.189  1.00  0.00     0.221 C 
HETATM    8  F1  UNL     1      -5.903   3.083  16.210  1.00  0.00    -0.228 F 
HETATM    9  C8  UNL     1      -5.796   2.590  13.941  1.00  0.00     0.200 C 
HETATM   10  C9  UNL     1      -4.909   2.642  12.713  1.00  0.00     0.187 C 
HETATM   11  C10 UNL     1      -4.361   4.058  12.635  1.00  0.00     0.293 C 
ENDROOT
BRANCH   7  12
HETATM   12  C7  UNL     1      -4.270   1.578  15.604  1.00  0.00     0.217 C 
HETATM   13  O2  UNL     1      -3.212   1.613  16.271  1.00  0.00    -0.645 OA
HETATM   14  O3  UNL     1      -4.788   0.354  15.246  1.00  0.00    -0.645 OA
ENDBRANCH   7  12
BRANCH   9  15
HETATM   15  O4  UNL     1      -6.731   3.606  13.833  1.00  0.00    -0.389 OA
ATOM     16  H4  UNL     1      -7.585   3.224  13.667  1.00  0.00     0.210 HD
ENDBRANCH   9  15
BRANCH   5  17
HETATM   17  C4  UNL     1      -2.819   5.597  13.765  1.00  0.00     0.215 C 
HETATM   18 CL1  UNL     1      -1.060   5.502  14.071  1.00  0.00    -0.105 Cl
HETATM   19 CL2  UNL     1      -3.617   6.714  14.871  1.00  0.00    -0.105 Cl
ENDBRANCH   5  17
BRANCH  10  20
HETATM   20  O5  UNL     1      -5.565   2.250  11.576  1.00  0.00    -0.391 OA
ATOM     21  H5  UNL     1      -5.431   2.852  10.854  1.00  0.00     0.210 HD
ENDBRANCH  10  20
TORSDOF 4
ENDMDL
MODEL 2
REMARK VINA RESULT: -6.623161163      2.575      3.367
REMARK  4 active torsions:
REMARK  status: ('A' for Active; 'I' for Inactive)
REMARK    1  A    between atoms: C3_5  and  C4_6 
REMARK    2  A    between atoms: C6_10  and  C7_12 
REMARK    3  A    between atoms: C8_15  and  O4_16 
REMARK    4  A    between atoms: C9_18  and  O5_19 
ROOT
HETATM    1  C1  UNL     1      -2.053   6.560  13.324  1.00  0.00     0.313 C 
HETATM    2  N1  UNL     1      -2.950   5.653  13.915  1.00  0.00     0.117 N 
HETATM    3  C2  UNL     1      -2.380   4.595  14.681  1.00  0.00     0.441 C 
HETATM    4  O1  UNL     1      -3.243   3.503  14.622  1.00  0.00    -0.346 OA
HETATM    5  C3  UNL     1      -4.391   3.935  13.955  1.00  0.00     0.130 C 
HETATM    6  C5  UNL     1      -5.178   2.862  13.327  1.00  0.00     0.101 C 
HETATM    7  C6  UNL     1      -4.636   2.285  12.073  1.00  0.00     0.221 C 
HETATM    8  F1  UNL     1      -5.725   1.820  11.322  1.00  0.00    -0.228 F 
HETATM    9  C8  UNL     1      -3.910   3.267  11.195  1.00  0.00     0.200 C 
HETATM   10  C9  UNL     1      -2.943   4.099  12.012  1.00  0.00     0.187 C 
HETATM   11  C10 UNL     1      -3.786   4.921  12.974  1.00  0.00     0.293 C 
ENDROOT
BRANCH   7  12
HETATM   12  C7  UNL     1      -3.812   1.097  12.380  1.00  0.00     0.217 C 
HETATM   13  O2  UNL     1      -2.572   1.082  12.216  1.00  0.00    -0.645 OA
HETATM   14  O3  UNL     1      -4.432  -0.033  12.863  1.00  0.00    -0.645 OA
ENDBRANCH   7  12
BRANCH   9  15
HETATM   15  O4  UNL     1      -4.833   4.127  10.623  1.00  0.00    -0.389 OA
ATOM     16  H4  UNL     1      -4.816   4.954  11.091  1.00  0.00     0.210 HD
ENDBRANCH   9  15
BRANCH   5  17
HETATM   17  C4  UNL     1      -5.216   4.706  14.957  1.00  0.00     0.215 C 
HETATM   18 CL1  UNL     1      -5.765   3.608  16.257  1.00  0.00    -0.105 Cl
HETATM   19 CL2  UNL     1      -6.564   5.557  14.205  1.00  0.00    -0.105 Cl
ENDBRANCH   5  17
BRANCH  10  20
HETATM   20  O5  UNL     1      -2.116   4.860  11.229  1.00  0.00    -0.391 OA
ATOM     21  H5  UNL     1      -2.244   4.700  10.302  1.00  0.00     0.210 HD
ENDBRANCH  10  20
TORSDOF 4
ENDMDL
MODEL 3
REMARK VINA RESULT: -6.448665942      1.324      1.535
REMARK  4 active torsions:
REMARK  status: ('A' for Active; 'I' for Inactive)
REMARK    1  A    between atoms: C3_5  and  C4_6 
REMARK    2  A    between atoms: C6_10  and  C7_12 
REMARK    3  A    between atoms: C8_15  and  O4_16 
REMARK    4  A    between atoms: C9_18  and  O5_19 
ROOT
HETATM    1  C1  UNL     1      -2.161   3.764  10.665  1.00  0.00     0.313 C 
HETATM    2  N1  UNL     1      -2.504   4.314  11.913  1.00  0.00     0.117 N 
HETATM    3  C2  UNL     1      -1.531   4.209  12.949  1.00  0.00     0.441 C 
HETATM    4  O1  UNL     1      -2.201   4.166  14.170  1.00  0.00    -0.346 OA
HETATM    5  C3  UNL     1      -3.551   4.391  13.895  1.00  0.00     0.130 C 
HETATM    6  C5  UNL     1      -4.481   3.878  14.913  1.00  0.00     0.101 C 
HETATM    7  C6  UNL     1      -4.703   2.412  14.934  1.00  0.00     0.221 C 
HETATM    8  F1  UNL     1      -5.992   2.192  15.441  1.00  0.00    -0.228 F 
HETATM    9  C8  UNL     1      -4.668   1.755  13.581  1.00  0.00     0.200 C 
HETATM   10  C9  UNL     1      -3.467   2.231  12.789  1.00  0.00     0.187 C 
HETATM   11  C10 UNL     1      -3.673   3.716  12.541  1.00  0.00     0.293 C 
ENDROOT
BRANCH   7  12
HETATM   12  C7  UNL     1      -3.772   1.774  15.887  1.00  0.00     0.217 C 
HETATM   13  O2  UNL     1      -2.769   2.367  16.341  1.00  0.00    -0.645 OA
HETATM   14  O3  UNL     1      -4.018   0.481  16.290  1.00  0.00    -0.645 OA
ENDBRANCH   7  12
BRANCH   9  15
HETATM   15  O4  UNL     1      -5.808   2.109  12.878  1.00  0.00    -0.389 OA
ATOM     16  H4  UNL     1      -6.135   1.346  12.416  1.00  0.00     0.210 HD
ENDBRANCH   9  15
BRANCH   5  17
HETATM   17  C4  UNL     1      -3.717   5.879  13.700  1.00  0.00     0.215 C 
HETATM   18 CL1  UNL     1      -3.724   6.697  15.290  1.00  0.00    -0.105 Cl
HETATM   19 CL2  UNL     1      -5.148   6.278  12.753  1.00  0.00    -0.105 Cl
ENDBRANCH   5  17
BRANCH  10  20
HETATM   20  O5  UNL     1      -3.279   1.510  11.639  1.00  0.00    -0.391 OA
ATOM     21  H5  UNL     1      -3.507   2.003  10.860  1.00  0.00     0.210 HD
ENDBRANCH  10  20
TORSDOF 4
ENDMDL
MODEL 4
REMARK VINA RESULT: -6.405185842      2.166      3.689
REMARK  4 active torsions:
REMARK  status: ('A' for Active; 'I' for Inactive)
REMARK    1  A    between atoms: C3_5  and  C4_6 
REMARK    2  A    between atoms: C6_10  and  C7_12 
REMARK    3  A    between atoms: C8_15  and  O4_16 
REMARK    4  A    between atoms: C9_18  and  O5_19 
ROOT
HETATM    1  C1  UNL     1      -5.952   5.534  15.683  1.00  0.00     0.313 C 
HETATM    2  N1  UNL     1      -5.071   5.530  14.587  1.00  0.00     0.117 N 
HETATM    3  C2  UNL     1      -5.642   5.770  13.304  1.00  0.00     0.441 C 
HETATM    4  O1  UNL     1      -4.863   5.113  12.353  1.00  0.00    -0.346 OA
HETATM    5  C3  UNL     1      -3.752   4.604  13.027  1.00  0.00     0.130 C 
HETATM    6  C5  UNL     1      -3.098   3.466  12.362  1.00  0.00     0.101 C 
HETATM    7  C6  UNL     1      -3.787   2.156  12.456  1.00  0.00     0.221 C 
HETATM    8  F1  UNL     1      -2.802   1.160  12.379  1.00  0.00    -0.228 F 
HETATM    9  C8  UNL     1      -4.518   1.924  13.749  1.00  0.00     0.200 C 
HETATM   10  C9  UNL     1      -5.351   3.136  14.115  1.00  0.00     0.187 C 
HETATM   11  C10 UNL     1      -4.373   4.271  14.371  1.00  0.00     0.293 C 
ENDROOT
BRANCH   7  12
HETATM   12  C7  UNL     1      -4.659   1.960  11.279  1.00  0.00     0.217 C 
HETATM   13  O2  UNL     1      -5.890   1.763  11.384  1.00  0.00    -0.645 OA
HETATM   14  O3  UNL     1      -4.097   1.998  10.023  1.00  0.00    -0.645 OA
ENDBRANCH   7  12
BRANCH   9  15
HETATM   15  O4  UNL     1      -3.593   1.722  14.760  1.00  0.00    -0.389 OA
ATOM     16  H4  UNL     1      -3.319   2.566  15.101  1.00  0.00     0.210 HD
ENDBRANCH   9  15
BRANCH   5  17
HETATM   17  C4  UNL     1      -2.791   5.753  13.219  1.00  0.00     0.215 C 
HETATM   18 CL1  UNL     1      -2.386   6.471  11.632  1.00  0.00    -0.105 Cl
HETATM   19 CL2  UNL     1      -1.347   5.280  14.111  1.00  0.00    -0.105 Cl
ENDBRANCH   5  17
BRANCH  10  20
HETATM   20  O5  UNL     1      -6.190   2.895  15.170  1.00  0.00    -0.391 OA
ATOM     21  H5  UNL     1      -7.061   3.247  15.030  1.00  0.00     0.210 HD
ENDBRANCH  10  20
TORSDOF 4
ENDMDL
MODEL 5
REMARK VINA RESULT: -6.379796705      1.057      1.117
REMARK  4 active torsions:
REMARK  status: ('A' for Active; 'I' for Inactive)
REMARK    1  A    between atoms: C3_5  and  C4_6 
REMARK    2  A    between atoms: C6_10  and  C7_12 
REMARK    3  A    between atoms: C8_15  and  O4_16 
REMARK    4  A    between atoms: C9_18  and  O5_19 
ROOT
HETATM    1  C1  UNL     1      -3.769   3.391  10.234  1.00  0.00     0.313 C 
HETATM    2  N1  UNL     1      -3.265   4.047  11.372  1.00  0.00     0.117 N 
HETATM    3  C2  UNL     1      -2.222   3.387  12.083  1.00  0.00     0.441 C 
HETATM    4  O1  UNL     1      -2.302   3.766  13.421  1.00  0.00    -0.346 OA
HETATM    5  C3  UNL     1      -3.284   4.755  13.499  1.00  0.00     0.130 C 
HETATM    6  C5  UNL     1      -3.894   4.913  14.829  1.00  0.00     0.101 C 
HETATM    7  C6  UNL     1      -4.870   3.875  15.241  1.00  0.00     0.221 C 
HETATM    8  F1  UNL     1      -5.770   4.479  16.132  1.00  0.00    -0.228 F 
HETATM    9  C8  UNL     1      -5.702   3.318  14.119  1.00  0.00     0.200 C 
HETATM   10  C9  UNL     1      -4.828   2.969  12.930  1.00  0.00     0.187 C 
HETATM   11  C10 UNL     1      -4.243   4.278  12.425  1.00  0.00     0.293 C 
ENDROOT
BRANCH   7  12
HETATM   12  C7  UNL     1      -4.185   2.814  16.007  1.00  0.00     0.217 C 
HETATM   13  O2  UNL     1      -2.945   2.654  15.967  1.00  0.00    -0.645 OA
HETATM   14  O3  UNL     1      -4.939   1.971  16.793  1.00  0.00    -0.645 OA
ENDBRANCH   7  12
BRANCH   9  15
HETATM   15  O4  UNL     1      -6.610   4.280  13.710  1.00  0.00    -0.389 OA
ATOM     16  H4  UNL     1      -7.345   3.851  13.286  1.00  0.00     0.210 HD
ENDBRANCH   9  15
BRANCH   5  17
HETATM   17  C4  UNL     1      -2.648   6.042  13.031  1.00  0.00     0.215 C 
HETATM   18 CL1  UNL     1      -1.675   6.748  14.354  1.00  0.00    -0.105 Cl
HETATM   19 CL2  UNL     1      -3.832   7.188  12.406  1.00  0.00    -0.105 Cl
ENDBRANCH   5  17
BRANCH  10  20
HETATM   20  O5  UNL     1      -5.507   2.271  11.968  1.00  0.00    -0.391 OA
ATOM     21  H5  UNL     1      -4.930   1.754  11.419  1.00  0.00     0.210 HD
ENDBRANCH  10  20
TORSDOF 4
ENDMDL
