MODEL 1
REMARK VINA RESULT: -6.922175397      0.000      0.000
REMARK  4 active torsions:
REMARK  status: ('A' for Active; 'I' for Inactive)
REMARK    1  A    between atoms: C2_2  and  O1_3 
REMARK    2  A    between atoms: C3_6  and  C4_7 
REMARK    3  A    between atoms: C4_7  and  N1_8 
REMARK    4  A    between atoms: C5_13  and  C6_14 
ROOT
HETATM    1  C1  UNL     1      -4.544   5.236  13.501  1.00  0.00     0.083 C 
HETATM    2  C2  UNL     1      -5.357   4.082  14.097  1.00  0.00     0.199 C 
HETATM    3  O2  UNL     1      -5.256   3.031  13.278  1.00  0.00    -0.341 OA
HETATM    4  C3  UNL     1      -4.723   1.868  13.735  1.00  0.00     0.205 C 
HETATM    5  C5  UNL     1      -4.039   1.870  15.040  1.00  0.00     0.256 C 
HETATM    6  O5  UNL     1      -3.933   3.047  15.717  1.00  0.00    -0.346 OA
HETATM    7  C7  UNL     1      -4.961   3.908  15.512  1.00  0.00     0.280 C 
HETATM    8 CL1  UNL     1      -6.385   3.593  16.570  1.00  0.00    -0.089 Cl
ENDROOT
BRANCH   4   9
HETATM    9  C4  UNL     1      -3.801   1.349  12.620  1.00  0.00     0.286 C 
HETATM   10 BR1  UNL     1      -4.748   0.890  11.031  1.00  0.00    -0.058 Br
BRANCH   9  11
HETATM   11  N1  UNL     1      -2.725   2.277  12.343  1.00  0.00    -0.063 N 
ATOM     12  H13 UNL     1      -2.905   3.191  12.759  1.00  0.00     0.275 HD
ATOM     13  H12 UNL     1      -1.879   2.033  12.859  1.00  0.00     0.275 HD
ATOM     14  H11 UNL     1      -2.542   2.352  11.343  1.00  0.00     0.275 HD
ENDBRANCH   9  11
ENDBRANCH   4   9
BRANCH   5  15
HETATM   15  C6  UNL     1      -4.577   0.782  15.932  1.00  0.00     0.206 C 
HETATM   16  O3  UNL     1      -4.924  -0.321  15.443  1.00  0.00    -0.646 OA
HETATM   17  O4  UNL     1      -4.712   0.935  17.293  1.00  0.00    -0.646 OA
ENDBRANCH   5  15
BRANCH   2  18
HETATM   18  O1  UNL     1      -6.707   4.515  14.102  1.00  0.00    -0.363 OA
ATOM     19  H1  UNL     1      -7.212   3.808  13.719  1.00  0.00     0.213 HD
ENDBRANCH   2  18
TORSDOF 4
ENDMDL
MODEL 2
REMARK VINA RESULT: -6.511743872      1.040      1.040
REMARK  4 active torsions:
REMARK  status: ('A' for Active; 'I' for Inactive)
REMARK    1  A    between atoms: C2_2  and  O1_3 
REMARK    2  A    between atoms: C3_6  and  C4_7 
REMARK    3  A    between atoms: C4_7  and  N1_8 
REMARK    4  A    between atoms: C5_13  and  C6_14 
ROOT
HETATM    1  C1  UNL     1      -4.602   5.445  13.674  1.00  0.00     0.083 C 
HETATM    2  C2  UNL     1      -5.359   4.279  14.318  1.00  0.00     0.199 C 
HETATM    3  O2  UNL     1      -5.515   3.322  13.398  1.00  0.00    -0.341 OA
HETATM    4  C3  UNL     1      -4.990   2.087  13.612  1.00  0.00     0.205 C 
HETATM    5  C5  UNL     1      -4.047   1.905  14.730  1.00  0.00     0.256 C 
HETATM    6  O5  UNL     1      -3.710   2.991  15.479  1.00  0.00    -0.346 OA
HETATM    7  C7  UNL     1      -4.687   3.925  15.588  1.00  0.00     0.280 C 
HETATM    8 CL1  UNL     1      -5.876   3.573  16.896  1.00  0.00    -0.089 Cl
ENDROOT
BRANCH   4   9
HETATM    9  C4  UNL     1      -4.368   1.646  12.277  1.00  0.00     0.286 C 
HETATM   10 BR1  UNL     1      -2.783   2.611  11.846  1.00  0.00    -0.058 Br
BRANCH   9  11
HETATM   11  N1  UNL     1      -4.142   0.216  12.241  1.00  0.00    -0.063 N 
ATOM     12  H13 UNL     1      -3.695  -0.112  13.097  1.00  0.00     0.275 HD
ATOM     13  H12 UNL     1      -5.017  -0.302  12.311  1.00  0.00     0.275 HD
ATOM     14  H11 UNL     1      -3.611  -0.059  11.415  1.00  0.00     0.275 HD
ENDBRANCH   9  11
ENDBRANCH   4   9
BRANCH   5  15
HETATM   15  C6  UNL     1      -4.469   0.755  15.608  1.00  0.00     0.206 C 
HETATM   16  O3  UNL     1      -4.888  -0.311  15.093  1.00  0.00    -0.646 OA
HETATM   17  O4  UNL     1      -4.416   0.811  16.981  1.00  0.00    -0.646 OA
ENDBRANCH   5  15
BRANCH   2  18
HETATM   18  O1  UNL     1      -6.639   4.782  14.660  1.00  0.00    -0.363 OA
ATOM     19  H1  UNL     1      -6.584   5.043  15.571  1.00  0.00     0.213 HD
ENDBRANCH   2  18
TORSDOF 4
ENDMDL
MODEL 3
REMARK VINA RESULT: -6.303479582      2.812      3.589
REMARK  4 active torsions:
REMARK  status: ('A' for Active; 'I' for Inactive)
REMARK    1  A    between atoms: C2_2  and  O1_3 
REMARK    2  A    between atoms: C3_6  and  C4_7 
REMARK    3  A    between atoms: C4_7  and  N1_8 
REMARK    4  A    between atoms: C5_13  and  C6_14 
ROOT
HETATM    1  C1  UNL     1      -5.730   5.551  15.681  1.00  0.00     0.083 C 
HETATM    2  C2  UNL     1      -4.619   4.861  14.882  1.00  0.00     0.199 C 
HETATM    3  O2  UNL     1      -4.136   3.856  15.618  1.00  0.00    -0.341 OA
HETATM    4  C3  UNL     1      -4.202   2.582  15.149  1.00  0.00     0.205 C 
HETATM    5  C5  UNL     1      -5.030   2.310  13.961  1.00  0.00     0.256 C 
HETATM    6  O5  UNL     1      -5.728   3.339  13.405  1.00  0.00    -0.346 OA
HETATM    7  C7  UNL     1      -5.135   4.552  13.529  1.00  0.00     0.280 C 
HETATM    8 CL1  UNL     1      -3.905   4.887  12.255  1.00  0.00    -0.089 Cl
ENDROOT
BRANCH   4   9
HETATM    9  C4  UNL     1      -4.625   1.706  16.339  1.00  0.00     0.286 C 
HETATM   10 BR1  UNL     1      -6.376   2.113  16.972  1.00  0.00    -0.058 Br
BRANCH   9  11
HETATM   11  N1  UNL     1      -4.488   0.296  16.039  1.00  0.00    -0.063 N 
ATOM     12  H13 UNL     1      -5.260  -0.246  16.427  1.00  0.00     0.275 HD
ATOM     13  H12 UNL     1      -4.646   0.109  15.049  1.00  0.00     0.275 HD
ATOM     14  H11 UNL     1      -3.586  -0.067  16.347  1.00  0.00     0.275 HD
ENDBRANCH   9  11
ENDBRANCH   4   9
BRANCH   5  15
HETATM   15  C6  UNL     1      -4.242   1.565  12.914  1.00  0.00     0.206 C 
HETATM   16  O3  UNL     1      -4.796   0.682  12.217  1.00  0.00    -0.646 OA
HETATM   17  O4  UNL     1      -2.909   1.810  12.675  1.00  0.00    -0.646 OA
ENDBRANCH   5  15
BRANCH   2  18
HETATM   18  O1  UNL     1      -3.595   5.826  14.718  1.00  0.00    -0.363 OA
ATOM     19  H1  UNL     1      -3.890   6.408  14.028  1.00  0.00     0.213 HD
ENDBRANCH   2  18
TORSDOF 4
ENDMDL
MODEL 4
REMARK VINA RESULT: -6.129671335      3.254      4.162
REMARK  4 active torsions:
REMARK  status: ('A' for Active; 'I' for Inactive)
REMARK    1  A    between atoms: C2_2  and  O1_3 
REMARK    2  A    between atoms: C3_6  and  C4_7 
REMARK    3  A    between atoms: C4_7  and  N1_8 
REMARK    4  A    between atoms: C5_13  and  C6_14 
ROOT
HETATM    1  C1  UNL     1      -3.215   5.697  14.117  1.00  0.00     0.083 C 
HETATM    2  C2  UNL     1      -2.837   4.253  13.771  1.00  0.00     0.199 C 
HETATM    3  O2  UNL     1      -3.485   3.439  14.609  1.00  0.00    -0.341 OA
HETATM    4  C3  UNL     1      -4.350   2.513  14.117  1.00  0.00     0.205 C 
HETATM    5  C5  UNL     1      -4.745   2.598  12.700  1.00  0.00     0.256 C 
HETATM    6  O5  UNL     1      -4.258   3.626  11.950  1.00  0.00    -0.346 OA
HETATM    7  C7  UNL     1      -3.024   4.053  12.316  1.00  0.00     0.280 C 
HETATM    8 CL1  UNL     1      -1.684   3.085  11.599  1.00  0.00    -0.089 Cl
ENDROOT
BRANCH   4   9
HETATM    9  C4  UNL     1      -5.578   2.536  15.043  1.00  0.00     0.286 C 
HETATM   10 BR1  UNL     1      -5.195   1.889  16.794  1.00  0.00    -0.058 Br
BRANCH   9  11
HETATM   11  N1  UNL     1      -6.188   3.848  15.086  1.00  0.00    -0.063 N 
ATOM     12  H13 UNL     1      -6.146   4.248  16.024  1.00  0.00     0.275 HD
ATOM     13  H12 UNL     1      -5.621   4.539  14.594  1.00  0.00     0.275 HD
ATOM     14  H11 UNL     1      -7.143   3.829  14.731  1.00  0.00     0.275 HD
ENDBRANCH   9  11
ENDBRANCH   4   9
BRANCH   5  15
HETATM   15  C6  UNL     1      -4.539   1.278  12.003  1.00  0.00     0.206 C 
HETATM   16  O3  UNL     1      -4.447   0.220  12.672  1.00  0.00    -0.646 OA
HETATM   17  O4  UNL     1      -4.447   1.167  10.635  1.00  0.00    -0.646 OA
ENDBRANCH   5  15
BRANCH   2  18
HETATM   18  O1  UNL     1      -1.447   4.139  14.023  1.00  0.00    -0.363 OA
ATOM     19  H1  UNL     1      -1.067   3.768  13.236  1.00  0.00     0.213 HD
ENDBRANCH   2  18
TORSDOF 4
ENDMDL
MODEL 5
REMARK VINA RESULT: -6.127023600      3.217      4.130
REMARK  4 active torsions:
REMARK  status: ('A' for Active; 'I' for Inactive)
REMARK    1  A    between atoms: C2_2  and  O1_3 
REMARK    2  A    between atoms: C3_6  and  C4_7 
REMARK    3  A    between atoms: C4_7  and  N1_8 
REMARK    4  A    between atoms: C5_13  and  C6_14 
ROOT
HETATM    1  C1  UNL     1      -2.652   6.014  14.163  1.00  0.00     0.083 C 
HETATM    2  C2  UNL     1      -2.484   4.529  13.829  1.00  0.00     0.199 C 
HETATM    3  O2  UNL     1      -2.937   3.813  14.862  1.00  0.00    -0.341 OA
HETATM    4  C3  UNL     1      -3.965   2.943  14.682  1.00  0.00     0.205 C 
HETATM    5  C5  UNL     1      -4.721   2.995  13.418  1.00  0.00     0.256 C 
HETATM    6  O5  UNL     1      -4.384   3.941  12.498  1.00  0.00    -0.346 OA
HETATM    7  C7  UNL     1      -3.070   4.278  12.493  1.00  0.00     0.280 C 
HETATM    8 CL1  UNL     1      -2.046   3.166  11.513  1.00  0.00    -0.089 Cl
ENDROOT
BRANCH   4   9
HETATM    9  C4  UNL     1      -4.892   3.114  15.897  1.00  0.00     0.286 C 
HETATM   10 BR1  UNL     1      -5.974   4.678  15.786  1.00  0.00    -0.058 Br
BRANCH   9  11
HETATM   11  N1  UNL     1      -5.696   1.931  16.124  1.00  0.00    -0.063 N 
ATOM     12  H13 UNL     1      -6.692   2.145  16.089  1.00  0.00     0.275 HD
ATOM     13  H12 UNL     1      -5.644   1.287  15.335  1.00  0.00     0.275 HD
ATOM     14  H11 UNL     1      -5.444   1.470  16.998  1.00  0.00     0.275 HD
ENDBRANCH   9  11
ENDBRANCH   4   9
BRANCH   5  15
HETATM   15  C6  UNL     1      -4.805   1.631  12.783  1.00  0.00     0.206 C 
HETATM   16  O3  UNL     1      -4.453   0.613  13.428  1.00  0.00    -0.646 OA
HETATM   17  O4  UNL     1      -5.260   1.436  11.500  1.00  0.00    -0.646 OA
ENDBRANCH   5  15
BRANCH   2  18
HETATM   18  O1  UNL     1      -1.089   4.307  13.709  1.00  0.00    -0.363 OA
ATOM     19  H1  UNL     1      -0.755   4.246  14.596  1.00  0.00     0.213 HD
ENDBRANCH   2  18
TORSDOF 4
ENDMDL
