MODEL 1
REMARK VINA RESULT: -5.367620349      0.000      0.000
REMARK  12 active torsions:
REMARK  status: ('A' for Active; 'I' for Inactive)
REMARK    1  A    between atoms: N1_1  and  C1_4 
REMARK    2  A    between atoms: N5_16  and  C6_17 
REMARK    3  A    between atoms: C6_17  and  C7_18 
REMARK    4  A    between atoms: C7_18  and  C8_19 
REMARK    5  A    between atoms: C7_18  and  N13_44 
REMARK    6  A    between atoms: C8_19  and  C9_20 
REMARK    7  A    between atoms: C9_20  and  N6_21 
REMARK    8  A    between atoms: C10_26  and  C11_27 
REMARK    9  A    between atoms: C11_27  and  N9_28 
REMARK   10  A    between atoms: N9_28  and  C12_30 
REMARK   11  A    between atoms: N13_44  and  C17_46 
REMARK   12  A    between atoms: C17_46  and  O1_47 
ROOT
HETATM    1  C7  UNL     1      58.553  12.437  29.067  1.00  0.00     0.102 C 
ENDROOT
BRANCH   1   2
HETATM    2  C6  UNL     1      58.523  11.217  28.084  1.00  0.00     0.155 C 
BRANCH   2   3
HETATM    3  N5  UNL     1      58.839  10.032  28.811  1.00  0.00    -0.335 N 
HETATM    4  C3  UNL     1      59.755   9.101  28.833  1.00  0.00     0.125 A 
HETATM    5  C2  UNL     1      60.893   8.931  28.115  1.00  0.00     0.145 A 
HETATM    6  C4  UNL     1      59.415   8.101  29.770  1.00  0.00     0.152 A 
HETATM    7  N2  UNL     1      61.653   7.823  28.298  1.00  0.00    -0.175 N 
HETATM    8  N3  UNL     1      61.277   9.830  27.347  1.00  0.00    -0.383 N 
HETATM    9  C1  UNL     1      61.282   6.889  29.197  1.00  0.00     0.679 A 
ATOM     10  H2  UNL     1      62.507   7.696  27.756  1.00  0.00     0.186 HD
HETATM   11  N14 UNL     1      60.172   7.015  29.942  1.00  0.00    -0.174 N 
ATOM     12  H14 UNL     1      59.913   6.299  30.622  1.00  0.00     0.186 HD
ATOM     13  H32 UNL     1      62.133   9.702  26.807  1.00  0.00     0.157 HD
ATOM     14  H31 UNL     1      60.705  10.663  27.209  1.00  0.00     0.157 HD
HETATM   15  N4  UNL     1      58.260   8.500  30.308  1.00  0.00    -0.336 N 
HETATM   16  C5  UNL     1      57.901   9.638  29.760  1.00  0.00     0.185 A 
ATOM     17  H4  UNL     1      57.739   8.001  31.028  1.00  0.00     0.168 HD
BRANCH   9  18
HETATM   18  N1  UNL     1      61.975   5.807  29.344  1.00  0.00    -0.234 N 
ATOM     19  H12 UNL     1      62.943   5.910  29.648  1.00  0.00     0.174 HD
ATOM     20  H11 UNL     1      61.549   4.894  29.188  1.00  0.00     0.174 HD
ENDBRANCH   9  18
ENDBRANCH   2   3
ENDBRANCH   1   2
BRANCH   1  21
HETATM   21  C8  UNL     1      57.172  13.089  28.901  1.00  0.00     0.050 C 
BRANCH  21  22
HETATM   22  C9  UNL     1      56.702  13.072  27.439  1.00  0.00     0.173 C 
BRANCH  22  23
HETATM   23  N6  UNL     1      55.617  12.092  27.505  1.00  0.00    -0.218 N 
HETATM   24  N7  UNL     1      54.576  11.879  26.759  1.00  0.00    -0.225 N 
HETATM   25  N8  UNL     1      53.956  10.789  27.190  1.00  0.00    -0.271 N 
ATOM     26  H7  UNL     1      54.283  12.456  25.970  1.00  0.00     0.210 HD
HETATM   27  C10 UNL     1      54.646  10.307  28.240  1.00  0.00     0.131 A 
ATOM     28  H8  UNL     1      53.107  10.387  26.795  1.00  0.00     0.190 HD
HETATM   29  N12 UNL     1      55.668  11.117  28.432  1.00  0.00    -0.269 N 
ATOM     30  H12 UNL     1      56.377  11.021  29.160  1.00  0.00     0.190 HD
BRANCH  27  31
HETATM   31  C11 UNL     1      54.294   8.963  28.873  1.00  0.00     0.200 C 
BRANCH  31  32
HETATM   32  N9  UNL     1      54.013   8.169  27.667  1.00  0.00    -0.367 N 
ATOM     33  H9  UNL     1      53.201   8.424  27.105  1.00  0.00     0.161 HD
BRANCH  32  34
HETATM   34  C12 UNL     1      54.779   7.100  27.247  1.00  0.00     0.142 A 
HETATM   35  N10 UNL     1      54.385   5.827  27.107  1.00  0.00    -0.324 N 
HETATM   36  C13 UNL     1      55.199   4.867  26.674  1.00  0.00     0.140 A 
ATOM     37  H10 UNL     1      53.423   5.584  27.340  1.00  0.00     0.169 HD
HETATM   38  N11 UNL     1      54.781   3.623  26.580  1.00  0.00    -0.383 N 
HETATM   39  C14 UNL     1      56.500   5.130  26.340  1.00  0.00     0.162 A 
ATOM     40 2H11 UNL     1      53.812   3.426  26.829  1.00  0.00     0.157 HD
ATOM     41 1H11 UNL     1      55.405   2.887  26.249  1.00  0.00     0.157 HD
HETATM   42  F1  UNL     1      57.348   4.177  25.876  1.00  0.00    -0.202 F 
HETATM   43  C15 UNL     1      56.982   6.435  26.464  1.00  0.00     0.092 A 
HETATM   44  C16 UNL     1      56.129   7.398  26.915  1.00  0.00     0.163 A 
HETATM   45  F2  UNL     1      56.544   8.701  27.040  1.00  0.00    -0.202 F 
ENDBRANCH  32  34
ENDBRANCH  31  32
ENDBRANCH  27  31
ENDBRANCH  22  23
ENDBRANCH  21  22
ENDBRANCH   1  21
BRANCH   1  46
HETATM   46  N13 UNL     1      58.580  12.000  30.462  1.00  0.00    -0.375 N 
ATOM     47  H13 UNL     1      58.289  11.063  30.745  1.00  0.00     0.161 HD
BRANCH  46  48
HETATM   48  C17 UNL     1      59.034  12.958  31.390  1.00  0.00     0.219 C 
BRANCH  48  49
HETATM   49  O1  UNL     1      58.632  12.959  32.676  1.00  0.00    -0.357 OA
ATOM     50  H1  UNL     1      57.743  13.179  32.928  1.00  0.00     0.218 HD
ENDBRANCH  48  49
ENDBRANCH  46  48
ENDBRANCH   1  46
TORSDOF 12
ENDMDL
MODEL 2
REMARK VINA RESULT: -5.267488141      4.248      7.933
REMARK  12 active torsions:
REMARK  status: ('A' for Active; 'I' for Inactive)
REMARK    1  A    between atoms: N1_1  and  C1_4 
REMARK    2  A    between atoms: N5_16  and  C6_17 
REMARK    3  A    between atoms: C6_17  and  C7_18 
REMARK    4  A    between atoms: C7_18  and  C8_19 
REMARK    5  A    between atoms: C7_18  and  N13_44 
REMARK    6  A    between atoms: C8_19  and  C9_20 
REMARK    7  A    between atoms: C9_20  and  N6_21 
REMARK    8  A    between atoms: C10_26  and  C11_27 
REMARK    9  A    between atoms: C11_27  and  N9_28 
REMARK   10  A    between atoms: N9_28  and  C12_30 
REMARK   11  A    between atoms: N13_44  and  C17_46 
REMARK   12  A    between atoms: C17_46  and  O1_47 
ROOT
HETATM    1  C7  UNL     1      57.329  12.082  29.371  1.00  0.00     0.102 C 
ENDROOT
BRANCH   1   2
HETATM    2  C6  UNL     1      57.365  10.615  29.922  1.00  0.00     0.155 C 
BRANCH   2   3
HETATM    3  N5  UNL     1      56.517   9.800  29.117  1.00  0.00    -0.335 N 
HETATM    4  C3  UNL     1      56.595   8.740  28.358  1.00  0.00     0.125 A 
HETATM    5  C2  UNL     1      57.627   7.911  28.062  1.00  0.00     0.145 A 
HETATM    6  C4  UNL     1      55.355   8.493  27.732  1.00  0.00     0.152 A 
HETATM    7  N2  UNL     1      57.451   6.896  27.181  1.00  0.00    -0.175 N 
HETATM    8  N3  UNL     1      58.709   8.036  28.661  1.00  0.00    -0.383 N 
HETATM    9  C1  UNL     1      56.250   6.706  26.598  1.00  0.00     0.679 A 
ATOM     10  H2  UNL     1      58.229   6.275  26.958  1.00  0.00     0.186 HD
HETATM   11  N14 UNL     1      55.194   7.490  26.865  1.00  0.00    -0.174 N 
ATOM     12  H14 UNL     1      54.292   7.324  26.419  1.00  0.00     0.186 HD
ATOM     13  H32 UNL     1      59.485   7.413  28.438  1.00  0.00     0.157 HD
ATOM     14  H31 UNL     1      58.841   8.800  29.324  1.00  0.00     0.157 HD
HETATM   15  N4  UNL     1      54.539   9.454  28.174  1.00  0.00    -0.336 N 
HETATM   16  C5  UNL     1      55.201  10.236  28.995  1.00  0.00     0.185 A 
ATOM     17  H4  UNL     1      53.559   9.563  27.914  1.00  0.00     0.168 HD
BRANCH   9  18
HETATM   18  N1  UNL     1      56.087   5.770  25.720  1.00  0.00    -0.234 N 
ATOM     19  H12 UNL     1      56.501   5.914  24.800  1.00  0.00     0.174 HD
ATOM     20  H11 UNL     1      55.587   4.915  25.963  1.00  0.00     0.174 HD
ENDBRANCH   9  18
ENDBRANCH   2   3
ENDBRANCH   1   2
BRANCH   1  21
HETATM   21  C8  UNL     1      58.686  12.673  29.782  1.00  0.00     0.050 C 
BRANCH  21  22
HETATM   22  C9  UNL     1      59.182  12.095  31.116  1.00  0.00     0.173 C 
BRANCH  22  23
HETATM   23  N6  UNL     1      59.569  13.317  31.824  1.00  0.00    -0.218 N 
HETATM   24  N7  UNL     1      60.721  13.854  32.088  1.00  0.00    -0.225 N 
HETATM   25  N8  UNL     1      60.522  15.030  32.667  1.00  0.00    -0.271 N 
ATOM     26  H7  UNL     1      61.630  13.440  31.883  1.00  0.00     0.210 HD
HETATM   27  C10 UNL     1      59.194  15.229  32.758  1.00  0.00     0.131 A 
ATOM     28  H8  UNL     1      61.248  15.671  32.987  1.00  0.00     0.190 HD
HETATM   29  N12 UNL     1      58.610  14.167  32.239  1.00  0.00    -0.269 N 
ATOM     30  H12 UNL     1      57.604  14.015  32.165  1.00  0.00     0.190 HD
BRANCH  27  31
HETATM   31  C11 UNL     1      58.621  16.562  33.230  1.00  0.00     0.200 C 
BRANCH  31  32
HETATM   32  N9  UNL     1      57.581  16.090  34.158  1.00  0.00    -0.367 N 
ATOM     33  H9  UNL     1      57.844  15.936  35.131  1.00  0.00     0.161 HD
BRANCH  32  34
HETATM   34  C12 UNL     1      56.273  15.842  33.794  1.00  0.00     0.142 A 
HETATM   35  N10 UNL     1      55.432  14.957  34.347  1.00  0.00    -0.324 N 
HETATM   36  C13 UNL     1      54.176  14.806  33.936  1.00  0.00     0.140 A 
ATOM     37  H10 UNL     1      55.769  14.376  35.115  1.00  0.00     0.169 HD
HETATM   38  N11 UNL     1      53.392  13.903  34.485  1.00  0.00    -0.383 N 
HETATM   39  C14 UNL     1      53.664  15.559  32.914  1.00  0.00     0.162 A 
ATOM     40 2H11 UNL     1      53.773  13.342  35.246  1.00  0.00     0.157 HD
ATOM     41 1H11 UNL     1      52.429  13.787  34.169  1.00  0.00     0.157 HD
HETATM   42  F1  UNL     1      52.380  15.444  32.486  1.00  0.00    -0.202 F 
HETATM   43  C15 UNL     1      54.483  16.501  32.288  1.00  0.00     0.092 A 
HETATM   44  C16 UNL     1      55.768  16.632  32.725  1.00  0.00     0.163 A 
HETATM   45  F2  UNL     1      56.612  17.553  32.157  1.00  0.00    -0.202 F 
ENDBRANCH  32  34
ENDBRANCH  31  32
ENDBRANCH  27  31
ENDBRANCH  22  23
ENDBRANCH  21  22
ENDBRANCH   1  21
BRANCH   1  46
HETATM   46  N13 UNL     1      57.355  12.105  27.909  1.00  0.00    -0.375 N 
ATOM     47  H13 UNL     1      57.692  11.316  27.358  1.00  0.00     0.161 HD
BRANCH  46  48
HETATM   48  C17 UNL     1      56.883  13.291  27.312  1.00  0.00     0.219 C 
BRANCH  48  49
HETATM   49  O1  UNL     1      56.330  13.306  26.084  1.00  0.00    -0.357 OA
ATOM     50  H1  UNL     1      55.404  13.467  25.948  1.00  0.00     0.218 HD
ENDBRANCH  48  49
ENDBRANCH  46  48
ENDBRANCH   1  46
TORSDOF 12
ENDMDL
MODEL 3
REMARK VINA RESULT: -5.223903121      3.568      7.221
REMARK  12 active torsions:
REMARK  status: ('A' for Active; 'I' for Inactive)
REMARK    1  A    between atoms: N1_1  and  C1_4 
REMARK    2  A    between atoms: N5_16  and  C6_17 
REMARK    3  A    between atoms: C6_17  and  C7_18 
REMARK    4  A    between atoms: C7_18  and  C8_19 
REMARK    5  A    between atoms: C7_18  and  N13_44 
REMARK    6  A    between atoms: C8_19  and  C9_20 
REMARK    7  A    between atoms: C9_20  and  N6_21 
REMARK    8  A    between atoms: C10_26  and  C11_27 
REMARK    9  A    between atoms: C11_27  and  N9_28 
REMARK   10  A    between atoms: N9_28  and  C12_30 
REMARK   11  A    between atoms: N13_44  and  C17_46 
REMARK   12  A    between atoms: C17_46  and  O1_47 
ROOT
HETATM    1  C7  UNL     1      56.253   7.445  27.473  1.00  0.00     0.102 C 
ENDROOT
BRANCH   1   2
HETATM    2  C6  UNL     1      57.754   7.699  27.102  1.00  0.00     0.155 C 
BRANCH   2   3
HETATM    3  N5  UNL     1      58.477   8.006  28.292  1.00  0.00    -0.335 N 
HETATM    4  C3  UNL     1      59.594   8.582  28.648  1.00  0.00     0.125 A 
HETATM    5  C2  UNL     1      60.561   9.207  27.931  1.00  0.00     0.145 A 
HETATM    6  C4  UNL     1      59.785   8.460  30.041  1.00  0.00     0.152 A 
HETATM    7  N2  UNL     1      61.671   9.677  28.553  1.00  0.00    -0.175 N 
HETATM    8  N3  UNL     1      60.390   9.418  26.719  1.00  0.00    -0.383 N 
HETATM    9  C1  UNL     1      61.815   9.526  29.885  1.00  0.00     0.679 A 
ATOM     10  H2  UNL     1      62.398  10.145  28.012  1.00  0.00     0.186 HD
HETATM   11  N14 UNL     1      60.882   8.926  30.642  1.00  0.00    -0.174 N 
ATOM     12  H14 UNL     1      61.008   8.830  31.650  1.00  0.00     0.186 HD
ATOM     13  H32 UNL     1      61.118   9.888  26.179  1.00  0.00     0.157 HD
ATOM     14  H31 UNL     1      59.555   9.064  26.251  1.00  0.00     0.157 HD
HETATM   15  N4  UNL     1      58.716   7.795  30.487  1.00  0.00    -0.336 N 
HETATM   16  C5  UNL     1      57.928   7.519  29.473  1.00  0.00     0.185 A 
ATOM     17  H4  UNL     1      58.540   7.543  31.459  1.00  0.00     0.168 HD
BRANCH   9  18
HETATM   18  N1  UNL     1      62.891   9.929  30.479  1.00  0.00    -0.234 N 
ATOM     19  H12 UNL     1      63.749   9.952  29.927  1.00  0.00     0.174 HD
ATOM     20  H11 UNL     1      62.862  10.236  31.451  1.00  0.00     0.174 HD
ENDBRANCH   9  18
ENDBRANCH   2   3
ENDBRANCH   1   2
BRANCH   1  21
HETATM   21  C8  UNL     1      55.571   8.800  27.234  1.00  0.00     0.050 C 
BRANCH  21  22
HETATM   22  C9  UNL     1      54.614   9.171  28.376  1.00  0.00     0.173 C 
BRANCH  22  23
HETATM   23  N6  UNL     1      55.535   9.810  29.317  1.00  0.00    -0.218 N 
HETATM   24  N7  UNL     1      55.774   9.624  30.580  1.00  0.00    -0.225 N 
HETATM   25  N8  UNL     1      56.789  10.396  30.942  1.00  0.00    -0.271 N 
ATOM     26  H7  UNL     1      55.263   8.988  31.193  1.00  0.00     0.210 HD
HETATM   27  C10 UNL     1      57.197  11.081  29.857  1.00  0.00     0.131 A 
ATOM     28  H8  UNL     1      57.190  10.459  31.877  1.00  0.00     0.190 HD
HETATM   29  N12 UNL     1      56.418  10.718  28.858  1.00  0.00    -0.269 N 
ATOM     30  H12 UNL     1      56.474  11.065  27.900  1.00  0.00     0.190 HD
BRANCH  27  31
HETATM   31  C11 UNL     1      58.457  11.942  29.889  1.00  0.00     0.200 C 
BRANCH  31  32
HETATM   32  N9  UNL     1      58.501  12.293  31.317  1.00  0.00    -0.367 N 
ATOM     33  H9  UNL     1      58.395  11.541  31.997  1.00  0.00     0.161 HD
BRANCH  32  34
HETATM   34  C12 UNL     1      58.678  13.577  31.793  1.00  0.00     0.142 A 
HETATM   35  N10 UNL     1      57.726  14.428  32.201  1.00  0.00    -0.324 N 
HETATM   36  C13 UNL     1      58.001  15.644  32.665  1.00  0.00     0.140 A 
ATOM     37  H10 UNL     1      56.752  14.130  32.155  1.00  0.00     0.169 HD
HETATM   38  N11 UNL     1      57.035  16.461  33.026  1.00  0.00    -0.383 N 
HETATM   39  C14 UNL     1      59.289  16.099  32.757  1.00  0.00     0.162 A 
ATOM     40 2H11 UNL     1      56.076  16.122  32.958  1.00  0.00     0.157 HD
ATOM     41 1H11 UNL     1      57.245  17.393  33.381  1.00  0.00     0.157 HD
HETATM   42  F1  UNL     1      59.603  17.326  33.246  1.00  0.00    -0.202 F 
HETATM   43  C15 UNL     1      60.334  15.268  32.347  1.00  0.00     0.092 A 
HETATM   44  C16 UNL     1      60.024  14.029  31.870  1.00  0.00     0.163 A 
HETATM   45  F2  UNL     1      61.012  13.164  31.469  1.00  0.00    -0.202 F 
ENDBRANCH  32  34
ENDBRANCH  31  32
ENDBRANCH  27  31
ENDBRANCH  22  23
ENDBRANCH  21  22
ENDBRANCH   1  21
BRANCH   1  46
HETATM   46  N13 UNL     1      55.610   6.544  26.517  1.00  0.00    -0.375 N 
ATOM     47  H13 UNL     1      54.788   6.819  25.979  1.00  0.00     0.161 HD
BRANCH  46  48
HETATM   48  C17 UNL     1      56.202   5.272  26.389  1.00  0.00     0.219 C 
BRANCH  48  49
HETATM   49  O1  UNL     1      57.037   4.968  25.377  1.00  0.00    -0.357 OA
ATOM     50  H1  UNL     1      56.978   4.148  24.901  1.00  0.00     0.218 HD
ENDBRANCH  48  49
ENDBRANCH  46  48
ENDBRANCH   1  46
TORSDOF 12
ENDMDL
MODEL 4
REMARK VINA RESULT: -5.073318743      0.453      1.515
REMARK  12 active torsions:
REMARK  status: ('A' for Active; 'I' for Inactive)
REMARK    1  A    between atoms: N1_1  and  C1_4 
REMARK    2  A    between atoms: N5_16  and  C6_17 
REMARK    3  A    between atoms: C6_17  and  C7_18 
REMARK    4  A    between atoms: C7_18  and  C8_19 
REMARK    5  A    between atoms: C7_18  and  N13_44 
REMARK    6  A    between atoms: C8_19  and  C9_20 
REMARK    7  A    between atoms: C9_20  and  N6_21 
REMARK    8  A    between atoms: C10_26  and  C11_27 
REMARK    9  A    between atoms: C11_27  and  N9_28 
REMARK   10  A    between atoms: N9_28  and  C12_30 
REMARK   11  A    between atoms: N13_44  and  C17_46 
REMARK   12  A    between atoms: C17_46  and  O1_47 
ROOT
HETATM    1  C7  UNL     1      58.609  12.180  28.972  1.00  0.00     0.102 C 
ENDROOT
BRANCH   1   2
HETATM    2  C6  UNL     1      58.231  10.967  28.054  1.00  0.00     0.155 C 
BRANCH   2   3
HETATM    3  N5  UNL     1      59.356  10.097  27.955  1.00  0.00    -0.335 N 
HETATM    4  C3  UNL     1      59.835   9.032  28.539  1.00  0.00     0.125 A 
HETATM    5  C2  UNL     1      59.355   8.253  29.541  1.00  0.00     0.145 A 
HETATM    6  C4  UNL     1      61.103   8.710  28.010  1.00  0.00     0.152 A 
HETATM    7  N2  UNL     1      60.093   7.217  30.010  1.00  0.00    -0.175 N 
HETATM    8  N3  UNL     1      58.205   8.443  29.972  1.00  0.00    -0.383 N 
HETATM    9  C1  UNL     1      61.306   6.956  29.480  1.00  0.00     0.679 A 
ATOM     10  H2  UNL     1      59.732   6.634  30.764  1.00  0.00     0.186 HD
HETATM   11  N14 UNL     1      61.822   7.688  28.479  1.00  0.00    -0.174 N 
ATOM     12  H14 UNL     1      62.738   7.468  28.088  1.00  0.00     0.186 HD
ATOM     13  H32 UNL     1      57.844   7.858  30.726  1.00  0.00     0.157 HD
ATOM     14  H31 UNL     1      57.649   9.223  29.619  1.00  0.00     0.157 HD
HETATM   15  N4  UNL     1      61.338   9.634  27.074  1.00  0.00    -0.336 N 
HETATM   16  C5  UNL     1      60.320  10.462  27.021  1.00  0.00     0.185 A 
ATOM     17  H4  UNL     1      62.175   9.688  26.494  1.00  0.00     0.168 HD
BRANCH   9  18
HETATM   18  N1  UNL     1      62.037   6.000  29.953  1.00  0.00    -0.234 N 
ATOM     19  H12 UNL     1      61.826   5.052  29.642  1.00  0.00     0.174 HD
ATOM     20  H11 UNL     1      62.808   6.205  30.588  1.00  0.00     0.174 HD
ENDBRANCH   9  18
ENDBRANCH   2   3
ENDBRANCH   1   2
BRANCH   1  21
HETATM   21  C8  UNL     1      57.406  13.128  28.858  1.00  0.00     0.050 C 
BRANCH  21  22
HETATM   22  C9  UNL     1      56.829  13.155  27.435  1.00  0.00     0.173 C 
BRANCH  22  23
HETATM   23  N6  UNL     1      55.740  12.186  27.555  1.00  0.00    -0.218 N 
HETATM   24  N7  UNL     1      54.652  11.992  26.873  1.00  0.00    -0.225 N 
HETATM   25  N8  UNL     1      54.049  10.903  27.328  1.00  0.00    -0.271 N 
ATOM     26  H7  UNL     1      54.318  12.583  26.111  1.00  0.00     0.210 HD
HETATM   27  C10 UNL     1      54.797  10.401  28.327  1.00  0.00     0.131 A 
ATOM     28  H8  UNL     1      53.172  10.515  26.981  1.00  0.00     0.190 HD
HETATM   29  N12 UNL     1      55.838  11.197  28.466  1.00  0.00    -0.269 N 
ATOM     30  H12 UNL     1      56.589  11.085  29.147  1.00  0.00     0.190 HD
BRANCH  27  31
HETATM   31  C11 UNL     1      54.470   9.052  28.964  1.00  0.00     0.200 C 
BRANCH  31  32
HETATM   32  N9  UNL     1      54.128   8.270  27.765  1.00  0.00    -0.367 N 
ATOM     33  H9  UNL     1      53.308   8.552  27.229  1.00  0.00     0.161 HD
BRANCH  32  34
HETATM   34  C12 UNL     1      54.849   7.180  27.321  1.00  0.00     0.142 A 
HETATM   35  N10 UNL     1      54.408   5.923  27.176  1.00  0.00    -0.324 N 
HETATM   36  C13 UNL     1      55.179   4.939  26.718  1.00  0.00     0.140 A 
ATOM     37  H10 UNL     1      53.443   5.711  27.425  1.00  0.00     0.169 HD
HETATM   38  N11 UNL     1      54.717   3.712  26.620  1.00  0.00    -0.383 N 
HETATM   39  C14 UNL     1      56.482   5.161  26.362  1.00  0.00     0.162 A 
ATOM     40 2H11 UNL     1      53.747   3.546  26.886  1.00  0.00     0.157 HD
ATOM     41 1H11 UNL     1      55.308   2.958  26.270  1.00  0.00     0.157 HD
HETATM   42  F1  UNL     1      57.288   4.184  25.871  1.00  0.00    -0.202 F 
HETATM   43  C15 UNL     1      57.012   6.447  26.488  1.00  0.00     0.092 A 
HETATM   44  C16 UNL     1      56.201   7.435  26.965  1.00  0.00     0.163 A 
HETATM   45  F2  UNL     1      56.664   8.720  27.095  1.00  0.00    -0.202 F 
ENDBRANCH  32  34
ENDBRANCH  31  32
ENDBRANCH  27  31
ENDBRANCH  22  23
ENDBRANCH  21  22
ENDBRANCH   1  21
BRANCH   1  46
HETATM   46  N13 UNL     1      58.634  11.797  30.382  1.00  0.00    -0.375 N 
ATOM     47  H13 UNL     1      58.400  10.854  30.695  1.00  0.00     0.161 HD
BRANCH  46  48
HETATM   48  C17 UNL     1      59.002  12.817  31.282  1.00  0.00     0.219 C 
BRANCH  48  49
HETATM   49  O1  UNL     1      58.609  12.814  32.571  1.00  0.00    -0.357 OA
ATOM     50  H1  UNL     1      57.693  12.781  32.820  1.00  0.00     0.218 HD
ENDBRANCH  48  49
ENDBRANCH  46  48
ENDBRANCH   1  46
TORSDOF 12
ENDMDL
MODEL 5
REMARK VINA RESULT: -4.888916629      4.273      7.482
REMARK  12 active torsions:
REMARK  status: ('A' for Active; 'I' for Inactive)
REMARK    1  A    between atoms: N1_1  and  C1_4 
REMARK    2  A    between atoms: N5_16  and  C6_17 
REMARK    3  A    between atoms: C6_17  and  C7_18 
REMARK    4  A    between atoms: C7_18  and  C8_19 
REMARK    5  A    between atoms: C7_18  and  N13_44 
REMARK    6  A    between atoms: C8_19  and  C9_20 
REMARK    7  A    between atoms: C9_20  and  N6_21 
REMARK    8  A    between atoms: C10_26  and  C11_27 
REMARK    9  A    between atoms: C11_27  and  N9_28 
REMARK   10  A    between atoms: N9_28  and  C12_30 
REMARK   11  A    between atoms: N13_44  and  C17_46 
REMARK   12  A    between atoms: C17_46  and  O1_47 
ROOT
HETATM    1  C7  UNL     1      57.380  12.104  28.858  1.00  0.00     0.102 C 
ENDROOT
BRANCH   1   2
HETATM    2  C6  UNL     1      57.621  10.844  27.958  1.00  0.00     0.155 C 
BRANCH   2   3
HETATM    3  N5  UNL     1      58.187   9.809  28.759  1.00  0.00    -0.335 N 
HETATM    4  C3  UNL     1      59.262   9.068  28.801  1.00  0.00     0.125 A 
HETATM    5  C2  UNL     1      60.378   9.046  28.031  1.00  0.00     0.145 A 
HETATM    6  C4  UNL     1      59.159   8.113  29.834  1.00  0.00     0.152 A 
HETATM    7  N2  UNL     1      61.341   8.118  28.258  1.00  0.00    -0.175 N 
HETATM    8  N3  UNL     1      60.552   9.927  27.172  1.00  0.00    -0.383 N 
HETATM    9  C1  UNL     1      61.193   7.218  29.251  1.00  0.00     0.679 A 
ATOM     10  H2  UNL     1      62.179   8.102  27.678  1.00  0.00     0.186 HD
HETATM   11  N14 UNL     1      60.113   7.204  30.048  1.00  0.00    -0.174 N 
ATOM     12  H14 UNL     1      60.024   6.518  30.798  1.00  0.00     0.186 HD
ATOM     13  H32 UNL     1      61.392   9.910  26.593  1.00  0.00     0.157 HD
ATOM     14  H31 UNL     1      59.828  10.624  27.002  1.00  0.00     0.157 HD
HETATM   15  N4  UNL     1      57.973   8.339  30.407  1.00  0.00    -0.336 N 
HETATM   16  C5  UNL     1      57.382   9.337  29.791  1.00  0.00     0.185 A 
ATOM     17  H4  UNL     1      57.589   7.820  31.195  1.00  0.00     0.168 HD
BRANCH   9  18
HETATM   18  N1  UNL     1      62.084   6.300  29.443  1.00  0.00    -0.234 N 
ATOM     19  H12 UNL     1      61.782   5.446  29.912  1.00  0.00     0.174 HD
ATOM     20  H11 UNL     1      63.038   6.427  29.106  1.00  0.00     0.174 HD
ENDBRANCH   9  18
ENDBRANCH   2   3
ENDBRANCH   1   2
BRANCH   1  21
HETATM   21  C8  UNL     1      58.745  12.370  29.509  1.00  0.00     0.050 C 
BRANCH  21  22
HETATM   22  C9  UNL     1      58.727  12.080  31.018  1.00  0.00     0.173 C 
BRANCH  22  23
HETATM   23  N6  UNL     1      59.276  13.328  31.550  1.00  0.00    -0.218 N 
HETATM   24  N7  UNL     1      60.423  13.918  31.405  1.00  0.00    -0.225 N 
HETATM   25  N8  UNL     1      60.380  15.094  32.016  1.00  0.00    -0.271 N 
ATOM     26  H7  UNL     1      61.226  13.538  30.903  1.00  0.00     0.210 HD
HETATM   27  C10 UNL     1      59.155  15.237  32.554  1.00  0.00     0.131 A 
ATOM     28  H8  UNL     1      61.142  15.770  32.068  1.00  0.00     0.190 HD
HETATM   29  N12 UNL     1      58.479  14.144  32.266  1.00  0.00    -0.269 N 
ATOM     30  H12 UNL     1      57.515  13.948  32.539  1.00  0.00     0.190 HD
BRANCH  27  31
HETATM   31  C11 UNL     1      58.717  16.553  33.191  1.00  0.00     0.200 C 
BRANCH  31  32
HETATM   32  N9  UNL     1      57.684  16.066  34.120  1.00  0.00    -0.367 N 
ATOM     33  H9  UNL     1      57.958  15.882  35.084  1.00  0.00     0.161 HD
BRANCH  32  34
HETATM   34  C12 UNL     1      56.369  15.844  33.767  1.00  0.00     0.142 A 
HETATM   35  N10 UNL     1      55.512  14.983  34.334  1.00  0.00    -0.324 N 
HETATM   36  C13 UNL     1      54.250  14.855  33.931  1.00  0.00     0.140 A 
ATOM     37  H10 UNL     1      55.841  14.402  35.104  1.00  0.00     0.169 HD
HETATM   38  N11 UNL     1      53.451  13.975  34.494  1.00  0.00    -0.383 N 
HETATM   39  C14 UNL     1      53.748  15.610  32.906  1.00  0.00     0.162 A 
ATOM     40 2H11 UNL     1      53.825  13.413  35.258  1.00  0.00     0.157 HD
ATOM     41 1H11 UNL     1      52.483  13.876  34.186  1.00  0.00     0.157 HD
HETATM   42  F1  UNL     1      52.459  15.519  32.487  1.00  0.00    -0.202 F 
HETATM   43  C15 UNL     1      54.583  16.528  32.265  1.00  0.00     0.092 A 
HETATM   44  C16 UNL     1      55.873  16.634  32.693  1.00  0.00     0.163 A 
HETATM   45  F2  UNL     1      56.734  17.531  32.111  1.00  0.00    -0.202 F 
ENDBRANCH  32  34
ENDBRANCH  31  32
ENDBRANCH  27  31
ENDBRANCH  22  23
ENDBRANCH  21  22
ENDBRANCH   1  21
BRANCH   1  46
HETATM   46  N13 UNL     1      57.128  13.297  28.051  1.00  0.00    -0.375 N 
ATOM     47  H13 UNL     1      57.607  14.182  28.222  1.00  0.00     0.161 HD
BRANCH  46  48
HETATM   48  C17 UNL     1      56.179  13.144  27.021  1.00  0.00     0.219 C 
BRANCH  48  49
HETATM   49  O1  UNL     1      56.448  13.474  25.742  1.00  0.00    -0.357 OA
ATOM     50  H1  UNL     1      57.241  13.191  25.303  1.00  0.00     0.218 HD
ENDBRANCH  48  49
ENDBRANCH  46  48
ENDBRANCH   1  46
TORSDOF 12
ENDMDL
