MODEL 1
REMARK VINA RESULT: -1.832409132      0.000      0.000
REMARK  15 active torsions:
REMARK  status: ('A' for Active; 'I' for Inactive)
REMARK    1  A    between atoms: C5_10  and  N4_11 
REMARK    2  A    between atoms: C6_14  and  C7_15 
REMARK    3  A    between atoms: C8_18  and  N6_19 
REMARK    4  A    between atoms: N7_22  and  C9_23 
REMARK    5  A    between atoms: C9_23  and  C10_24 
REMARK    6  A    between atoms: C10_24  and  C11_25 
REMARK    7  A    between atoms: C11_25  and  C13_27 
REMARK    8  A    between atoms: C11_25  and  C17_41 
REMARK    9  A    between atoms: C13_27  and  O1_28 
REMARK   10  A    between atoms: N8_30  and  C14_32 
REMARK   11  A    between atoms: C14_32  and  C15_33 
REMARK   12  A    between atoms: C14_32  and  C16_36 
REMARK   13  A    between atoms: C15_33  and  O2_34 
REMARK   14  A    between atoms: C16_36  and  O3_37 
REMARK   15  A    between atoms: C16_36  and  O4_39 
ROOT
HETATM    1  C1  UNL     1      55.713  10.013  29.493  1.00  0.00     0.069 C 
HETATM    2  C2  UNL     1      55.855  11.161  28.531  1.00  0.00     0.025 A 
HETATM    3  N1  UNL     1      54.887  11.388  27.627  1.00  0.00    -0.337 N 
ATOM      4  H1  UNL     1      54.083  10.760  27.613  1.00  0.00     0.168 HD
HETATM    5  C3  UNL     1      54.921  12.390  26.747  1.00  0.00     0.190 A 
HETATM    6  C4  UNL     1      53.844  12.595  25.786  1.00  0.00     0.137 C 
HETATM    7  N2  UNL     1      53.013  12.764  25.025  1.00  0.00    -0.188 NA
HETATM    8  N3  UNL     1      55.979  13.192  26.783  1.00  0.00    -0.319 N 
ATOM      9  H3  UNL     1      56.016  13.962  26.115  1.00  0.00     0.169 HD
HETATM   10  C5  UNL     1      57.029  13.054  27.665  1.00  0.00     0.117 A 
HETATM   11  C6  UNL     1      56.977  12.008  28.575  1.00  0.00     0.076 A 
ENDROOT
BRANCH  10  12
HETATM   12  N4  UNL     1      57.986  13.851  27.586  1.00  0.00    -0.385 N 
ATOM     13  H42 UNL     1      58.338  14.222  26.704  1.00  0.00     0.157 HD
ATOM     14  H41 UNL     1      58.429  14.170  28.447  1.00  0.00     0.157 HD
ENDBRANCH  10  12
BRANCH  11  15
HETATM   15  C7  UNL     1      58.026  11.724  29.520  1.00  0.00     0.152 A 
HETATM   16  N5  UNL     1      58.308  12.520  30.584  1.00  0.00    -0.173 N 
HETATM   17  C8  UNL     1      59.289  11.990  31.325  1.00  0.00     0.694 A 
ATOM     18  H5  UNL     1      57.837  13.400  30.790  1.00  0.00     0.186 HD
HETATM   19  N7  UNL     1      59.634  10.842  30.721  1.00  0.00    -0.122 N 
HETATM   20  N9  UNL     1      58.861  10.706  29.643  1.00  0.00    -0.268 N 
ATOM     21  H9  UNL     1      58.909   9.919  28.995  1.00  0.00     0.189 HD
BRANCH  17  22
HETATM   22  N6  UNL     1      59.785  12.511  32.412  1.00  0.00    -0.233 N 
ATOM     23  H62 UNL     1      59.290  12.812  33.252  1.00  0.00     0.174 HD
ATOM     24  H61 UNL     1      60.773  12.701  32.583  1.00  0.00     0.174 HD
ENDBRANCH  17  22
BRANCH  19  25
HETATM   25  C9  UNL     1      60.688   9.945  31.225  1.00  0.00     0.169 C 
BRANCH  25  26
HETATM   26  C10 UNL     1      61.244   9.215  30.076  1.00  0.00     0.049 C 
BRANCH  26  27
HETATM   27  C11 UNL     1      60.626   7.949  29.605  1.00  0.00     0.120 C 
HETATM   28  C12 UNL     1      59.927   7.337  30.777  1.00  0.00     0.034 C 
BRANCH  27  29
HETATM   29  C13 UNL     1      59.798   8.119  28.407  1.00  0.00     0.129 C 
HETATM   30  N8  UNL     1      59.945   9.197  27.588  1.00  0.00    -0.362 N 
ATOM     31  H8  UNL     1      59.218   9.910  27.647  1.00  0.00     0.162 HD
BRANCH  29  32
HETATM   32  O1  UNL     1      58.489   7.596  28.561  1.00  0.00    -0.349 OA
ATOM     33  H1  UNL     1      58.421   6.686  28.297  1.00  0.00     0.219 HD
ENDBRANCH  29  32
BRANCH  30  34
HETATM   34  C14 UNL     1      60.966   9.440  26.686  1.00  0.00     0.161 C 
BRANCH  34  35
HETATM   35  C15 UNL     1      60.733   8.620  25.391  1.00  0.00     0.194 C 
BRANCH  35  36
HETATM   36  O2  UNL     1      59.377   8.407  25.252  1.00  0.00    -0.399 OA
ATOM     37  H2  UNL     1      59.191   8.271  24.331  1.00  0.00     0.209 HD
ENDBRANCH  35  36
ENDBRANCH  34  35
BRANCH  34  38
HETATM   38  C16 UNL     1      61.086  10.888  26.232  1.00  0.00     0.278 C 
BRANCH  38  39
HETATM   39  O3  UNL     1      60.204  11.657  26.975  1.00  0.00    -0.369 OA
ATOM     40  H3  UNL     1      60.619  11.877  27.801  1.00  0.00     0.212 HD
ENDBRANCH  38  39
BRANCH  38  41
HETATM   41  O4  UNL     1      62.373  11.375  26.276  1.00  0.00    -0.369 OA
ATOM     42  H4  UNL     1      62.485  12.198  25.814  1.00  0.00     0.212 HD
ENDBRANCH  38  41
ENDBRANCH  34  38
ENDBRANCH  30  34
ENDBRANCH  27  29
BRANCH  27  43
HETATM   43  C17 UNL     1      61.748   6.899  29.311  1.00  0.00     0.402 C 
HETATM   44  F1  UNL     1      62.657   7.020  30.356  1.00  0.00    -0.170 F 
HETATM   45  F2  UNL     1      61.305   5.633  29.316  1.00  0.00    -0.170 F 
HETATM   46  F3  UNL     1      62.397   7.200  28.154  1.00  0.00    -0.170 F 
ENDBRANCH  27  43
ENDBRANCH  26  27
ENDBRANCH  25  26
ENDBRANCH  19  25
ENDBRANCH  11  15
TORSDOF 15
ENDMDL
MODEL 2
REMARK VINA RESULT: -1.412493988      1.362      2.507
REMARK  15 active torsions:
REMARK  status: ('A' for Active; 'I' for Inactive)
REMARK    1  A    between atoms: C5_10  and  N4_11 
REMARK    2  A    between atoms: C6_14  and  C7_15 
REMARK    3  A    between atoms: C8_18  and  N6_19 
REMARK    4  A    between atoms: N7_22  and  C9_23 
REMARK    5  A    between atoms: C9_23  and  C10_24 
REMARK    6  A    between atoms: C10_24  and  C11_25 
REMARK    7  A    between atoms: C11_25  and  C13_27 
REMARK    8  A    between atoms: C11_25  and  C17_41 
REMARK    9  A    between atoms: C13_27  and  O1_28 
REMARK   10  A    between atoms: N8_30  and  C14_32 
REMARK   11  A    between atoms: C14_32  and  C15_33 
REMARK   12  A    between atoms: C14_32  and  C16_36 
REMARK   13  A    between atoms: C15_33  and  O2_34 
REMARK   14  A    between atoms: C16_36  and  O3_37 
REMARK   15  A    between atoms: C16_36  and  O4_39 
ROOT
HETATM    1  C1  UNL     1      55.545  10.239  29.547  1.00  0.00     0.069 C 
HETATM    2  C2  UNL     1      55.759  11.315  28.517  1.00  0.00     0.025 A 
HETATM    3  N1  UNL     1      54.809  11.543  27.594  1.00  0.00    -0.337 N 
ATOM      4  H1  UNL     1      53.969  10.965  27.613  1.00  0.00     0.168 HD
HETATM    5  C3  UNL     1      54.907  12.485  26.655  1.00  0.00     0.190 A 
HETATM    6  C4  UNL     1      53.847  12.695  25.676  1.00  0.00     0.137 C 
HETATM    7  N2  UNL     1      53.031  12.866  24.900  1.00  0.00    -0.188 NA
HETATM    8  N3  UNL     1      56.011  13.224  26.650  1.00  0.00    -0.319 N 
ATOM      9  H3  UNL     1      56.096  13.947  25.935  1.00  0.00     0.169 HD
HETATM   10  C5  UNL     1      57.047  13.077  27.545  1.00  0.00     0.117 A 
HETATM   11  C6  UNL     1      56.930  12.094  28.517  1.00  0.00     0.076 A 
ENDROOT
BRANCH  10  12
HETATM   12  N4  UNL     1      58.051  13.809  27.425  1.00  0.00    -0.385 N 
ATOM     13  H42 UNL     1      58.877  13.547  26.886  1.00  0.00     0.157 HD
ATOM     14  H41 UNL     1      58.042  14.729  27.864  1.00  0.00     0.157 HD
ENDBRANCH  10  12
BRANCH  11  15
HETATM   15  C7  UNL     1      57.957  11.807  29.486  1.00  0.00     0.152 A 
HETATM   16  N5  UNL     1      58.235  12.616  30.540  1.00  0.00    -0.173 N 
HETATM   17  C8  UNL     1      59.194  12.080  31.308  1.00  0.00     0.694 A 
ATOM     18  H5  UNL     1      57.778  13.508  30.722  1.00  0.00     0.186 HD
HETATM   19  N7  UNL     1      59.526  10.915  30.730  1.00  0.00    -0.122 N 
HETATM   20  N9  UNL     1      58.770  10.776  29.640  1.00  0.00    -0.268 N 
ATOM     21  H9  UNL     1      58.813   9.977  29.007  1.00  0.00     0.189 HD
BRANCH  17  22
HETATM   22  N6  UNL     1      59.681  12.610  32.394  1.00  0.00    -0.233 N 
ATOM     23  H62 UNL     1      59.221  12.740  33.295  1.00  0.00     0.174 HD
ATOM     24  H61 UNL     1      60.623  12.987  32.501  1.00  0.00     0.174 HD
ENDBRANCH  17  22
BRANCH  19  25
HETATM   25  C9  UNL     1      60.553  10.007  31.267  1.00  0.00     0.169 C 
BRANCH  25  26
HETATM   26  C10 UNL     1      61.204   9.341  30.129  1.00  0.00     0.049 C 
BRANCH  26  27
HETATM   27  C11 UNL     1      60.511   8.262  29.379  1.00  0.00     0.120 C 
HETATM   28  C12 UNL     1      59.632   7.543  30.352  1.00  0.00     0.034 C 
BRANCH  27  29
HETATM   29  C13 UNL     1      59.837   8.740  28.168  1.00  0.00     0.129 C 
HETATM   30  N8  UNL     1      59.183   7.885  27.333  1.00  0.00    -0.362 N 
ATOM     31  H8  UNL     1      59.649   7.673  26.451  1.00  0.00     0.162 HD
BRANCH  29  32
HETATM   32  O1  UNL     1      60.488   9.853  27.576  1.00  0.00    -0.349 OA
ATOM     33  H1  UNL     1      60.752  10.508  28.212  1.00  0.00     0.219 HD
ENDBRANCH  29  32
BRANCH  30  34
HETATM   34  C14 UNL     1      57.962   7.271  27.542  1.00  0.00     0.161 C 
BRANCH  34  35
HETATM   35  C15 UNL     1      56.912   8.320  27.991  1.00  0.00     0.194 C 
BRANCH  35  36
HETATM   36  O2  UNL     1      55.700   7.681  28.144  1.00  0.00    -0.399 OA
ATOM     37  H2  UNL     1      55.015   8.338  28.147  1.00  0.00     0.209 HD
ENDBRANCH  35  36
ENDBRANCH  34  35
BRANCH  34  38
HETATM   38  C16 UNL     1      57.364   6.602  26.311  1.00  0.00     0.278 C 
BRANCH  38  39
HETATM   39  O3  UNL     1      56.830   5.381  26.689  1.00  0.00    -0.369 OA
ATOM     40  H3  UNL     1      56.103   5.178  26.112  1.00  0.00     0.212 HD
ENDBRANCH  38  39
BRANCH  38  41
HETATM   41  O4  UNL     1      56.454   7.389  25.643  1.00  0.00    -0.369 OA
ATOM     42  H4  UNL     1      56.852   8.091  25.141  1.00  0.00     0.212 HD
ENDBRANCH  38  41
ENDBRANCH  34  38
ENDBRANCH  30  34
ENDBRANCH  27  29
BRANCH  27  43
HETATM   43  C17 UNL     1      61.542   7.152  28.990  1.00  0.00     0.402 C 
HETATM   44  F1  UNL     1      62.467   7.119  30.028  1.00  0.00    -0.170 F 
HETATM   45  F2  UNL     1      60.999   5.929  28.904  1.00  0.00    -0.170 F 
HETATM   46  F3  UNL     1      62.205   7.490  27.849  1.00  0.00    -0.170 F 
ENDBRANCH  27  43
ENDBRANCH  26  27
ENDBRANCH  25  26
ENDBRANCH  19  25
ENDBRANCH  11  15
TORSDOF 15
ENDMDL
MODEL 3
REMARK VINA RESULT: -1.294714187      1.412      2.878
REMARK  15 active torsions:
REMARK  status: ('A' for Active; 'I' for Inactive)
REMARK    1  A    between atoms: C5_10  and  N4_11 
REMARK    2  A    between atoms: C6_14  and  C7_15 
REMARK    3  A    between atoms: C8_18  and  N6_19 
REMARK    4  A    between atoms: N7_22  and  C9_23 
REMARK    5  A    between atoms: C9_23  and  C10_24 
REMARK    6  A    between atoms: C10_24  and  C11_25 
REMARK    7  A    between atoms: C11_25  and  C13_27 
REMARK    8  A    between atoms: C11_25  and  C17_41 
REMARK    9  A    between atoms: C13_27  and  O1_28 
REMARK   10  A    between atoms: N8_30  and  C14_32 
REMARK   11  A    between atoms: C14_32  and  C15_33 
REMARK   12  A    between atoms: C14_32  and  C16_36 
REMARK   13  A    between atoms: C15_33  and  O2_34 
REMARK   14  A    between atoms: C16_36  and  O3_37 
REMARK   15  A    between atoms: C16_36  and  O4_39 
ROOT
HETATM    1  C1  UNL     1      58.234  13.749  27.450  1.00  0.00     0.069 C 
HETATM    2  C2  UNL     1      56.975  12.929  27.537  1.00  0.00     0.025 A 
HETATM    3  N1  UNL     1      55.977  13.160  26.668  1.00  0.00    -0.337 N 
ATOM      4  H1  UNL     1      56.099  13.900  25.976  1.00  0.00     0.168 HD
HETATM    5  C3  UNL     1      54.833  12.472  26.660  1.00  0.00     0.190 A 
HETATM    6  C4  UNL     1      53.780  12.760  25.695  1.00  0.00     0.137 C 
HETATM    7  N2  UNL     1      52.944  12.977  24.951  1.00  0.00    -0.188 NA
HETATM    8  N3  UNL     1      54.696  11.515  27.571  1.00  0.00    -0.319 N 
ATOM      9  H3  UNL     1      53.825  10.983  27.575  1.00  0.00     0.169 HD
HETATM   10  C5  UNL     1      55.651  11.194  28.510  1.00  0.00     0.117 A 
HETATM   11  C6  UNL     1      56.836  11.917  28.503  1.00  0.00     0.076 A 
ENDROOT
BRANCH  10  12
HETATM   12  N4  UNL     1      55.399  10.294  29.338  1.00  0.00    -0.385 N 
ATOM     13  H42 UNL     1      54.528   9.764  29.345  1.00  0.00     0.157 HD
ATOM     14  H41 UNL     1      56.107  10.055  30.031  1.00  0.00     0.157 HD
ENDBRANCH  10  12
BRANCH  11  15
HETATM   15  C7  UNL     1      57.897  11.713  29.455  1.00  0.00     0.152 A 
HETATM   16  N5  UNL     1      58.178  12.584  30.458  1.00  0.00    -0.173 N 
HETATM   17  C8  UNL     1      59.174  12.120  31.224  1.00  0.00     0.694 A 
ATOM     18  H5  UNL     1      57.697  13.471  30.607  1.00  0.00     0.186 HD
HETATM   19  N7  UNL     1      59.528  10.937  30.697  1.00  0.00    -0.122 N 
HETATM   20  N9  UNL     1      58.748  10.717  29.639  1.00  0.00    -0.268 N 
ATOM     21  H9  UNL     1      58.800   9.888  29.047  1.00  0.00     0.189 HD
BRANCH  17  22
HETATM   22  N6  UNL     1      59.673  12.722  32.267  1.00  0.00    -0.233 N 
ATOM     23  H62 UNL     1      60.180  13.605  32.305  1.00  0.00     0.174 HD
ATOM     24  H61 UNL     1      59.628  12.381  33.228  1.00  0.00     0.174 HD
ENDBRANCH  17  22
BRANCH  19  25
HETATM   25  C9  UNL     1      60.600  10.091  31.251  1.00  0.00     0.169 C 
BRANCH  25  26
HETATM   26  C10 UNL     1      61.248   9.396  30.129  1.00  0.00     0.049 C 
BRANCH  26  27
HETATM   27  C11 UNL     1      60.549   8.307  29.401  1.00  0.00     0.120 C 
HETATM   28  C12 UNL     1      59.653   7.623  30.383  1.00  0.00     0.034 C 
BRANCH  27  29
HETATM   29  C13 UNL     1      59.890   8.762  28.172  1.00  0.00     0.129 C 
HETATM   30  N8  UNL     1      59.239   7.893  27.350  1.00  0.00    -0.362 N 
ATOM     31  H8  UNL     1      59.713   7.657  26.478  1.00  0.00     0.162 HD
BRANCH  29  32
HETATM   32  O1  UNL     1      60.556   9.856  27.561  1.00  0.00    -0.349 OA
ATOM     33  H1  UNL     1      60.838   9.669  26.674  1.00  0.00     0.219 HD
ENDBRANCH  29  32
BRANCH  30  34
HETATM   34  C14 UNL     1      58.011   7.292  27.560  1.00  0.00     0.161 C 
BRANCH  34  35
HETATM   35  C15 UNL     1      56.979   8.349  28.030  1.00  0.00     0.194 C 
BRANCH  35  36
HETATM   36  O2  UNL     1      55.778   7.710  28.258  1.00  0.00    -0.399 OA
ATOM     37  H2  UNL     1      55.268   8.240  28.858  1.00  0.00     0.209 HD
ENDBRANCH  35  36
ENDBRANCH  34  35
BRANCH  34  38
HETATM   38  C16 UNL     1      57.396   6.648  26.325  1.00  0.00     0.278 C 
BRANCH  38  39
HETATM   39  O3  UNL     1      56.855   5.425  26.690  1.00  0.00    -0.369 OA
ATOM     40  H3  UNL     1      57.243   4.749  26.144  1.00  0.00     0.212 HD
ENDBRANCH  38  39
BRANCH  38  41
HETATM   41  O4  UNL     1      56.484   7.452  25.679  1.00  0.00    -0.369 OA
ATOM     42  H4  UNL     1      55.754   6.975  25.302  1.00  0.00     0.212 HD
ENDBRANCH  38  41
ENDBRANCH  34  38
ENDBRANCH  30  34
ENDBRANCH  27  29
BRANCH  27  43
HETATM   43  C17 UNL     1      61.570   7.175  29.049  1.00  0.00     0.402 C 
HETATM   44  F1  UNL     1      62.481   7.153  30.098  1.00  0.00    -0.170 F 
HETATM   45  F2  UNL     1      61.011   5.957  28.983  1.00  0.00    -0.170 F 
HETATM   46  F3  UNL     1      62.250   7.479  27.909  1.00  0.00    -0.170 F 
ENDBRANCH  27  43
ENDBRANCH  26  27
ENDBRANCH  25  26
ENDBRANCH  19  25
ENDBRANCH  11  15
TORSDOF 15
ENDMDL
MODEL 4
REMARK VINA RESULT: -1.223633387      0.567      1.581
REMARK  15 active torsions:
REMARK  status: ('A' for Active; 'I' for Inactive)
REMARK    1  A    between atoms: C5_10  and  N4_11 
REMARK    2  A    between atoms: C6_14  and  C7_15 
REMARK    3  A    between atoms: C8_18  and  N6_19 
REMARK    4  A    between atoms: N7_22  and  C9_23 
REMARK    5  A    between atoms: C9_23  and  C10_24 
REMARK    6  A    between atoms: C10_24  and  C11_25 
REMARK    7  A    between atoms: C11_25  and  C13_27 
REMARK    8  A    between atoms: C11_25  and  C17_41 
REMARK    9  A    between atoms: C13_27  and  O1_28 
REMARK   10  A    between atoms: N8_30  and  C14_32 
REMARK   11  A    between atoms: C14_32  and  C15_33 
REMARK   12  A    between atoms: C14_32  and  C16_36 
REMARK   13  A    between atoms: C15_33  and  O2_34 
REMARK   14  A    between atoms: C16_36  and  O3_37 
REMARK   15  A    between atoms: C16_36  and  O4_39 
ROOT
HETATM    1  C1  UNL     1      58.253  13.707  27.692  1.00  0.00     0.069 C 
HETATM    2  C2  UNL     1      57.026  12.836  27.706  1.00  0.00     0.025 A 
HETATM    3  N1  UNL     1      56.034  13.079  26.834  1.00  0.00    -0.337 N 
ATOM      4  H1  UNL     1      56.138  13.863  26.190  1.00  0.00     0.168 HD
HETATM    5  C3  UNL     1      54.919  12.349  26.764  1.00  0.00     0.190 A 
HETATM    6  C4  UNL     1      53.871  12.653  25.798  1.00  0.00     0.137 C 
HETATM    7  N2  UNL     1      53.040  12.882  25.053  1.00  0.00    -0.188 NA
HETATM    8  N3  UNL     1      54.805  11.335  27.614  1.00  0.00    -0.319 N 
ATOM      9  H3  UNL     1      53.956  10.770  27.570  1.00  0.00     0.169 HD
HETATM   10  C5  UNL     1      55.757  10.995  28.550  1.00  0.00     0.117 A 
HETATM   11  C6  UNL     1      56.912  11.762  28.608  1.00  0.00     0.076 A 
ENDROOT
BRANCH  10  12
HETATM   12  N4  UNL     1      55.528  10.038  29.318  1.00  0.00    -0.385 N 
ATOM     13  H42 UNL     1      54.865   9.292  29.105  1.00  0.00     0.157 HD
ATOM     14  H41 UNL     1      56.044   9.980  30.195  1.00  0.00     0.157 HD
ENDBRANCH  10  12
BRANCH  11  15
HETATM   15  C7  UNL     1      57.965  11.543  29.566  1.00  0.00     0.152 A 
HETATM   16  N5  UNL     1      58.265  12.420  30.559  1.00  0.00    -0.173 N 
HETATM   17  C8  UNL     1      59.246  11.939  31.334  1.00  0.00     0.694 A 
ATOM     18  H5  UNL     1      57.806  13.320  30.696  1.00  0.00     0.186 HD
HETATM   19  N7  UNL     1      59.572  10.741  30.823  1.00  0.00    -0.122 N 
HETATM   20  N9  UNL     1      58.789  10.529  29.764  1.00  0.00    -0.268 N 
ATOM     21  H9  UNL     1      58.822   9.691  29.183  1.00  0.00     0.189 HD
BRANCH  17  22
HETATM   22  N6  UNL     1      59.757  12.541  32.371  1.00  0.00    -0.233 N 
ATOM     23  H62 UNL     1      59.295  12.800  33.242  1.00  0.00     0.174 HD
ATOM     24  H61 UNL     1      60.725  12.850  32.462  1.00  0.00     0.174 HD
ENDBRANCH  17  22
BRANCH  19  25
HETATM   25  C9  UNL     1      60.620   9.875  31.390  1.00  0.00     0.169 C 
BRANCH  25  26
HETATM   26  C10 UNL     1      61.262   9.160  30.278  1.00  0.00     0.049 C 
BRANCH  26  27
HETATM   27  C11 UNL     1      60.664   7.920  29.721  1.00  0.00     0.120 C 
HETATM   28  C12 UNL     1      59.807   7.325  30.792  1.00  0.00     0.034 C 
BRANCH  27  29
HETATM   29  C13 UNL     1      59.993   8.129  28.433  1.00  0.00     0.129 C 
HETATM   30  N8  UNL     1      60.212   9.250  27.691  1.00  0.00    -0.362 N 
ATOM     31  H8  UNL     1      59.461   9.940  27.687  1.00  0.00     0.162 HD
BRANCH  29  32
HETATM   32  O1  UNL     1      58.692   7.566  28.391  1.00  0.00    -0.349 OA
ATOM     33  H1  UNL     1      58.012   8.216  28.254  1.00  0.00     0.219 HD
ENDBRANCH  29  32
BRANCH  30  34
HETATM   34  C14 UNL     1      61.333   9.561  26.943  1.00  0.00     0.161 C 
BRANCH  34  35
HETATM   35  C15 UNL     1      61.241   8.890  25.548  1.00  0.00     0.194 C 
BRANCH  35  36
HETATM   36  O2  UNL     1      59.910   8.672  25.259  1.00  0.00    -0.399 OA
ATOM     37  H2  UNL     1      59.775   8.841  24.335  1.00  0.00     0.209 HD
ENDBRANCH  35  36
ENDBRANCH  34  35
BRANCH  34  38
HETATM   38  C16 UNL     1      61.522  11.046  26.665  1.00  0.00     0.278 C 
BRANCH  38  39
HETATM   39  O3  UNL     1      62.669  11.209  25.904  1.00  0.00    -0.369 OA
ATOM     40  H3  UNL     1      62.456  11.033  24.995  1.00  0.00     0.212 HD
ENDBRANCH  38  39
BRANCH  38  41
HETATM   41  O4  UNL     1      60.423  11.645  26.091  1.00  0.00    -0.369 OA
ATOM     42  H4  UNL     1      60.069  12.362  26.604  1.00  0.00     0.212 HD
ENDBRANCH  38  41
ENDBRANCH  34  38
ENDBRANCH  30  34
ENDBRANCH  27  29
BRANCH  27  43
HETATM   43  C17 UNL     1      61.776   6.834  29.552  1.00  0.00     0.402 C 
HETATM   44  F1  UNL     1      62.776   7.177  30.456  1.00  0.00    -0.170 F 
HETATM   45  F2  UNL     1      61.364   5.597  29.868  1.00  0.00    -0.170 F 
HETATM   46  F3  UNL     1      62.309   6.882  28.300  1.00  0.00    -0.170 F 
ENDBRANCH  27  43
ENDBRANCH  26  27
ENDBRANCH  25  26
ENDBRANCH  19  25
ENDBRANCH  11  15
TORSDOF 15
ENDMDL
MODEL 5
REMARK VINA RESULT: 0.362987024      4.053      6.036
REMARK  15 active torsions:
REMARK  status: ('A' for Active; 'I' for Inactive)
REMARK    1  A    between atoms: C5_10  and  N4_11 
REMARK    2  A    between atoms: C6_14  and  C7_15 
REMARK    3  A    between atoms: C8_18  and  N6_19 
REMARK    4  A    between atoms: N7_22  and  C9_23 
REMARK    5  A    between atoms: C9_23  and  C10_24 
REMARK    6  A    between atoms: C10_24  and  C11_25 
REMARK    7  A    between atoms: C11_25  and  C13_27 
REMARK    8  A    between atoms: C11_25  and  C17_41 
REMARK    9  A    between atoms: C13_27  and  O1_28 
REMARK   10  A    between atoms: N8_30  and  C14_32 
REMARK   11  A    between atoms: C14_32  and  C15_33 
REMARK   12  A    between atoms: C14_32  and  C16_36 
REMARK   13  A    between atoms: C15_33  and  O2_34 
REMARK   14  A    between atoms: C16_36  and  O3_37 
REMARK   15  A    between atoms: C16_36  and  O4_39 
ROOT
HETATM    1  C1  UNL     1      57.869   7.373  26.124  1.00  0.00     0.069 C 
HETATM    2  C2  UNL     1      56.683   6.453  26.231  1.00  0.00     0.025 A 
HETATM    3  N1  UNL     1      56.718   5.258  25.620  1.00  0.00    -0.337 N 
ATOM      4  H1  UNL     1      57.552   5.013  25.085  1.00  0.00     0.168 HD
HETATM    5  C3  UNL     1      55.722   4.373  25.674  1.00  0.00     0.190 A 
HETATM    6  C4  UNL     1      55.809   3.087  24.993  1.00  0.00     0.137 C 
HETATM    7  N2  UNL     1      55.859   2.080  24.461  1.00  0.00    -0.188 NA
HETATM    8  N3  UNL     1      54.646   4.714  26.374  1.00  0.00    -0.319 N 
ATOM      9  H3  UNL     1      53.877   4.046  26.422  1.00  0.00     0.169 HD
HETATM   10  C5  UNL     1      54.500   5.912  27.039  1.00  0.00     0.117 A 
HETATM   11  C6  UNL     1      55.547   6.820  26.974  1.00  0.00     0.076 A 
ENDROOT
BRANCH  10  12
HETATM   12  N4  UNL     1      53.430   6.137  27.641  1.00  0.00    -0.385 N 
ATOM     13  H42 UNL     1      52.533   6.254  27.169  1.00  0.00     0.157 HD
ATOM     14  H41 UNL     1      53.441   6.183  28.659  1.00  0.00     0.157 HD
ENDBRANCH  10  12
BRANCH  11  15
HETATM   15  C7  UNL     1      55.508   8.124  27.587  1.00  0.00     0.152 A 
HETATM   16  N5  UNL     1      54.819   9.172  27.067  1.00  0.00    -0.173 N 
HETATM   17  C8  UNL     1      54.909  10.242  27.868  1.00  0.00     0.694 A 
ATOM     18  H5  UNL     1      54.304   9.148  26.187  1.00  0.00     0.186 HD
HETATM   19  N7  UNL     1      55.667   9.865  28.910  1.00  0.00    -0.122 N 
HETATM   20  N9  UNL     1      56.012   8.591  28.716  1.00  0.00    -0.268 N 
ATOM     21  H9  UNL     1      56.590   8.047  29.357  1.00  0.00     0.189 HD
BRANCH  17  22
HETATM   22  N6  UNL     1      54.357  11.403  27.649  1.00  0.00    -0.233 N 
ATOM     23  H62 UNL     1      53.415  11.601  27.313  1.00  0.00     0.174 HD
ATOM     24  H61 UNL     1      54.805  12.309  27.786  1.00  0.00     0.174 HD
ENDBRANCH  17  22
BRANCH  19  25
HETATM   25  C9  UNL     1      56.010  10.758  30.029  1.00  0.00     0.169 C 
BRANCH  25  26
HETATM   26  C10 UNL     1      57.376  10.430  30.463  1.00  0.00     0.049 C 
BRANCH  26  27
HETATM   27  C11 UNL     1      58.535  11.239  30.009  1.00  0.00     0.120 C 
HETATM   28  C12 UNL     1      58.381  12.603  30.602  1.00  0.00     0.034 C 
BRANCH  27  29
HETATM   29  C13 UNL     1      59.827  10.593  30.264  1.00  0.00     0.129 C 
HETATM   30  N8  UNL     1      59.993   9.250  30.112  1.00  0.00    -0.362 N 
ATOM     31  H8  UNL     1      60.056   8.704  30.970  1.00  0.00     0.162 HD
BRANCH  29  32
HETATM   32  O1  UNL     1      60.566  11.224  31.298  1.00  0.00    -0.349 OA
ATOM     33  H1  UNL     1      61.461  10.911  31.356  1.00  0.00     0.219 HD
ENDBRANCH  29  32
BRANCH  30  34
HETATM   34  C14 UNL     1      60.086   8.540  28.928  1.00  0.00     0.161 C 
BRANCH  34  35
HETATM   35  C15 UNL     1      61.169   9.172  28.016  1.00  0.00     0.194 C 
BRANCH  35  36
HETATM   36  O2  UNL     1      60.902   8.811  26.712  1.00  0.00    -0.399 OA
ATOM     37  H2  UNL     1      61.003   7.870  26.637  1.00  0.00     0.209 HD
ENDBRANCH  35  36
ENDBRANCH  34  35
BRANCH  34  38
HETATM   38  C16 UNL     1      60.494   7.082  29.088  1.00  0.00     0.278 C 
BRANCH  38  39
HETATM   39  O3  UNL     1      61.740   6.907  28.507  1.00  0.00    -0.369 OA
ATOM     40  H3  UNL     1      62.251   6.325  29.059  1.00  0.00     0.212 HD
ENDBRANCH  38  39
BRANCH  38  41
HETATM   41  O4  UNL     1      60.455   6.638  30.390  1.00  0.00    -0.369 OA
ATOM     42  H4  UNL     1      59.973   5.827  30.502  1.00  0.00     0.212 HD
ENDBRANCH  38  41
ENDBRANCH  34  38
ENDBRANCH  30  34
ENDBRANCH  27  29
BRANCH  27  43
HETATM   43  C17 UNL     1      58.400  11.532  28.479  1.00  0.00     0.402 C 
HETATM   44  F1  UNL     1      59.624  12.065  28.090  1.00  0.00    -0.170 F 
HETATM   45  F2  UNL     1      58.197  10.429  27.742  1.00  0.00    -0.170 F 
HETATM   46  F3  UNL     1      57.442  12.472  28.252  1.00  0.00    -0.170 F 
ENDBRANCH  27  43
ENDBRANCH  26  27
ENDBRANCH  25  26
ENDBRANCH  19  25
ENDBRANCH  11  15
TORSDOF 15
ENDMDL
