MODEL 1
REMARK VINA RESULT: -3.994500275      0.000      0.000
REMARK  15 active torsions:
REMARK  status: ('A' for Active; 'I' for Inactive)
REMARK    1  A    between atoms: O1_2  and  C2_3 
REMARK    2  A    between atoms: C3_4  and  O2_5 
REMARK    3  A    between atoms: C4_7  and  C5_8 
REMARK    4  A    between atoms: C5_8  and  N1_9 
REMARK    5  A    between atoms: N1_9  and  C7_11 
REMARK    6  A    between atoms: C7_11  and  C8_12 
REMARK    7  A    between atoms: C8_12  and  C9_13 
REMARK    8  A    between atoms: C11_18  and  C12_19 
REMARK    9  A    between atoms: C12_19  and  O5_20 
REMARK   10  A    between atoms: C12_19  and  C13_22 
REMARK   11  A    between atoms: C14_23  and  C15_24 
REMARK   12  A    between atoms: C15_24  and  O6_26 
REMARK   13  A    between atoms: C16_30  and  N4_31 
REMARK   14  A    between atoms: C17_36  and  N6_37 
REMARK   15  A    between atoms: N6_37  and  N7_39 
ROOT
HETATM    1  C12 UNL     1      55.419  10.187  28.379  1.00  0.00     0.199 C 
ENDROOT
BRANCH   1   2
HETATM    2  C11 UNL     1      56.527  10.828  29.174  1.00  0.00     0.087 A 
HETATM    3  C2  UNL     1      57.296  11.816  28.648  1.00  0.00     0.119 A 
HETATM    4  C3  UNL     1      58.304  12.359  29.456  1.00  0.00     0.131 A 
HETATM    5  C4  UNL     1      58.514  11.903  30.758  1.00  0.00     0.110 A 
HETATM    6  O3  UNL     1      57.752  10.951  31.219  1.00  0.00    -0.275 OA
HETATM    7  C10 UNL     1      56.780  10.411  30.478  1.00  0.00     0.300 A 
HETATM    8  O4  UNL     1      56.083   9.500  31.036  1.00  0.00    -0.259 OA
BRANCH   3   9
HETATM    9  O1  UNL     1      57.187  12.346  27.360  1.00  0.00    -0.352 OA
HETATM   10  C1  UNL     1      56.785  13.646  27.043  1.00  0.00     0.210 C 
ENDBRANCH   3   9
BRANCH   4  11
HETATM   11  O2  UNL     1      59.079  13.353  28.921  1.00  0.00    -0.356 OA
ATOM     12  H2  UNL     1      59.546  13.162  28.116  1.00  0.00     0.218 HD
ENDBRANCH   4  11
BRANCH   5  13
HETATM   13  C5  UNL     1      59.562  12.545  31.532  1.00  0.00     0.184 C 
BRANCH  13  14
HETATM   14  N1  UNL     1      59.500  13.956  31.698  1.00  0.00    -0.411 N 
HETATM   15  C6  UNL     1      60.596  14.784  31.718  1.00  0.00     0.143 C 
BRANCH  14  16
HETATM   16  C7  UNL     1      58.339  14.247  32.488  1.00  0.00     0.119 C 
BRANCH  16  17
HETATM   17  C8  UNL     1      57.901  15.618  32.721  1.00  0.00     0.051 C 
BRANCH  17  18
HETATM   18  C9  UNL     1      56.724  15.699  33.702  1.00  0.00     0.224 C 
HETATM   19  F1  UNL     1      55.670  16.381  33.104  1.00  0.00    -0.255 F 
ENDBRANCH  17  18
ENDBRANCH  16  17
ENDBRANCH  14  16
ENDBRANCH  13  14
ENDBRANCH   5  13
ENDBRANCH   1   2
BRANCH   1  20
HETATM   20  O5  UNL     1      55.223  11.182  27.395  1.00  0.00    -0.386 OA
ATOM     21  H5  UNL     1      55.469  10.692  26.619  1.00  0.00     0.210 HD
ENDBRANCH   1  20
BRANCH   1  22
HETATM   22  C13 UNL     1      55.803   8.879  27.880  1.00  0.00     0.052 A 
HETATM   23  C14 UNL     1      54.826   7.983  27.484  1.00  0.00     0.109 A 
HETATM   24  N3  UNL     1      55.237   6.782  26.964  1.00  0.00    -0.187 N 
HETATM   25  C16 UNL     1      56.530   6.427  26.826  1.00  0.00     0.678 A 
ATOM     26  H3  UNL     1      54.523   6.119  26.665  1.00  0.00     0.184 HD
HETATM   27  N5  UNL     1      57.439   7.322  27.225  1.00  0.00    -0.175 N 
HETATM   28  C17 UNL     1      57.178   8.531  27.742  1.00  0.00     0.146 A 
ATOM     29  H5  UNL     1      58.421   7.061  27.128  1.00  0.00     0.186 HD
BRANCH  23  30
HETATM   30  C15 UNL     1      53.376   8.141  27.710  1.00  0.00     0.178 C 
HETATM   31  N2  UNL     1      52.994   9.352  28.406  1.00  0.00    -0.073 NA
BRANCH  30  32
HETATM   32  O6  UNL     1      52.577   7.067  27.827  1.00  0.00    -0.347 OA
ATOM     33  H6  UNL     1      51.644   7.135  27.663  1.00  0.00     0.219 HD
ENDBRANCH  30  32
ENDBRANCH  23  30
BRANCH  25  34
HETATM   34  N4  UNL     1      56.881   5.279  26.329  1.00  0.00    -0.234 N 
ATOM     35  H42 UNL     1      56.203   4.531  26.184  1.00  0.00     0.174 HD
ATOM     36  H41 UNL     1      57.846   5.074  26.066  1.00  0.00     0.174 HD
ENDBRANCH  25  34
BRANCH  28  37
HETATM   37  N6  UNL     1      58.129   9.331  28.035  1.00  0.00    -0.291 N 
ATOM     38  H6  UNL     1      57.956  10.335  28.022  1.00  0.00     0.188 HD
BRANCH  37  39
HETATM   39  N7  UNL     1      59.398   8.862  28.374  1.00  0.00    -0.344 N 
ATOM     40  H72 UNL     1      59.963   8.427  27.644  1.00  0.00     0.176 HD
ATOM     41  H71 UNL     1      59.763   8.946  29.323  1.00  0.00     0.176 HD
ENDBRANCH  37  39
ENDBRANCH  28  37
ENDBRANCH   1  22
TORSDOF 15
ENDMDL
MODEL 2
REMARK VINA RESULT: -3.574792305      3.878      8.129
REMARK  15 active torsions:
REMARK  status: ('A' for Active; 'I' for Inactive)
REMARK    1  A    between atoms: O1_2  and  C2_3 
REMARK    2  A    between atoms: C3_4  and  O2_5 
REMARK    3  A    between atoms: C4_7  and  C5_8 
REMARK    4  A    between atoms: C5_8  and  N1_9 
REMARK    5  A    between atoms: N1_9  and  C7_11 
REMARK    6  A    between atoms: C7_11  and  C8_12 
REMARK    7  A    between atoms: C8_12  and  C9_13 
REMARK    8  A    between atoms: C11_18  and  C12_19 
REMARK    9  A    between atoms: C12_19  and  O5_20 
REMARK   10  A    between atoms: C12_19  and  C13_22 
REMARK   11  A    between atoms: C14_23  and  C15_24 
REMARK   12  A    between atoms: C15_24  and  O6_26 
REMARK   13  A    between atoms: C16_30  and  N4_31 
REMARK   14  A    between atoms: C17_36  and  N6_37 
REMARK   15  A    between atoms: N6_37  and  N7_39 
ROOT
HETATM    1  C12 UNL     1      56.032  10.295  29.400  1.00  0.00     0.199 C 
ENDROOT
BRANCH   1   2
HETATM    2  C11 UNL     1      55.924   9.129  28.452  1.00  0.00     0.087 A 
HETATM    3  C2  UNL     1      57.025   8.565  27.894  1.00  0.00     0.119 A 
HETATM    4  C3  UNL     1      56.835   7.483  27.025  1.00  0.00     0.131 A 
HETATM    5  C4  UNL     1      55.559   6.997  26.739  1.00  0.00     0.110 A 
HETATM    6  O3  UNL     1      54.531   7.573  27.297  1.00  0.00    -0.275 OA
HETATM    7  C10 UNL     1      54.673   8.606  28.132  1.00  0.00     0.300 A 
HETATM    8  O4  UNL     1      53.602   9.079  28.635  1.00  0.00    -0.259 OA
BRANCH   3   9
HETATM    9  O1  UNL     1      58.348   8.968  28.096  1.00  0.00    -0.352 OA
HETATM   10  C1  UNL     1      59.351   8.206  28.701  1.00  0.00     0.210 C 
ENDBRANCH   3   9
BRANCH   4  11
HETATM   11  O2  UNL     1      57.949   6.918  26.462  1.00  0.00    -0.356 OA
ATOM     12  H2  UNL     1      57.848   6.492  25.619  1.00  0.00     0.218 HD
ENDBRANCH   4  11
BRANCH   5  13
HETATM   13  C5  UNL     1      55.460   5.853  25.850  1.00  0.00     0.184 C 
BRANCH  13  14
HETATM   14  N1  UNL     1      55.646   4.558  26.407  1.00  0.00    -0.411 N 
HETATM   15  C6  UNL     1      55.243   4.191  27.668  1.00  0.00     0.143 C 
BRANCH  14  16
HETATM   16  C7  UNL     1      56.828   4.000  25.817  1.00  0.00     0.119 C 
BRANCH  16  17
HETATM   17  C8  UNL     1      56.767   3.195  24.603  1.00  0.00     0.051 C 
BRANCH  17  18
HETATM   18  C9  UNL     1      55.326   2.932  24.146  1.00  0.00     0.224 C 
HETATM   19  F1  UNL     1      54.981   3.847  23.158  1.00  0.00    -0.255 F 
ENDBRANCH  17  18
ENDBRANCH  16  17
ENDBRANCH  14  16
ENDBRANCH  13  14
ENDBRANCH   5  13
ENDBRANCH   1   2
BRANCH   1  20
HETATM   20  O5  UNL     1      56.887   9.733  30.375  1.00  0.00    -0.386 OA
ATOM     21  H5  UNL     1      56.925  10.455  30.992  1.00  0.00     0.210 HD
ENDBRANCH   1  20
BRANCH   1  22
HETATM   22  C13 UNL     1      56.536  11.484  28.735  1.00  0.00     0.052 A 
HETATM   23  C14 UNL     1      57.743  12.031  29.132  1.00  0.00     0.109 A 
HETATM   24  N3  UNL     1      58.207  13.119  28.438  1.00  0.00    -0.187 N 
HETATM   25  C16 UNL     1      57.554  13.683  27.402  1.00  0.00     0.678 A 
ATOM     26  H3  UNL     1      59.099  13.524  28.721  1.00  0.00     0.184 HD
HETATM   27  N5  UNL     1      56.390  13.124  27.056  1.00  0.00    -0.175 N 
HETATM   28  C17 UNL     1      55.825  12.059  27.642  1.00  0.00     0.146 A 
ATOM     29  H5  UNL     1      55.886  13.547  26.277  1.00  0.00     0.186 HD
BRANCH  23  30
HETATM   30  C15 UNL     1      58.505  11.643  30.335  1.00  0.00     0.178 C 
HETATM   31  N2  UNL     1      58.702  12.702  31.303  1.00  0.00    -0.073 NA
BRANCH  30  32
HETATM   32  O6  UNL     1      59.418  10.658  30.281  1.00  0.00    -0.347 OA
ATOM     33  H6  UNL     1      60.237  10.728  30.757  1.00  0.00     0.219 HD
ENDBRANCH  30  32
ENDBRANCH  23  30
BRANCH  25  34
HETATM   34  N4  UNL     1      58.026  14.715  26.768  1.00  0.00    -0.234 N 
ATOM     35  H42 UNL     1      58.840  15.225  27.112  1.00  0.00     0.174 HD
ATOM     36  H41 UNL     1      57.605  15.060  25.905  1.00  0.00     0.174 HD
ENDBRANCH  25  34
BRANCH  28  37
HETATM   37  N6  UNL     1      54.735  11.571  27.189  1.00  0.00    -0.291 N 
ATOM     38  H6  UNL     1      54.359  10.721  27.607  1.00  0.00     0.188 HD
BRANCH  37  39
HETATM   39  N7  UNL     1      54.047  12.175  26.137  1.00  0.00    -0.344 N 
ATOM     40  H72 UNL     1      54.256  13.151  25.921  1.00  0.00     0.176 HD
ATOM     41  H71 UNL     1      53.353  11.666  25.592  1.00  0.00     0.176 HD
ENDBRANCH  37  39
ENDBRANCH  28  37
ENDBRANCH   1  22
TORSDOF 15
ENDMDL
MODEL 3
REMARK VINA RESULT: -3.473609230      3.808      6.665
REMARK  15 active torsions:
REMARK  status: ('A' for Active; 'I' for Inactive)
REMARK    1  A    between atoms: O1_2  and  C2_3 
REMARK    2  A    between atoms: C3_4  and  O2_5 
REMARK    3  A    between atoms: C4_7  and  C5_8 
REMARK    4  A    between atoms: C5_8  and  N1_9 
REMARK    5  A    between atoms: N1_9  and  C7_11 
REMARK    6  A    between atoms: C7_11  and  C8_12 
REMARK    7  A    between atoms: C8_12  and  C9_13 
REMARK    8  A    between atoms: C11_18  and  C12_19 
REMARK    9  A    between atoms: C12_19  and  O5_20 
REMARK   10  A    between atoms: C12_19  and  C13_22 
REMARK   11  A    between atoms: C14_23  and  C15_24 
REMARK   12  A    between atoms: C15_24  and  O6_26 
REMARK   13  A    between atoms: C16_30  and  N4_31 
REMARK   14  A    between atoms: C17_36  and  N6_37 
REMARK   15  A    between atoms: N6_37  and  N7_39 
ROOT
HETATM    1  C12 UNL     1      59.443  10.620  29.370  1.00  0.00     0.199 C 
ENDROOT
BRANCH   1   2
HETATM    2  C11 UNL     1      57.993  10.334  29.078  1.00  0.00     0.087 A 
HETATM    3  C2  UNL     1      57.250  11.160  28.298  1.00  0.00     0.119 A 
HETATM    4  C3  UNL     1      55.910  10.818  28.075  1.00  0.00     0.131 A 
HETATM    5  C4  UNL     1      55.352   9.667  28.634  1.00  0.00     0.110 A 
HETATM    6  O3  UNL     1      56.104   8.906  29.379  1.00  0.00    -0.275 OA
HETATM    7  C10 UNL     1      57.387   9.199  29.611  1.00  0.00     0.300 A 
HETATM    8  O4  UNL     1      58.033   8.375  30.338  1.00  0.00    -0.259 OA
BRANCH   3   9
HETATM    9  O1  UNL     1      57.693  12.339  27.694  1.00  0.00    -0.352 OA
HETATM   10  C1  UNL     1      56.966  13.528  27.591  1.00  0.00     0.210 C 
ENDBRANCH   3   9
BRANCH   4  11
HETATM   11  O2  UNL     1      55.164  11.655  27.290  1.00  0.00    -0.356 OA
ATOM     12  H2  UNL     1      54.224  11.666  27.427  1.00  0.00     0.218 HD
ENDBRANCH   4  11
BRANCH   5  13
HETATM   13  C5  UNL     1      53.963   9.377  28.324  1.00  0.00     0.184 C 
BRANCH  13  14
HETATM   14  N1  UNL     1      53.671   8.157  27.654  1.00  0.00    -0.411 N 
HETATM   15  C6  UNL     1      52.634   7.319  27.985  1.00  0.00     0.143 C 
BRANCH  14  16
HETATM   16  C7  UNL     1      54.907   7.638  27.144  1.00  0.00     0.119 C 
BRANCH  16  17
HETATM   17  C8  UNL     1      55.210   6.213  27.187  1.00  0.00     0.051 C 
BRANCH  17  18
HETATM   18  C9  UNL     1      56.390   5.836  26.283  1.00  0.00     0.224 C 
HETATM   19  F1  UNL     1      56.647   4.474  26.402  1.00  0.00    -0.255 F 
ENDBRANCH  17  18
ENDBRANCH  16  17
ENDBRANCH  14  16
ENDBRANCH  13  14
ENDBRANCH   5  13
ENDBRANCH   1   2
BRANCH   1  20
HETATM   20  O5  UNL     1      59.337  11.048  30.713  1.00  0.00    -0.386 OA
ATOM     21  H5  UNL     1      58.911  10.288  31.091  1.00  0.00     0.210 HD
ENDBRANCH   1  20
BRANCH   1  22
HETATM   22  C13 UNL     1      60.277   9.452  29.149  1.00  0.00     0.052 A 
HETATM   23  C14 UNL     1      60.666   9.122  27.863  1.00  0.00     0.109 A 
HETATM   24  N3  UNL     1      61.501   8.044  27.708  1.00  0.00    -0.187 N 
HETATM   25  C16 UNL     1      61.953   7.292  28.731  1.00  0.00     0.678 A 
ATOM     26  H3  UNL     1      61.796   7.798  26.764  1.00  0.00     0.184 HD
HETATM   27  N5  UNL     1      61.548   7.646  29.956  1.00  0.00    -0.175 N 
HETATM   28  C17 UNL     1      60.743   8.676  30.250  1.00  0.00     0.146 A 
ATOM     29  H5  UNL     1      61.882   7.080  30.736  1.00  0.00     0.186 HD
BRANCH  23  30
HETATM   30  C15 UNL     1      60.142   9.733  26.626  1.00  0.00     0.178 C 
HETATM   31  N2  UNL     1      60.015   8.827  25.503  1.00  0.00    -0.073 NA
BRANCH  30  32
HETATM   32  O6  UNL     1      60.338  11.037  26.367  1.00  0.00    -0.347 OA
ATOM     33  H6  UNL     1      60.416  11.348  25.473  1.00  0.00     0.219 HD
ENDBRANCH  30  32
ENDBRANCH  23  30
BRANCH  25  34
HETATM   34  N4  UNL     1      62.743   6.277  28.545  1.00  0.00    -0.234 N 
ATOM     35  H42 UNL     1      62.757   5.768  27.661  1.00  0.00     0.174 HD
ATOM     36  H41 UNL     1      63.379   5.945  29.271  1.00  0.00     0.174 HD
ENDBRANCH  25  34
BRANCH  28  37
HETATM   37  N6  UNL     1      60.468   8.958  31.464  1.00  0.00    -0.291 N 
ATOM     38  H6  UNL     1      59.709   9.609  31.664  1.00  0.00     0.188 HD
BRANCH  37  39
HETATM   39  N7  UNL     1      61.181   8.397  32.523  1.00  0.00    -0.344 N 
ATOM     40  H72 UNL     1      62.159   8.149  32.370  1.00  0.00     0.176 HD
ATOM     41  H71 UNL     1      60.747   8.233  33.431  1.00  0.00     0.176 HD
ENDBRANCH  37  39
ENDBRANCH  28  37
ENDBRANCH   1  22
TORSDOF 15
ENDMDL
MODEL 4
REMARK VINA RESULT: -3.352313651      3.212      5.624
REMARK  15 active torsions:
REMARK  status: ('A' for Active; 'I' for Inactive)
REMARK    1  A    between atoms: O1_2  and  C2_3 
REMARK    2  A    between atoms: C3_4  and  O2_5 
REMARK    3  A    between atoms: C4_7  and  C5_8 
REMARK    4  A    between atoms: C5_8  and  N1_9 
REMARK    5  A    between atoms: N1_9  and  C7_11 
REMARK    6  A    between atoms: C7_11  and  C8_12 
REMARK    7  A    between atoms: C8_12  and  C9_13 
REMARK    8  A    between atoms: C11_18  and  C12_19 
REMARK    9  A    between atoms: C12_19  and  O5_20 
REMARK   10  A    between atoms: C12_19  and  C13_22 
REMARK   11  A    between atoms: C14_23  and  C15_24 
REMARK   12  A    between atoms: C15_24  and  O6_26 
REMARK   13  A    between atoms: C16_30  and  N4_31 
REMARK   14  A    between atoms: C17_36  and  N6_37 
REMARK   15  A    between atoms: N6_37  and  N7_39 
ROOT
HETATM    1  C12 UNL     1      56.132   9.617  29.174  1.00  0.00     0.199 C 
ENDROOT
BRANCH   1   2
HETATM    2  C11 UNL     1      56.322  10.866  28.353  1.00  0.00     0.087 A 
HETATM    3  C2  UNL     1      57.436  11.632  28.475  1.00  0.00     0.119 A 
HETATM    4  C3  UNL     1      57.533  12.775  27.671  1.00  0.00     0.131 A 
HETATM    5  C4  UNL     1      56.522  13.120  26.773  1.00  0.00     0.110 A 
HETATM    6  O3  UNL     1      55.469  12.355  26.694  1.00  0.00    -0.275 OA
HETATM    7  C10 UNL     1      55.343  11.255  27.442  1.00  0.00     0.300 A 
HETATM    8  O4  UNL     1      54.282  10.571  27.268  1.00  0.00    -0.259 OA
BRANCH   3   9
HETATM    9  O1  UNL     1      58.506  11.395  29.341  1.00  0.00    -0.352 OA
HETATM   10  C1  UNL     1      58.624  11.880  30.647  1.00  0.00     0.210 C 
ENDBRANCH   3   9
BRANCH   4  11
HETATM   11  O2  UNL     1      58.658  13.547  27.799  1.00  0.00    -0.356 OA
ATOM     12  H2  UNL     1      58.595  14.331  28.331  1.00  0.00     0.218 HD
ENDBRANCH   4  11
BRANCH   5  13
HETATM   13  C5  UNL     1      56.723  14.306  25.960  1.00  0.00     0.184 C 
BRANCH  13  14
HETATM   14  N1  UNL     1      56.459  14.211  24.566  1.00  0.00    -0.411 N 
HETATM   15  C6  UNL     1      55.742  13.196  23.980  1.00  0.00     0.143 C 
BRANCH  14  16
HETATM   16  C7  UNL     1      57.548  14.841  23.877  1.00  0.00     0.119 C 
BRANCH  16  17
HETATM   17  C8  UNL     1      57.327  15.654  22.687  1.00  0.00     0.051 C 
BRANCH  17  18
HETATM   18  C9  UNL     1      58.518  16.568  22.371  1.00  0.00     0.224 C 
HETATM   19  F1  UNL     1      58.235  17.320  21.236  1.00  0.00    -0.255 F 
ENDBRANCH  17  18
ENDBRANCH  16  17
ENDBRANCH  14  16
ENDBRANCH  13  14
ENDBRANCH   5  13
ENDBRANCH   1   2
BRANCH   1  20
HETATM   20  O5  UNL     1      54.889   9.914  29.779  1.00  0.00    -0.386 OA
ATOM     21  H5  UNL     1      55.144   9.883  30.694  1.00  0.00     0.210 HD
ENDBRANCH   1  20
BRANCH   1  22
HETATM   22  C13 UNL     1      56.157   8.422  28.349  1.00  0.00     0.052 A 
HETATM   23  C14 UNL     1      57.370   7.899  27.938  1.00  0.00     0.109 A 
HETATM   24  N3  UNL     1      57.347   6.737  27.209  1.00  0.00    -0.187 N 
HETATM   25  C16 UNL     1      56.217   6.086  26.869  1.00  0.00     0.678 A 
ATOM     26  H3  UNL     1      58.237   6.343  26.906  1.00  0.00     0.184 HD
HETATM   27  N5  UNL     1      55.068   6.630  27.285  1.00  0.00    -0.175 N 
HETATM   28  C17 UNL     1      54.946   7.753  28.007  1.00  0.00     0.146 A 
ATOM     29  H5  UNL     1      54.207   6.147  27.029  1.00  0.00     0.186 HD
BRANCH  23  30
HETATM   30  C15 UNL     1      58.681   8.561  28.082  1.00  0.00     0.178 C 
HETATM   31  N2  UNL     1      59.441   8.688  26.856  1.00  0.00    -0.073 NA
BRANCH  30  32
HETATM   32  O6  UNL     1      59.358   8.498  29.242  1.00  0.00    -0.347 OA
ATOM     33  H6  UNL     1      60.275   8.744  29.283  1.00  0.00     0.219 HD
ENDBRANCH  30  32
ENDBRANCH  23  30
BRANCH  25  34
HETATM   34  N4  UNL     1      56.235   4.987  26.177  1.00  0.00    -0.234 N 
ATOM     35  H42 UNL     1      57.112   4.533  25.920  1.00  0.00     0.174 HD
ATOM     36  H41 UNL     1      55.379   4.533  25.858  1.00  0.00     0.174 HD
ENDBRANCH  25  34
BRANCH  28  37
HETATM   37  N6  UNL     1      53.799   8.149  28.401  1.00  0.00    -0.291 N 
ATOM     38  H6  UNL     1      53.726   8.681  29.268  1.00  0.00     0.188 HD
BRANCH  37  39
HETATM   39  N7  UNL     1      52.642   7.873  27.672  1.00  0.00    -0.344 N 
ATOM     40  H72 UNL     1      52.733   7.353  26.799  1.00  0.00     0.176 HD
ATOM     41  H71 UNL     1      51.723   8.177  27.993  1.00  0.00     0.176 HD
ENDBRANCH  37  39
ENDBRANCH  28  37
ENDBRANCH   1  22
TORSDOF 15
ENDMDL
MODEL 5
REMARK VINA RESULT: -3.281759046      1.076      1.280
REMARK  15 active torsions:
REMARK  status: ('A' for Active; 'I' for Inactive)
REMARK    1  A    between atoms: O1_2  and  C2_3 
REMARK    2  A    between atoms: C3_4  and  O2_5 
REMARK    3  A    between atoms: C4_7  and  C5_8 
REMARK    4  A    between atoms: C5_8  and  N1_9 
REMARK    5  A    between atoms: N1_9  and  C7_11 
REMARK    6  A    between atoms: C7_11  and  C8_12 
REMARK    7  A    between atoms: C8_12  and  C9_13 
REMARK    8  A    between atoms: C11_18  and  C12_19 
REMARK    9  A    between atoms: C12_19  and  O5_20 
REMARK   10  A    between atoms: C12_19  and  C13_22 
REMARK   11  A    between atoms: C14_23  and  C15_24 
REMARK   12  A    between atoms: C15_24  and  O6_26 
REMARK   13  A    between atoms: C16_30  and  N4_31 
REMARK   14  A    between atoms: C17_36  and  N6_37 
REMARK   15  A    between atoms: N6_37  and  N7_39 
ROOT
HETATM    1  C12 UNL     1      55.174   9.837  28.615  1.00  0.00     0.199 C 
ENDROOT
BRANCH   1   2
HETATM    2  C11 UNL     1      56.352  10.605  29.156  1.00  0.00     0.087 A 
HETATM    3  C2  UNL     1      56.926  11.613  28.450  1.00  0.00     0.119 A 
HETATM    4  C3  UNL     1      58.015  12.277  29.028  1.00  0.00     0.131 A 
HETATM    5  C4  UNL     1      58.499  11.919  30.287  1.00  0.00     0.110 A 
HETATM    6  O3  UNL     1      57.917  10.943  30.926  1.00  0.00    -0.275 OA
HETATM    7  C10 UNL     1      56.874  10.289  30.408  1.00  0.00     0.300 A 
HETATM    8  O4  UNL     1      56.371   9.365  31.128  1.00  0.00    -0.259 OA
BRANCH   3   9
HETATM    9  O1  UNL     1      56.538  12.054  27.182  1.00  0.00    -0.352 OA
HETATM   10  C1  UNL     1      55.967  13.295  26.888  1.00  0.00     0.210 C 
ENDBRANCH   3   9
BRANCH   4  11
HETATM   11  O2  UNL     1      58.593  13.291  28.311  1.00  0.00    -0.356 OA
ATOM     12  H2  UNL     1      58.058  14.051  28.114  1.00  0.00     0.218 HD
ENDBRANCH   4  11
BRANCH   5  13
HETATM   13  C5  UNL     1      59.614  12.683  30.819  1.00  0.00     0.184 C 
BRANCH  13  14
HETATM   14  N1  UNL     1      59.480  13.238  32.122  1.00  0.00    -0.411 N 
HETATM   15  C6  UNL     1      58.308  13.261  32.838  1.00  0.00     0.143 C 
BRANCH  14  16
HETATM   16  C7  UNL     1      60.440  14.297  32.240  1.00  0.00     0.119 C 
BRANCH  16  17
HETATM   17  C8  UNL     1      60.125  15.660  31.829  1.00  0.00     0.051 C 
BRANCH  17  18
HETATM   18  C9  UNL     1      59.267  16.401  32.861  1.00  0.00     0.224 C 
HETATM   19  F1  UNL     1      57.958  16.487  32.399  1.00  0.00    -0.255 F 
ENDBRANCH  17  18
ENDBRANCH  16  17
ENDBRANCH  14  16
ENDBRANCH  13  14
ENDBRANCH   5  13
ENDBRANCH   1   2
BRANCH   1  20
HETATM   20  O5  UNL     1      54.637  10.807  27.738  1.00  0.00    -0.386 OA
ATOM     21  H5  UNL     1      54.540  11.534  28.342  1.00  0.00     0.210 HD
ENDBRANCH   1  20
BRANCH   1  22
HETATM   22  C13 UNL     1      55.585   8.590  27.993  1.00  0.00     0.052 A 
HETATM   23  C14 UNL     1      54.627   7.675  27.595  1.00  0.00     0.109 A 
HETATM   24  N3  UNL     1      55.059   6.538  26.960  1.00  0.00    -0.187 N 
HETATM   25  C16 UNL     1      56.355   6.263  26.712  1.00  0.00     0.678 A 
ATOM     26  H3  UNL     1      54.359   5.862  26.659  1.00  0.00     0.184 HD
HETATM   27  N5  UNL     1      57.246   7.174  27.118  1.00  0.00    -0.175 N 
HETATM   28  C17 UNL     1      56.963   8.327  27.740  1.00  0.00     0.146 A 
ATOM     29  H5  UNL     1      58.229   6.973  26.938  1.00  0.00     0.186 HD
BRANCH  23  30
HETATM   30  C15 UNL     1      53.191   7.740  27.926  1.00  0.00     0.178 C 
HETATM   31  N2  UNL     1      52.471   6.492  27.775  1.00  0.00    -0.073 NA
BRANCH  30  32
HETATM   32  O6  UNL     1      52.504   8.886  27.785  1.00  0.00    -0.347 OA
ATOM     33  H6  UNL     1      51.766   8.940  27.189  1.00  0.00     0.219 HD
ENDBRANCH  30  32
ENDBRANCH  23  30
BRANCH  25  34
HETATM   34  N4  UNL     1      56.726   5.174  26.108  1.00  0.00    -0.234 N 
ATOM     35  H42 UNL     1      56.545   4.254  26.510  1.00  0.00     0.174 HD
ATOM     36  H41 UNL     1      57.214   5.191  25.212  1.00  0.00     0.174 HD
ENDBRANCH  25  34
BRANCH  28  37
HETATM   37  N6  UNL     1      57.892   9.152  28.032  1.00  0.00    -0.291 N 
ATOM     38  H6  UNL     1      57.655  10.130  28.199  1.00  0.00     0.188 HD
BRANCH  37  39
HETATM   39  N7  UNL     1      59.224   8.748  28.126  1.00  0.00    -0.344 N 
ATOM     40  H72 UNL     1      59.776   9.085  28.915  1.00  0.00     0.176 HD
ATOM     41  H71 UNL     1      59.645   8.133  27.431  1.00  0.00     0.176 HD
ENDBRANCH  37  39
ENDBRANCH  28  37
ENDBRANCH   1  22
TORSDOF 15
ENDMDL
