MODEL 1
REMARK VINA RESULT: -5.578475449      0.000      0.000
REMARK  12 active torsions:
REMARK  status: ('A' for Active; 'I' for Inactive)
REMARK    1  A    between atoms: C2_2  and  O1_3 
REMARK    2  A    between atoms: C2_2  and  C3_5 
REMARK    3  A    between atoms: C4_8  and  C5_9 
REMARK    4  A    between atoms: C5_9  and  C6_12 
REMARK    5  A    between atoms: C6_12  and  C7_13 
REMARK    6  A    between atoms: C7_13  and  C8_14 
REMARK    7  A    between atoms: C8_14  and  N2_15 
REMARK    8  A    between atoms: N2_15  and  N3_17 
REMARK    9  A    between atoms: C10_22  and  N5_23 
REMARK   10  A    between atoms: C12_30  and  C13_31 
REMARK   11  A    between atoms: C13_31  and  S1_32 
REMARK   12  A    between atoms: S1_32  and  N8_33 
REMARK       I    between atoms: N8_33  and  C14_35 
REMARK       I    between atoms: C14_35  and  N9_36 
REMARK       I    between atoms: C14_35  and  N10_40 
ROOT
HETATM    1  N3  UNL     1      57.907   9.019  30.425  1.00  0.00    -0.285 N 
ATOM      2  H3  UNL     1      57.732   8.293  31.120  1.00  0.00     0.188 HD
HETATM    3  C9  UNL     1      58.878   8.734  29.718  1.00  0.00     0.145 A 
HETATM    4  N4  UNL     1      59.579   7.559  29.945  1.00  0.00    -0.175 N 
ATOM      5  H4  UNL     1      59.231   6.904  30.645  1.00  0.00     0.186 HD
HETATM    6  C10 UNL     1      60.704   7.257  29.270  1.00  0.00     0.678 A 
HETATM    7  N6  UNL     1      61.243   8.044  28.341  1.00  0.00    -0.178 N 
ATOM      8  H6  UNL     1      62.099   7.803  27.841  1.00  0.00     0.185 HD
HETATM    9  C11 UNL     1      60.545   9.215  28.109  1.00  0.00     0.142 A 
HETATM   10  N7  UNL     1      61.341  10.234  27.495  1.00  0.00    -0.081 NA
HETATM   11  C12 UNL     1      59.413   9.540  28.748  1.00  0.00     0.040 A 
ENDROOT
BRANCH   1  12
HETATM   12  N2  UNL     1      57.001  10.035  30.537  1.00  0.00    -0.314 N 
ATOM     13  H2  UNL     1      57.264  10.953  30.896  1.00  0.00     0.185 HD
BRANCH  12  14
HETATM   14  C8  UNL     1      55.712   9.753  30.136  1.00  0.00     0.080 C 
BRANCH  14  15
HETATM   15  C7  UNL     1      55.293  10.385  28.885  1.00  0.00     0.052 C 
BRANCH  15  16
HETATM   16  C6  UNL     1      54.064   9.785  28.271  1.00  0.00     0.093 C 
BRANCH  16  17
HETATM   17  C5  UNL     1      53.898   8.331  28.223  1.00  0.00     0.301 C 
HETATM   18  F1  UNL     1      52.680   7.973  27.583  1.00  0.00    -0.198 F 
HETATM   19  F2  UNL     1      53.807   7.831  29.531  1.00  0.00    -0.198 F 
BRANCH  17  20
HETATM   20  C4  UNL     1      54.926   7.572  27.513  1.00  0.00     0.160 A 
HETATM   21  N1  UNL     1      54.690   6.225  27.266  1.00  0.00    -0.328 N 
HETATM   22  C3  UNL     1      55.543   5.427  26.638  1.00  0.00     0.115 A 
ATOM     23  H1  UNL     1      53.808   5.827  27.586  1.00  0.00     0.168 HD
HETATM   24  N12 UNL     1      56.678   5.947  26.218  1.00  0.00    -0.296 N 
HETATM   25  C15 UNL     1      56.989   7.253  26.408  1.00  0.00     0.327 A 
ATOM     26  H12 UNL     1      57.345   5.347  25.734  1.00  0.00     0.172 HD
HETATM   27  N11 UNL     1      56.078   8.028  27.064  1.00  0.00    -0.293 N 
HETATM   28  O2  UNL     1      58.046   7.791  26.032  1.00  0.00    -0.247 OA
ATOM     29  H11 UNL     1      56.300   9.013  27.214  1.00  0.00     0.172 HD
BRANCH  22  30
HETATM   30  C2  UNL     1      55.195   3.989  26.450  1.00  0.00     0.181 C 
HETATM   31  C1  UNL     1      55.735   3.590  25.045  1.00  0.00     0.047 C 
BRANCH  30  32
HETATM   32  O1  UNL     1      55.717   3.145  27.418  1.00  0.00    -0.388 OA
ATOM     33  H1  UNL     1      55.033   2.875  28.018  1.00  0.00     0.210 HD
ENDBRANCH  30  32
ENDBRANCH  22  30
ENDBRANCH  17  20
ENDBRANCH  16  17
ENDBRANCH  15  16
ENDBRANCH  14  15
ENDBRANCH  12  14
ENDBRANCH   1  12
BRANCH  11  34
HETATM   34  C13 UNL     1      58.613  10.769  28.212  1.00  0.00     0.143 C 
BRANCH  34  35
HETATM   35  S1  UNL     1      58.667  12.027  29.280  1.00  0.00    -0.052 SA
BRANCH  35  36
HETATM   36  N8  UNL     1      58.716  13.156  30.297  1.00  0.00    -0.315 N 
HETATM   37  C14 UNL     1      58.757  13.108  31.741  1.00  0.00     0.485 C 
HETATM   38  N9  UNL     1      59.873  12.497  32.343  1.00  0.00    -0.032 N 
HETATM   39  N10 UNL     1      58.691  14.518  32.212  1.00  0.00    -0.032 N 
ATOM     40  H93 UNL     1      59.981  11.552  31.972  1.00  0.00     0.279 HD
ATOM     41  H92 UNL     1      60.725  12.938  31.997  1.00  0.00     0.279 HD
ATOM     42  H91 UNL     1      59.902  12.464  33.362  1.00  0.00     0.279 HD
ATOM     43 3H10 UNL     1      59.412  15.114  31.806  1.00  0.00     0.279 HD
ATOM     44 2H10 UNL     1      57.886  15.029  31.847  1.00  0.00     0.279 HD
ATOM     45 1H10 UNL     1      58.720  14.486  33.231  1.00  0.00     0.279 HD
ATOM     46  H8  UNL     1      58.720  14.094  29.897  1.00  0.00     0.171 HD
ENDBRANCH  35  36
ENDBRANCH  34  35
ENDBRANCH  11  34
BRANCH   6  47
HETATM   47  N5  UNL     1      61.318   6.095  29.463  1.00  0.00    -0.234 N 
ATOM     48  H52 UNL     1      60.764   5.264  29.250  1.00  0.00     0.174 HD
ATOM     49  H51 UNL     1      62.263   6.063  29.842  1.00  0.00     0.174 HD
ENDBRANCH   6  47
TORSDOF 12
ENDMDL
MODEL 2
REMARK VINA RESULT: -5.396807612      2.562      4.087
REMARK  12 active torsions:
REMARK  status: ('A' for Active; 'I' for Inactive)
REMARK    1  A    between atoms: C2_2  and  O1_3 
REMARK    2  A    between atoms: C2_2  and  C3_5 
REMARK    3  A    between atoms: C4_8  and  C5_9 
REMARK    4  A    between atoms: C5_9  and  C6_12 
REMARK    5  A    between atoms: C6_12  and  C7_13 
REMARK    6  A    between atoms: C7_13  and  C8_14 
REMARK    7  A    between atoms: C8_14  and  N2_15 
REMARK    8  A    between atoms: N2_15  and  N3_17 
REMARK    9  A    between atoms: C10_22  and  N5_23 
REMARK   10  A    between atoms: C12_30  and  C13_31 
REMARK   11  A    between atoms: C13_31  and  S1_32 
REMARK   12  A    between atoms: S1_32  and  N8_33 
REMARK       I    between atoms: N8_33  and  C14_35 
REMARK       I    between atoms: C14_35  and  N9_36 
REMARK       I    between atoms: C14_35  and  N10_40 
ROOT
HETATM    1  N3  UNL     1      56.390   9.978  29.804  1.00  0.00    -0.285 N 
ATOM      2  H3  UNL     1      55.525   9.491  29.569  1.00  0.00     0.188 HD
HETATM    3  C9  UNL     1      56.522  11.002  29.127  1.00  0.00     0.145 A 
HETATM    4  N4  UNL     1      55.562  11.337  28.184  1.00  0.00    -0.175 N 
ATOM      5  H4  UNL     1      54.716  10.772  28.118  1.00  0.00     0.186 HD
HETATM    6  C10 UNL     1      55.715  12.385  27.352  1.00  0.00     0.678 A 
HETATM    7  N6  UNL     1      56.781  13.182  27.354  1.00  0.00    -0.178 N 
ATOM      8  H6  UNL     1      56.884  13.970  26.714  1.00  0.00     0.185 HD
HETATM    9  C11 UNL     1      57.738  12.853  28.296  1.00  0.00     0.142 A 
HETATM   10  N7  UNL     1      59.034  13.381  27.991  1.00  0.00    -0.081 NA
HETATM   11  C12 UNL     1      57.613  11.830  29.151  1.00  0.00     0.040 A 
ENDROOT
BRANCH   1  12
HETATM   12  N2  UNL     1      57.079   9.315  30.779  1.00  0.00    -0.314 N 
ATOM     13  H2  UNL     1      57.105   9.649  31.742  1.00  0.00     0.185 HD
BRANCH  12  14
HETATM   14  C8  UNL     1      57.738   8.167  30.390  1.00  0.00     0.080 C 
BRANCH  14  15
HETATM   15  C7  UNL     1      59.113   8.362  29.928  1.00  0.00     0.052 C 
BRANCH  15  16
HETATM   16  C6  UNL     1      59.381   7.841  28.548  1.00  0.00     0.093 C 
BRANCH  16  17
HETATM   17  C5  UNL     1      58.565   8.294  27.419  1.00  0.00     0.301 C 
HETATM   18  F1  UNL     1      59.278   8.184  26.193  1.00  0.00    -0.198 F 
HETATM   19  F2  UNL     1      58.275   9.659  27.573  1.00  0.00    -0.198 F 
BRANCH  17  20
HETATM   20  C4  UNL     1      57.311   7.583  27.182  1.00  0.00     0.160 A 
HETATM   21  N1  UNL     1      57.378   6.278  26.711  1.00  0.00    -0.328 N 
HETATM   22  C3  UNL     1      56.315   5.528  26.451  1.00  0.00     0.115 A 
ATOM     23  H1  UNL     1      58.301   5.871  26.557  1.00  0.00     0.168 HD
HETATM   24  N12 UNL     1      55.125   6.054  26.660  1.00  0.00    -0.296 N 
HETATM   25  C15 UNL     1      54.964   7.318  27.125  1.00  0.00     0.327 A 
ATOM     26  H12 UNL     1      54.297   5.491  26.465  1.00  0.00     0.172 HD
HETATM   27  N11 UNL     1      56.091   8.046  27.372  1.00  0.00    -0.293 N 
HETATM   28  O2  UNL     1      53.865   7.859  27.338  1.00  0.00    -0.247 OA
ATOM     29  H11 UNL     1      55.984   8.998  27.722  1.00  0.00     0.172 HD
BRANCH  22  30
HETATM   30  C2  UNL     1      56.507   4.146  25.925  1.00  0.00     0.181 C 
HETATM   31  C1  UNL     1      55.330   3.888  24.939  1.00  0.00     0.047 C 
BRANCH  30  32
HETATM   32  O1  UNL     1      57.719   3.944  25.282  1.00  0.00    -0.388 OA
ATOM     33  H1  UNL     1      58.397   4.466  25.694  1.00  0.00     0.210 HD
ENDBRANCH  30  32
ENDBRANCH  22  30
ENDBRANCH  17  20
ENDBRANCH  16  17
ENDBRANCH  15  16
ENDBRANCH  14  15
ENDBRANCH  12  14
ENDBRANCH   1  12
BRANCH  11  34
HETATM   34  C13 UNL     1      58.655  11.730  30.310  1.00  0.00     0.143 C 
BRANCH  34  35
HETATM   35  S1  UNL     1      58.625  13.082  31.256  1.00  0.00    -0.052 SA
BRANCH  35  36
HETATM   36  N8  UNL     1      58.573  14.349  32.096  1.00  0.00    -0.315 N 
HETATM   37  C14 UNL     1      59.645  15.158  32.630  1.00  0.00     0.485 C 
HETATM   38  N9  UNL     1      60.511  15.784  31.711  1.00  0.00    -0.032 N 
HETATM   39  N10 UNL     1      59.004  16.216  33.457  1.00  0.00    -0.032 N 
ATOM     40  H93 UNL     1      60.901  15.081  31.083  1.00  0.00     0.279 HD
ATOM     41  H92 UNL     1      59.961  16.342  31.058  1.00  0.00     0.279 HD
ATOM     42  H91 UNL     1      61.267  16.356  32.088  1.00  0.00     0.279 HD
ATOM     43 3H10 UNL     1      58.304  16.756  32.950  1.00  0.00     0.279 HD
ATOM     44 2H10 UNL     1      58.382  15.845  34.175  1.00  0.00     0.279 HD
ATOM     45 1H10 UNL     1      59.761  16.787  33.834  1.00  0.00     0.279 HD
ATOM     46  H8  UNL     1      57.634  14.679  32.317  1.00  0.00     0.171 HD
ENDBRANCH  35  36
ENDBRANCH  34  35
ENDBRANCH  11  34
BRANCH   6  47
HETATM   47  N5  UNL     1      54.750  12.721  26.503  1.00  0.00    -0.234 N 
ATOM     48  H52 UNL     1      53.881  12.192  26.592  1.00  0.00     0.174 HD
ATOM     49  H51 UNL     1      54.910  13.431  25.789  1.00  0.00     0.174 HD
ENDBRANCH   6  47
TORSDOF 12
ENDMDL
MODEL 3
REMARK VINA RESULT: -5.183862522      3.542      6.867
REMARK  12 active torsions:
REMARK  status: ('A' for Active; 'I' for Inactive)
REMARK    1  A    between atoms: C2_2  and  O1_3 
REMARK    2  A    between atoms: C2_2  and  C3_5 
REMARK    3  A    between atoms: C4_8  and  C5_9 
REMARK    4  A    between atoms: C5_9  and  C6_12 
REMARK    5  A    between atoms: C6_12  and  C7_13 
REMARK    6  A    between atoms: C7_13  and  C8_14 
REMARK    7  A    between atoms: C8_14  and  N2_15 
REMARK    8  A    between atoms: N2_15  and  N3_17 
REMARK    9  A    between atoms: C10_22  and  N5_23 
REMARK   10  A    between atoms: C12_30  and  C13_31 
REMARK   11  A    between atoms: C13_31  and  S1_32 
REMARK   12  A    between atoms: S1_32  and  N8_33 
REMARK       I    between atoms: N8_33  and  C14_35 
REMARK       I    between atoms: C14_35  and  N9_36 
REMARK       I    between atoms: C14_35  and  N10_40 
ROOT
HETATM    1  N3  UNL     1      57.397  13.359  27.328  1.00  0.00    -0.285 N 
ATOM      2  H3  UNL     1      58.300  13.762  27.079  1.00  0.00     0.188 HD
HETATM    3  C9  UNL     1      56.664  13.264  26.340  1.00  0.00     0.145 A 
HETATM    4  N4  UNL     1      57.110  13.701  25.102  1.00  0.00    -0.175 N 
ATOM      5  H4  UNL     1      58.074  14.023  25.010  1.00  0.00     0.186 HD
HETATM    6  C10 UNL     1      56.311  13.714  24.019  1.00  0.00     0.678 A 
HETATM    7  N6  UNL     1      55.040  13.320  24.033  1.00  0.00    -0.178 N 
ATOM      8  H6  UNL     1      54.445  13.340  23.204  1.00  0.00     0.185 HD
HETATM    9  C11 UNL     1      54.591  12.880  25.265  1.00  0.00     0.142 A 
HETATM   10  N7  UNL     1      53.165  12.914  25.390  1.00  0.00    -0.081 NA
HETATM   11  C12 UNL     1      55.362  12.836  26.359  1.00  0.00     0.040 A 
ENDROOT
BRANCH   1  12
HETATM   12  N2  UNL     1      57.335  13.075  28.664  1.00  0.00    -0.314 N 
ATOM     13  H2  UNL     1      56.605  13.459  29.262  1.00  0.00     0.185 HD
BRANCH  12  14
HETATM   14  C8  UNL     1      58.316  12.240  29.157  1.00  0.00     0.080 C 
BRANCH  14  15
HETATM   15  C7  UNL     1      57.911  11.398  30.284  1.00  0.00     0.052 C 
BRANCH  15  16
HETATM   16  C6  UNL     1      57.018  10.253  29.910  1.00  0.00     0.093 C 
BRANCH  16  17
HETATM   17  C5  UNL     1      57.564   8.899  29.800  1.00  0.00     0.301 C 
HETATM   18  F1  UNL     1      56.978   8.196  28.711  1.00  0.00    -0.198 F 
HETATM   19  F2  UNL     1      57.231   8.169  30.951  1.00  0.00    -0.198 F 
BRANCH  17  20
HETATM   20  C4  UNL     1      59.004   8.782  29.583  1.00  0.00     0.160 A 
HETATM   21  N1  UNL     1      59.500   9.074  28.319  1.00  0.00    -0.328 N 
HETATM   22  C3  UNL     1      60.784   9.001  27.992  1.00  0.00     0.115 A 
ATOM     23  H1  UNL     1      58.839   9.362  27.599  1.00  0.00     0.168 HD
HETATM   24  N12 UNL     1      61.638   8.636  28.926  1.00  0.00    -0.296 N 
HETATM   25  C15 UNL     1      61.244   8.340  30.190  1.00  0.00     0.327 A 
ATOM     26  H12 UNL     1      62.628   8.574  28.692  1.00  0.00     0.172 HD
HETATM   27  N11 UNL     1      59.912   8.427  30.471  1.00  0.00    -0.293 N 
HETATM   28  O2  UNL     1      62.009   7.991  31.107  1.00  0.00    -0.247 OA
ATOM     29  H11 UNL     1      59.602   8.206  31.418  1.00  0.00     0.172 HD
BRANCH  22  30
HETATM   30  C2  UNL     1      61.201   9.314  26.595  1.00  0.00     0.181 C 
HETATM   31  C1  UNL     1      61.384  10.859  26.531  1.00  0.00     0.047 C 
BRANCH  30  32
HETATM   32  O1  UNL     1      62.367   8.680  26.193  1.00  0.00    -0.388 OA
ATOM     33  H1  UNL     1      62.951   8.571  26.934  1.00  0.00     0.210 HD
ENDBRANCH  30  32
ENDBRANCH  22  30
ENDBRANCH  17  20
ENDBRANCH  16  17
ENDBRANCH  15  16
ENDBRANCH  14  15
ENDBRANCH  12  14
ENDBRANCH   1  12
BRANCH  11  34
HETATM   34  C13 UNL     1      54.793  12.093  27.609  1.00  0.00     0.143 C 
BRANCH  34  35
HETATM   35  S1  UNL     1      54.748  10.462  27.363  1.00  0.00    -0.052 SA
BRANCH  35  36
HETATM   36  N8  UNL     1      54.744   8.962  27.113  1.00  0.00    -0.315 N 
HETATM   37  C14 UNL     1      54.099   7.896  27.846  1.00  0.00     0.485 C 
HETATM   38  N9  UNL     1      52.692   7.905  27.909  1.00  0.00    -0.032 N 
HETATM   39  N10 UNL     1      54.526   6.624  27.205  1.00  0.00    -0.032 N 
ATOM     40  H93 UNL     1      52.377   8.804  28.275  1.00  0.00     0.279 HD
ATOM     41  H92 UNL     1      52.314   7.939  26.962  1.00  0.00     0.279 HD
ATOM     42  H91 UNL     1      52.237   7.152  28.426  1.00  0.00     0.279 HD
ATOM     43 3H10 UNL     1      54.341   6.594  26.202  1.00  0.00     0.279 HD
ATOM     44 2H10 UNL     1      55.539   6.520  27.149  1.00  0.00     0.279 HD
ATOM     45 1H10 UNL     1      54.071   5.871  27.722  1.00  0.00     0.279 HD
ATOM     46  H8  UNL     1      55.281   8.661  26.301  1.00  0.00     0.171 HD
ENDBRANCH  35  36
ENDBRANCH  34  35
ENDBRANCH  11  34
BRANCH   6  47
HETATM   47  N5  UNL     1      56.786  14.077  22.832  1.00  0.00    -0.234 N 
ATOM     48  H52 UNL     1      57.717  14.494  22.839  1.00  0.00     0.174 HD
ATOM     49  H51 UNL     1      56.217  13.977  21.992  1.00  0.00     0.174 HD
ENDBRANCH   6  47
TORSDOF 12
ENDMDL
MODEL 4
REMARK VINA RESULT: -5.153117199      2.027      3.181
REMARK  12 active torsions:
REMARK  status: ('A' for Active; 'I' for Inactive)
REMARK    1  A    between atoms: C2_2  and  O1_3 
REMARK    2  A    between atoms: C2_2  and  C3_5 
REMARK    3  A    between atoms: C4_8  and  C5_9 
REMARK    4  A    between atoms: C5_9  and  C6_12 
REMARK    5  A    between atoms: C6_12  and  C7_13 
REMARK    6  A    between atoms: C7_13  and  C8_14 
REMARK    7  A    between atoms: C8_14  and  N2_15 
REMARK    8  A    between atoms: N2_15  and  N3_17 
REMARK    9  A    between atoms: C10_22  and  N5_23 
REMARK   10  A    between atoms: C12_30  and  C13_31 
REMARK   11  A    between atoms: C13_31  and  S1_32 
REMARK   12  A    between atoms: S1_32  and  N8_33 
REMARK       I    between atoms: N8_33  and  C14_35 
REMARK       I    between atoms: C14_35  and  N9_36 
REMARK       I    between atoms: C14_35  and  N10_40 
ROOT
HETATM    1  N3  UNL     1      58.682  12.138  27.714  1.00  0.00    -0.285 N 
ATOM      2  H3  UNL     1      59.087  12.481  26.843  1.00  0.00     0.188 HD
HETATM    3  C9  UNL     1      59.176  11.053  28.037  1.00  0.00     0.145 A 
HETATM    4  N4  UNL     1      60.136  10.462  27.230  1.00  0.00    -0.175 N 
ATOM      5  H4  UNL     1      60.481  10.973  26.418  1.00  0.00     0.186 HD
HETATM    6  C10 UNL     1      60.625   9.234  27.487  1.00  0.00     0.678 A 
HETATM    7  N6  UNL     1      60.239   8.484  28.517  1.00  0.00    -0.178 N 
ATOM      8  H6  UNL     1      60.617   7.553  28.695  1.00  0.00     0.185 HD
HETATM    9  C11 UNL     1      59.284   9.072  29.326  1.00  0.00     0.142 A 
HETATM   10  N7  UNL     1      58.551   8.126  30.111  1.00  0.00    -0.081 NA
HETATM   11  C12 UNL     1      58.787  10.298  29.112  1.00  0.00     0.040 A 
ENDROOT
BRANCH   1  12
HETATM   12  N2  UNL     1      57.745  13.006  28.198  1.00  0.00    -0.314 N 
ATOM     13  H2  UNL     1      57.641  13.185  29.196  1.00  0.00     0.185 HD
BRANCH  12  14
HETATM   14  C8  UNL     1      56.946  13.629  27.261  1.00  0.00     0.080 C 
BRANCH  14  15
HETATM   15  C7  UNL     1      55.605  13.064  27.108  1.00  0.00     0.052 C 
BRANCH  15  16
HETATM   16  C6  UNL     1      55.567  11.565  27.064  1.00  0.00     0.093 C 
BRANCH  16  17
HETATM   17  C5  UNL     1      54.858  10.815  28.104  1.00  0.00     0.301 C 
HETATM   18  F1  UNL     1      53.556  11.345  28.321  1.00  0.00    -0.198 F 
HETATM   19  F2  UNL     1      55.539  10.956  29.323  1.00  0.00    -0.198 F 
BRANCH  17  20
HETATM   20  C4  UNL     1      54.642   9.391  27.860  1.00  0.00     0.160 A 
HETATM   21  N1  UNL     1      55.731   8.623  27.467  1.00  0.00    -0.328 N 
HETATM   22  C3  UNL     1      55.666   7.323  27.210  1.00  0.00     0.115 A 
ATOM     23  H1  UNL     1      56.634   9.086  27.370  1.00  0.00     0.168 HD
HETATM   24  N12 UNL     1      54.499   6.726  27.343  1.00  0.00    -0.296 N 
HETATM   25  C15 UNL     1      53.385   7.395  27.730  1.00  0.00     0.327 A 
ATOM     26  H12 UNL     1      54.432   5.727  27.149  1.00  0.00     0.172 HD
HETATM   27  N11 UNL     1      53.507   8.731  27.977  1.00  0.00    -0.293 N 
HETATM   28  O2  UNL     1      52.262   6.879  27.870  1.00  0.00    -0.247 OA
ATOM     29  H11 UNL     1      52.676   9.247  28.269  1.00  0.00     0.172 HD
BRANCH  22  30
HETATM   30  C2  UNL     1      56.895   6.603  26.770  1.00  0.00     0.181 C 
HETATM   31  C1  UNL     1      56.411   5.287  26.093  1.00  0.00     0.047 C 
BRANCH  30  32
HETATM   32  O1  UNL     1      57.694   7.322  25.894  1.00  0.00    -0.388 OA
ATOM     33  H1  UNL     1      57.936   8.155  26.282  1.00  0.00     0.210 HD
ENDBRANCH  30  32
ENDBRANCH  22  30
ENDBRANCH  17  20
ENDBRANCH  16  17
ENDBRANCH  15  16
ENDBRANCH  14  15
ENDBRANCH  12  14
ENDBRANCH   1  12
BRANCH  11  34
HETATM   34  C13 UNL     1      57.903  10.921  30.238  1.00  0.00     0.143 C 
BRANCH  34  35
HETATM   35  S1  UNL     1      58.760  12.010  31.135  1.00  0.00    -0.052 SA
BRANCH  35  36
HETATM   36  N8  UNL     1      59.586  13.003  31.937  1.00  0.00    -0.315 N 
HETATM   37  C14 UNL     1      59.483  14.442  32.028  1.00  0.00     0.485 C 
HETATM   38  N9  UNL     1      58.294  14.980  32.557  1.00  0.00    -0.032 N 
HETATM   39  N10 UNL     1      60.616  14.892  32.882  1.00  0.00    -0.032 N 
ATOM     40  H93 UNL     1      57.498  14.619  32.031  1.00  0.00     0.279 HD
ATOM     41  H92 UNL     1      58.120  14.572  33.475  1.00  0.00     0.279 HD
ATOM     42  H91 UNL     1      58.222  15.996  32.621  1.00  0.00     0.279 HD
ATOM     43 3H10 UNL     1      60.645  14.431  33.791  1.00  0.00     0.279 HD
ATOM     44 2H10 UNL     1      61.525  14.572  32.548  1.00  0.00     0.279 HD
ATOM     45 1H10 UNL     1      60.544  15.908  32.946  1.00  0.00     0.279 HD
ATOM     46  H8  UNL     1      60.328  12.588  32.499  1.00  0.00     0.171 HD
ENDBRANCH  35  36
ENDBRANCH  34  35
ENDBRANCH  11  34
BRANCH   6  47
HETATM   47  N5  UNL     1      61.592   8.720  26.734  1.00  0.00    -0.234 N 
ATOM     48  H52 UNL     1      62.540   9.002  26.983  1.00  0.00     0.174 HD
ATOM     49  H51 UNL     1      61.368   8.124  25.938  1.00  0.00     0.174 HD
ENDBRANCH   6  47
TORSDOF 12
ENDMDL
MODEL 5
REMARK VINA RESULT: -4.810221645      3.059      5.715
REMARK  12 active torsions:
REMARK  status: ('A' for Active; 'I' for Inactive)
REMARK    1  A    between atoms: C2_2  and  O1_3 
REMARK    2  A    between atoms: C2_2  and  C3_5 
REMARK    3  A    between atoms: C4_8  and  C5_9 
REMARK    4  A    between atoms: C5_9  and  C6_12 
REMARK    5  A    between atoms: C6_12  and  C7_13 
REMARK    6  A    between atoms: C7_13  and  C8_14 
REMARK    7  A    between atoms: C8_14  and  N2_15 
REMARK    8  A    between atoms: N2_15  and  N3_17 
REMARK    9  A    between atoms: C10_22  and  N5_23 
REMARK   10  A    between atoms: C12_30  and  C13_31 
REMARK   11  A    between atoms: C13_31  and  S1_32 
REMARK   12  A    between atoms: S1_32  and  N8_33 
REMARK       I    between atoms: N8_33  and  C14_35 
REMARK       I    between atoms: C14_35  and  N9_36 
REMARK       I    between atoms: C14_35  and  N10_40 
ROOT
HETATM    1  N3  UNL     1      58.682  12.811  31.920  1.00  0.00    -0.285 N 
ATOM      2  H3  UNL     1      57.848  12.267  32.141  1.00  0.00     0.188 HD
HETATM    3  C9  UNL     1      58.585  13.966  32.347  1.00  0.00     0.145 A 
HETATM    4  N4  UNL     1      57.434  14.365  33.009  1.00  0.00    -0.175 N 
ATOM      5  H4  UNL     1      56.712  13.672  33.206  1.00  0.00     0.186 HD
HETATM    6  C10 UNL     1      57.241  15.639  33.399  1.00  0.00     0.678 A 
HETATM    7  N6  UNL     1      58.117  16.618  33.188  1.00  0.00    -0.178 N 
ATOM      8  H6  UNL     1      57.954  17.581  33.486  1.00  0.00     0.185 HD
HETATM    9  C11 UNL     1      59.268  16.223  32.531  1.00  0.00     0.142 A 
HETATM   10  N7  UNL     1      59.959  17.309  31.903  1.00  0.00    -0.081 NA
HETATM   11  C12 UNL     1      59.503  14.963  32.144  1.00  0.00     0.040 A 
ENDROOT
BRANCH   1  12
HETATM   12  N2  UNL     1      59.594  12.060  31.235  1.00  0.00    -0.314 N 
ATOM     13  H2  UNL     1      60.598  12.211  31.333  1.00  0.00     0.185 HD
BRANCH  12  14
HETATM   14  C8  UNL     1      59.083  11.085  30.403  1.00  0.00     0.080 C 
BRANCH  14  15
HETATM   15  C7  UNL     1      57.996  11.520  29.525  1.00  0.00     0.052 C 
BRANCH  15  16
HETATM   16  C6  UNL     1      57.289  10.403  28.818  1.00  0.00     0.093 C 
BRANCH  16  17
HETATM   17  C5  UNL     1      55.843  10.228  28.977  1.00  0.00     0.301 C 
HETATM   18  F1  UNL     1      55.128  11.297  28.371  1.00  0.00    -0.198 F 
HETATM   19  F2  UNL     1      55.519  10.273  30.341  1.00  0.00    -0.198 F 
BRANCH  17  20
HETATM   20  C4  UNL     1      55.256   9.019  28.405  1.00  0.00     0.160 A 
HETATM   21  N1  UNL     1      56.105   8.110  27.786  1.00  0.00    -0.328 N 
HETATM   22  C3  UNL     1      55.698   6.979  27.224  1.00  0.00     0.115 A 
ATOM     23  H1  UNL     1      57.102   8.324  27.763  1.00  0.00     0.168 HD
HETATM   24  N12 UNL     1      54.411   6.702  27.262  1.00  0.00    -0.296 N 
HETATM   25  C15 UNL     1      53.510   7.527  27.852  1.00  0.00     0.327 A 
ATOM     26  H12 UNL     1      54.080   5.837  26.835  1.00  0.00     0.172 HD
HETATM   27  N11 UNL     1      53.983   8.678  28.411  1.00  0.00    -0.293 N 
HETATM   28  O2  UNL     1      52.287   7.311  27.915  1.00  0.00    -0.247 OA
ATOM     29  H11 UNL     1      53.316   9.308  28.858  1.00  0.00     0.172 HD
BRANCH  22  30
HETATM   30  C2  UNL     1      56.696   6.089  26.566  1.00  0.00     0.181 C 
HETATM   31  C1  UNL     1      55.961   4.748  26.276  1.00  0.00     0.047 C 
BRANCH  30  32
HETATM   32  O1  UNL     1      57.231   6.601  25.393  1.00  0.00    -0.388 OA
ATOM     33  H1  UNL     1      56.609   7.191  24.982  1.00  0.00     0.210 HD
ENDBRANCH  30  32
ENDBRANCH  22  30
ENDBRANCH  17  20
ENDBRANCH  16  17
ENDBRANCH  15  16
ENDBRANCH  14  15
ENDBRANCH  12  14
ENDBRANCH   1  12
BRANCH  11  34
HETATM   34  C13 UNL     1      60.939  14.622  31.635  1.00  0.00     0.143 C 
BRANCH  34  35
HETATM   35  S1  UNL     1      61.954  14.292  32.894  1.00  0.00    -0.052 SA
BRANCH  35  36
HETATM   36  N8  UNL     1      62.861  14.009  34.082  1.00  0.00    -0.315 N 
HETATM   37  C14 UNL     1      64.297  14.120  34.205  1.00  0.00     0.485 C 
HETATM   38  N9  UNL     1      64.869  15.398  34.053  1.00  0.00    -0.032 N 
HETATM   39  N10 UNL     1      64.644  13.616  35.562  1.00  0.00    -0.032 N 
ATOM     40  H93 UNL     1      64.577  15.793  33.159  1.00  0.00     0.279 HD
ATOM     41  H92 UNL     1      64.424  16.045  34.704  1.00  0.00     0.279 HD
ATOM     42  H91 UNL     1      65.882  15.476  34.141  1.00  0.00     0.279 HD
ATOM     43 3H10 UNL     1      64.136  14.087  36.310  1.00  0.00     0.279 HD
ATOM     44 2H10 UNL     1      64.294  12.675  35.744  1.00  0.00     0.279 HD
ATOM     45 1H10 UNL     1      65.657  13.694  35.650  1.00  0.00     0.279 HD
ATOM     46  H8  UNL     1      62.380  13.692  34.923  1.00  0.00     0.171 HD
ENDBRANCH  35  36
ENDBRANCH  34  35
ENDBRANCH  11  34
BRANCH   6  47
HETATM   47  N5  UNL     1      56.157  15.978  34.089  1.00  0.00    -0.234 N 
ATOM     48  H52 UNL     1      56.166  15.723  35.077  1.00  0.00     0.174 HD
ATOM     49  H51 UNL     1      55.364  16.422  33.626  1.00  0.00     0.174 HD
ENDBRANCH   6  47
TORSDOF 12
ENDMDL
