MODEL 1
REMARK VINA RESULT: -8.006158238      0.000      0.000
REMARK  14 active torsions:
REMARK  status: ('A' for Active; 'I' for Inactive)
REMARK    1  A    between atoms: N1_1  and  C1_4 
REMARK    2  A    between atoms: N5_15  and  C5_16 
REMARK    3  A    between atoms: C5_16  and  C6_17 
REMARK    4  A    between atoms: C6_17  and  O1_18 
REMARK    5  A    between atoms: C6_17  and  C7_20 
REMARK    6  A    between atoms: C7_20  and  N6_21 
REMARK    7  A    between atoms: C7_20  and  C10_27 
REMARK    8  A    between atoms: N6_21  and  O2_23 
REMARK    9  A    between atoms: O2_23  and  C8_24 
REMARK   10  A    between atoms: C8_24  and  C9_25 
REMARK   11  A    between atoms: C10_27  and  O3_28 
REMARK   12  A    between atoms: C10_27  and  O4_30 
REMARK   13  A    between atoms: O4_30  and  N7_31 
REMARK   14  A    between atoms: N7_31  and  C11_33 
ROOT
HETATM    1  C6  UNL     1    -128.191  31.726 126.364  1.00  0.00     0.166 C 
ENDROOT
BRANCH   1   2
HETATM    2  C5  UNL     1    -127.287  32.861 125.883  1.00  0.00     0.165 C 
BRANCH   2   3
HETATM    3  N5  UNL     1    -127.451  33.056 124.437  1.00  0.00    -0.324 N 
HETATM    4  C4  UNL     1    -127.709  34.230 123.818  1.00  0.00     0.185 A 
HETATM    5  N4  UNL     1    -127.797  33.985 122.508  1.00  0.00    -0.346 N 
HETATM    6  C3  UNL     1    -127.601  32.677 122.277  1.00  0.00     0.123 A 
ATOM      7  H4  UNL     1    -127.986  34.687 121.792  1.00  0.00     0.167 HD
HETATM    8  C2  UNL     1    -127.577  31.894 121.141  1.00  0.00     0.145 A 
HETATM    9  C15 UNL     1    -127.379  32.096 123.523  1.00  0.00     0.155 A 
HETATM   10  N2  UNL     1    -127.342  30.575 121.242  1.00  0.00    -0.175 N 
HETATM   11  N3  UNL     1    -127.788  32.479 120.012  1.00  0.00    -0.383 N 
HETATM   12  C1  UNL     1    -127.126  29.999 122.434  1.00  0.00     0.679 A 
ATOM     13  H2  UNL     1    -127.327  30.003 120.397  1.00  0.00     0.186 HD
HETATM   14  N10 UNL     1    -127.149  30.760 123.536  1.00  0.00    -0.174 N 
ATOM     15  H10 UNL     1    -126.985  30.309 124.436  1.00  0.00     0.186 HD
ATOM     16  H32 UNL     1    -127.771  31.900 119.173  1.00  0.00     0.157 HD
ATOM     17  H31 UNL     1    -127.967  33.480 119.936  1.00  0.00     0.157 HD
BRANCH  12  18
HETATM   18  N1  UNL     1    -126.899  28.711 122.503  1.00  0.00    -0.234 N 
ATOM     19  H12 UNL     1    -126.046  28.304 122.119  1.00  0.00     0.174 HD
ATOM     20  H11 UNL     1    -127.582  28.098 122.948  1.00  0.00     0.174 HD
ENDBRANCH  12  18
ENDBRANCH   2   3
ENDBRANCH   1   2
BRANCH   1  21
HETATM   21  O1  UNL     1    -127.829  31.453 127.664  1.00  0.00    -0.392 OA
ATOM     22  H1  UNL     1    -128.592  31.081 128.088  1.00  0.00     0.210 HD
ENDBRANCH   1  21
BRANCH   1  23
HETATM   23  C7  UNL     1    -129.622  32.105 126.277  1.00  0.00     0.193 C 
BRANCH  23  24
HETATM   24  N6  UNL     1    -130.267  32.635 127.394  1.00  0.00    -0.290 N 
ATOM     25  H6  UNL     1    -131.025  33.277 127.160  1.00  0.00     0.188 HD
BRANCH  24  26
HETATM   26  O2  UNL     1    -130.109  32.487 128.598  1.00  0.00    -0.283 OA
BRANCH  26  27
HETATM   27  C8  UNL     1    -130.838  32.333 129.674  1.00  0.00     0.215 C 
BRANCH  27  28
HETATM   28  C9  UNL     1    -132.128  33.193 129.652  1.00  0.00     0.143 C 
HETATM   29 CL1  UNL     1    -132.359  33.966 131.220  1.00  0.00    -0.128 Cl
ENDBRANCH  27  28
ENDBRANCH  26  27
ENDBRANCH  24  26
ENDBRANCH  23  24
BRANCH  23  30
HETATM   30  C10 UNL     1    -130.490  30.913 125.806  1.00  0.00     0.313 C 
BRANCH  30  31
HETATM   31  O3  UNL     1    -129.870  30.189 124.808  1.00  0.00    -0.367 OA
ATOM     32  H3  UNL     1    -130.013  29.255 124.907  1.00  0.00     0.212 HD
ENDBRANCH  30  31
BRANCH  30  33
HETATM   33  O4  UNL     1    -130.487  30.057 126.940  1.00  0.00    -0.231 OA
BRANCH  33  34
HETATM   34  N7  UNL     1    -131.691  29.496 127.112  1.00  0.00    -0.094 N 
ATOM     35  H7  UNL     1    -132.506  29.930 126.680  1.00  0.00     0.213 HD
BRANCH  34  36
HETATM   36  C11 UNL     1    -131.862  28.310 127.882  1.00  0.00     0.693 C 
HETATM   37  N8  UNL     1    -132.822  27.520 127.551  1.00  0.00    -0.225 N 
HETATM   38  C12 UNL     1    -132.992  26.309 128.343  1.00  0.00     0.139 C 
ATOM     39  H8  UNL     1    -133.439  27.733 126.767  1.00  0.00     0.177 HD
HETATM   40  C13 UNL     1    -132.798  26.610 129.814  1.00  0.00     0.040 C 
HETATM   41  C14 UNL     1    -131.470  27.227 130.106  1.00  0.00     0.139 C 
HETATM   42  N9  UNL     1    -131.019  27.988 128.975  1.00  0.00    -0.225 N 
ATOM     43  H9  UNL     1    -130.052  28.310 128.957  1.00  0.00     0.177 HD
ENDBRANCH  34  36
ENDBRANCH  33  34
ENDBRANCH  30  33
ENDBRANCH  23  30
ENDBRANCH   1  23
TORSDOF 14
ENDMDL
MODEL 2
REMARK VINA RESULT: -7.939309474      1.105      1.597
REMARK  14 active torsions:
REMARK  status: ('A' for Active; 'I' for Inactive)
REMARK    1  A    between atoms: N1_1  and  C1_4 
REMARK    2  A    between atoms: N5_15  and  C5_16 
REMARK    3  A    between atoms: C5_16  and  C6_17 
REMARK    4  A    between atoms: C6_17  and  O1_18 
REMARK    5  A    between atoms: C6_17  and  C7_20 
REMARK    6  A    between atoms: C7_20  and  N6_21 
REMARK    7  A    between atoms: C7_20  and  C10_27 
REMARK    8  A    between atoms: N6_21  and  O2_23 
REMARK    9  A    between atoms: O2_23  and  C8_24 
REMARK   10  A    between atoms: C8_24  and  C9_25 
REMARK   11  A    between atoms: C10_27  and  O3_28 
REMARK   12  A    between atoms: C10_27  and  O4_30 
REMARK   13  A    between atoms: O4_30  and  N7_31 
REMARK   14  A    between atoms: N7_31  and  C11_33 
ROOT
HETATM    1  C6  UNL     1    -127.865  31.923 126.397  1.00  0.00     0.166 C 
ENDROOT
BRANCH   1   2
HETATM    2  C5  UNL     1    -127.018  33.061 125.825  1.00  0.00     0.165 C 
BRANCH   2   3
HETATM    3  N5  UNL     1    -127.275  33.204 124.387  1.00  0.00    -0.324 N 
HETATM    4  C4  UNL     1    -127.579  34.355 123.746  1.00  0.00     0.185 A 
HETATM    5  N4  UNL     1    -127.750  34.065 122.454  1.00  0.00    -0.346 N 
HETATM    6  C3  UNL     1    -127.561  32.750 122.255  1.00  0.00     0.123 A 
ATOM      7  H4  UNL     1    -127.989  34.741 121.727  1.00  0.00     0.167 HD
HETATM    8  C2  UNL     1    -127.606  31.928 121.147  1.00  0.00     0.145 A 
HETATM    9  C15 UNL     1    -127.257  32.214 123.503  1.00  0.00     0.155 A 
HETATM   10  N2  UNL     1    -127.357  30.615 121.278  1.00  0.00    -0.175 N 
HETATM   11  N3  UNL     1    -127.893  32.473 120.015  1.00  0.00    -0.383 N 
HETATM   12  C1  UNL     1    -127.061  30.081 122.473  1.00  0.00     0.679 A 
ATOM     13  H2  UNL     1    -127.393  30.014 120.455  1.00  0.00     0.186 HD
HETATM   14  N10 UNL     1    -127.019  30.879 123.548  1.00  0.00    -0.174 N 
ATOM     15  H10 UNL     1    -126.794  30.461 124.450  1.00  0.00     0.186 HD
ATOM     16  H32 UNL     1    -127.926  31.866 119.197  1.00  0.00     0.157 HD
ATOM     17  H31 UNL     1    -128.082  33.470 119.916  1.00  0.00     0.157 HD
BRANCH  12  18
HETATM   18  N1  UNL     1    -126.823  28.797 122.571  1.00  0.00    -0.234 N 
ATOM     19  H12 UNL     1    -125.869  28.435 122.559  1.00  0.00     0.174 HD
ATOM     20  H11 UNL     1    -127.599  28.142 122.663  1.00  0.00     0.174 HD
ENDBRANCH  12  18
ENDBRANCH   2   3
ENDBRANCH   1   2
BRANCH   1  21
HETATM   21  O1  UNL     1    -127.201  31.454 127.508  1.00  0.00    -0.392 OA
ATOM     22  H1  UNL     1    -127.601  30.624 127.736  1.00  0.00     0.210 HD
ENDBRANCH   1  21
BRANCH   1  23
HETATM   23  C7  UNL     1    -129.228  32.392 126.748  1.00  0.00     0.193 C 
BRANCH  23  24
HETATM   24  N6  UNL     1    -129.724  32.177 128.032  1.00  0.00    -0.290 N 
ATOM     25  H6  UNL     1    -129.123  31.585 128.606  1.00  0.00     0.188 HD
BRANCH  24  26
HETATM   26  O2  UNL     1    -130.733  32.553 128.612  1.00  0.00    -0.283 OA
BRANCH  26  27
HETATM   27  C8  UNL     1    -131.226  32.562 129.824  1.00  0.00     0.215 C 
BRANCH  27  28
HETATM   28  C9  UNL     1    -132.296  33.666 130.027  1.00  0.00     0.143 C 
HETATM   29 CL1  UNL     1    -132.158  34.344 131.649  1.00  0.00    -0.128 Cl
ENDBRANCH  27  28
ENDBRANCH  26  27
ENDBRANCH  24  26
ENDBRANCH  23  24
BRANCH  23  30
HETATM   30  C10 UNL     1    -130.285  31.815 125.776  1.00  0.00     0.313 C 
BRANCH  30  31
HETATM   31  O3  UNL     1    -130.516  32.658 124.708  1.00  0.00    -0.367 OA
ATOM     32  H3  UNL     1    -131.364  32.499 124.309  1.00  0.00     0.212 HD
ENDBRANCH  30  31
BRANCH  30  33
HETATM   33  O4  UNL     1    -129.619  30.689 125.222  1.00  0.00    -0.231 OA
BRANCH  33  34
HETATM   34  N7  UNL     1    -130.456  29.649 125.116  1.00  0.00    -0.094 N 
ATOM     35  H7  UNL     1    -130.304  28.964 124.376  1.00  0.00     0.213 HD
BRANCH  34  36
HETATM   36  C11 UNL     1    -131.552  29.475 126.008  1.00  0.00     0.693 C 
HETATM   37  N8  UNL     1    -132.568  30.251 125.862  1.00  0.00    -0.225 N 
HETATM   38  C12 UNL     1    -133.685  30.067 126.778  1.00  0.00     0.139 C 
ATOM     39  H8  UNL     1    -132.590  30.965 125.134  1.00  0.00     0.177 HD
HETATM   40  C13 UNL     1    -133.178  29.823 128.183  1.00  0.00     0.040 C 
HETATM   41  C14 UNL     1    -132.254  28.654 128.268  1.00  0.00     0.139 C 
HETATM   42  N9  UNL     1    -131.550  28.490 127.027  1.00  0.00    -0.225 N 
ATOM     43  H9  UNL     1    -131.027  27.629 126.873  1.00  0.00     0.177 HD
ENDBRANCH  34  36
ENDBRANCH  33  34
ENDBRANCH  30  33
ENDBRANCH  23  30
ENDBRANCH   1  23
TORSDOF 14
ENDMDL
MODEL 3
REMARK VINA RESULT: -7.678709178      1.519      2.577
REMARK  14 active torsions:
REMARK  status: ('A' for Active; 'I' for Inactive)
REMARK    1  A    between atoms: N1_1  and  C1_4 
REMARK    2  A    between atoms: N5_15  and  C5_16 
REMARK    3  A    between atoms: C5_16  and  C6_17 
REMARK    4  A    between atoms: C6_17  and  O1_18 
REMARK    5  A    between atoms: C6_17  and  C7_20 
REMARK    6  A    between atoms: C7_20  and  N6_21 
REMARK    7  A    between atoms: C7_20  and  C10_27 
REMARK    8  A    between atoms: N6_21  and  O2_23 
REMARK    9  A    between atoms: O2_23  and  C8_24 
REMARK   10  A    between atoms: C8_24  and  C9_25 
REMARK   11  A    between atoms: C10_27  and  O3_28 
REMARK   12  A    between atoms: C10_27  and  O4_30 
REMARK   13  A    between atoms: O4_30  and  N7_31 
REMARK   14  A    between atoms: N7_31  and  C11_33 
ROOT
HETATM    1  C6  UNL     1    -128.417  31.688 127.774  1.00  0.00     0.166 C 
ENDROOT
BRANCH   1   2
HETATM    2  C5  UNL     1    -127.684  32.789 127.007  1.00  0.00     0.165 C 
BRANCH   2   3
HETATM    3  N5  UNL     1    -127.759  32.531 125.564  1.00  0.00    -0.324 N 
HETATM    4  C4  UNL     1    -127.968  31.329 124.982  1.00  0.00     0.185 A 
HETATM    5  N4  UNL     1    -127.956  31.512 123.659  1.00  0.00    -0.346 N 
HETATM    6  C3  UNL     1    -127.742  32.809 123.383  1.00  0.00     0.123 A 
ATOM      7  H4  UNL     1    -128.089  30.778 122.964  1.00  0.00     0.167 HD
HETATM    8  C2  UNL     1    -127.640  33.541 122.217  1.00  0.00     0.145 A 
HETATM    9  C15 UNL     1    -127.619  33.448 124.614  1.00  0.00     0.155 A 
HETATM   10  N2  UNL     1    -127.421  34.865 122.275  1.00  0.00    -0.175 N 
HETATM   11  N3  UNL     1    -127.760  32.903 121.104  1.00  0.00    -0.383 N 
HETATM   12  C1  UNL     1    -127.300  35.497 123.452  1.00  0.00     0.679 A 
ATOM     13  H2  UNL     1    -127.345  35.398 121.409  1.00  0.00     0.186 HD
HETATM   14  N10 UNL     1    -127.399  34.786 124.584  1.00  0.00    -0.174 N 
ATOM     15  H10 UNL     1    -127.304  35.279 125.471  1.00  0.00     0.186 HD
ATOM     16  H32 UNL     1    -127.684  33.443 120.242  1.00  0.00     0.157 HD
ATOM     17  H31 UNL     1    -127.926  31.898 121.060  1.00  0.00     0.157 HD
BRANCH  12  18
HETATM   18  N1  UNL     1    -127.087  36.788 123.479  1.00  0.00    -0.234 N 
ATOM     19  H12 UNL     1    -126.143  37.167 123.555  1.00  0.00     0.174 HD
ATOM     20  H11 UNL     1    -127.874  37.434 123.421  1.00  0.00     0.174 HD
ENDBRANCH  12  18
ENDBRANCH   2   3
ENDBRANCH   1   2
BRANCH   1  21
HETATM   21  O1  UNL     1    -127.641  31.384 128.870  1.00  0.00    -0.392 OA
ATOM     22  H1  UNL     1    -128.005  30.594 129.252  1.00  0.00     0.210 HD
ENDBRANCH   1  21
BRANCH   1  23
HETATM   23  C7  UNL     1    -129.772  32.131 128.186  1.00  0.00     0.193 C 
BRANCH  23  24
HETATM   24  N6  UNL     1    -130.100  32.185 129.540  1.00  0.00    -0.290 N 
ATOM     25  H6  UNL     1    -129.559  31.537 130.115  1.00  0.00     0.188 HD
BRANCH  24  26
HETATM   26  O2  UNL     1    -130.903  32.849 130.179  1.00  0.00    -0.283 OA
BRANCH  26  27
HETATM   27  C8  UNL     1    -132.039  33.470 129.989  1.00  0.00     0.215 C 
BRANCH  27  28
HETATM   28  C9  UNL     1    -132.626  34.060 131.298  1.00  0.00     0.143 C 
HETATM   29 CL1  UNL     1    -131.353  34.862 132.217  1.00  0.00    -0.128 Cl
ENDBRANCH  27  28
ENDBRANCH  26  27
ENDBRANCH  24  26
ENDBRANCH  23  24
BRANCH  23  30
HETATM   30  C10 UNL     1    -130.870  31.274 127.511  1.00  0.00     0.313 C 
BRANCH  30  31
HETATM   31  O3  UNL     1    -131.131  31.695 126.223  1.00  0.00    -0.367 OA
ATOM     32  H3  UNL     1    -131.663  31.067 125.748  1.00  0.00     0.212 HD
ENDBRANCH  30  31
BRANCH  30  33
HETATM   33  O4  UNL     1    -130.236  30.010 127.367  1.00  0.00    -0.231 OA
BRANCH  33  34
HETATM   34  N7  UNL     1    -131.116  29.083 126.971  1.00  0.00    -0.094 N 
ATOM     35  H7  UNL     1    -131.482  29.121 126.020  1.00  0.00     0.213 HD
BRANCH  34  36
HETATM   36  C11 UNL     1    -131.553  28.044 127.842  1.00  0.00     0.693 C 
HETATM   37  N8  UNL     1    -132.620  27.404 127.515  1.00  0.00    -0.225 N 
HETATM   38  C12 UNL     1    -133.062  26.343 128.411  1.00  0.00     0.139 C 
ATOM     39  H8  UNL     1    -133.136  27.631 126.665  1.00  0.00     0.177 HD
HETATM   40  C13 UNL     1    -132.909  26.774 129.854  1.00  0.00     0.040 C 
HETATM   41  C14 UNL     1    -131.512  27.175 130.190  1.00  0.00     0.139 C 
HETATM   42  N9  UNL     1    -130.856  27.707 129.029  1.00  0.00    -0.225 N 
ATOM     43  H9  UNL     1    -129.847  27.847 129.060  1.00  0.00     0.177 HD
ENDBRANCH  34  36
ENDBRANCH  33  34
ENDBRANCH  30  33
ENDBRANCH  23  30
ENDBRANCH   1  23
TORSDOF 14
ENDMDL
MODEL 4
REMARK VINA RESULT: -7.194969527      2.366      3.769
REMARK  14 active torsions:
REMARK  status: ('A' for Active; 'I' for Inactive)
REMARK    1  A    between atoms: N1_1  and  C1_4 
REMARK    2  A    between atoms: N5_15  and  C5_16 
REMARK    3  A    between atoms: C5_16  and  C6_17 
REMARK    4  A    between atoms: C6_17  and  O1_18 
REMARK    5  A    between atoms: C6_17  and  C7_20 
REMARK    6  A    between atoms: C7_20  and  N6_21 
REMARK    7  A    between atoms: C7_20  and  C10_27 
REMARK    8  A    between atoms: N6_21  and  O2_23 
REMARK    9  A    between atoms: O2_23  and  C8_24 
REMARK   10  A    between atoms: C8_24  and  C9_25 
REMARK   11  A    between atoms: C10_27  and  O3_28 
REMARK   12  A    between atoms: C10_27  and  O4_30 
REMARK   13  A    between atoms: O4_30  and  N7_31 
REMARK   14  A    between atoms: N7_31  and  C11_33 
ROOT
HETATM    1  C6  UNL     1    -128.483  33.061 126.300  1.00  0.00     0.166 C 
ENDROOT
BRANCH   1   2
HETATM    2  C5  UNL     1    -127.187  33.435 125.581  1.00  0.00     0.165 C 
BRANCH   2   3
HETATM    3  N5  UNL     1    -127.411  33.479 124.131  1.00  0.00    -0.324 N 
HETATM    4  C4  UNL     1    -127.709  34.581 123.407  1.00  0.00     0.185 A 
HETATM    5  N4  UNL     1    -127.847  34.203 122.133  1.00  0.00    -0.346 N 
HETATM    6  C3  UNL     1    -127.644  32.879 122.029  1.00  0.00     0.123 A 
ATOM      7  H4  UNL     1    -128.073  34.825 121.357  1.00  0.00     0.167 HD
HETATM    8  C2  UNL     1    -127.656  31.984 120.979  1.00  0.00     0.145 A 
HETATM    9  C15 UNL     1    -127.365  32.431 123.318  1.00  0.00     0.155 A 
HETATM   10  N2  UNL     1    -127.401  30.684 121.205  1.00  0.00    -0.175 N 
HETATM   11  N3  UNL     1    -127.920  32.448 119.806  1.00  0.00    -0.383 N 
HETATM   12  C1  UNL     1    -127.130  30.235 122.440  1.00  0.00     0.679 A 
ATOM     13  H2  UNL     1    -127.413  30.028 120.423  1.00  0.00     0.186 HD
HETATM   14  N10 UNL     1    -127.118  31.105 123.458  1.00  0.00    -0.174 N 
ATOM     15  H10 UNL     1    -126.912  30.750 124.392  1.00  0.00     0.186 HD
ATOM     16  H32 UNL     1    -127.930  31.786 119.030  1.00  0.00     0.157 HD
ATOM     17  H31 UNL     1    -128.114  33.434 119.635  1.00  0.00     0.157 HD
BRANCH  12  18
HETATM   18  N1  UNL     1    -126.884  28.963 122.630  1.00  0.00    -0.234 N 
ATOM     19  H12 UNL     1    -126.430  28.635 123.483  1.00  0.00     0.174 HD
ATOM     20  H11 UNL     1    -127.150  28.283 121.919  1.00  0.00     0.174 HD
ENDBRANCH  12  18
ENDBRANCH   2   3
ENDBRANCH   1   2
BRANCH   1  21
HETATM   21  O1  UNL     1    -129.515  33.371 125.444  1.00  0.00    -0.392 OA
ATOM     22  H1  UNL     1    -129.847  32.548 125.105  1.00  0.00     0.210 HD
ENDBRANCH   1  21
BRANCH   1  23
HETATM   23  C7  UNL     1    -128.502  31.621 126.659  1.00  0.00     0.193 C 
BRANCH  23  24
HETATM   24  N6  UNL     1    -129.695  30.904 126.582  1.00  0.00    -0.290 N 
ATOM     25  H6  UNL     1    -130.208  31.062 125.714  1.00  0.00     0.188 HD
BRANCH  24  26
HETATM   26  O2  UNL     1    -130.252  30.126 127.343  1.00  0.00    -0.283 OA
BRANCH  26  27
HETATM   27  C8  UNL     1    -131.297  29.338 127.353  1.00  0.00     0.215 C 
BRANCH  27  28
HETATM   28  C9  UNL     1    -132.511  29.945 126.602  1.00  0.00     0.143 C 
HETATM   29 CL1  UNL     1    -133.585  28.656 126.060  1.00  0.00    -0.128 Cl
ENDBRANCH  27  28
ENDBRANCH  26  27
ENDBRANCH  24  26
ENDBRANCH  23  24
BRANCH  23  30
HETATM   30  C10 UNL     1    -127.955  31.394 128.090  1.00  0.00     0.313 C 
BRANCH  30  31
HETATM   31  O3  UNL     1    -126.602  31.653 128.170  1.00  0.00    -0.367 OA
ATOM     32  H3  UNL     1    -126.400  32.265 128.868  1.00  0.00     0.212 HD
ENDBRANCH  30  31
BRANCH  30  33
HETATM   33  O4  UNL     1    -128.576  32.435 128.830  1.00  0.00    -0.231 OA
BRANCH  33  34
HETATM   34  N7  UNL     1    -129.410  31.931 129.748  1.00  0.00    -0.094 N 
ATOM     35  H7  UNL     1    -129.122  31.110 130.281  1.00  0.00     0.213 HD
BRANCH  34  36
HETATM   36  C11 UNL     1    -130.687  32.509 129.999  1.00  0.00     0.693 C 
HETATM   37  N8  UNL     1    -131.551  32.479 129.046  1.00  0.00    -0.225 N 
HETATM   38  C12 UNL     1    -132.855  33.073 129.310  1.00  0.00     0.139 C 
ATOM     39  H8  UNL     1    -131.332  32.058 128.144  1.00  0.00     0.177 HD
HETATM   40  C13 UNL     1    -132.699  34.364 130.084  1.00  0.00     0.040 C 
HETATM   41  C14 UNL     1    -131.954  34.183 131.364  1.00  0.00     0.139 C 
HETATM   42  N9  UNL     1    -131.020  33.100 131.243  1.00  0.00    -0.225 N 
ATOM     43  H9  UNL     1    -130.577  32.740 132.089  1.00  0.00     0.177 HD
ENDBRANCH  34  36
ENDBRANCH  33  34
ENDBRANCH  30  33
ENDBRANCH  23  30
ENDBRANCH   1  23
TORSDOF 14
ENDMDL
MODEL 5
REMARK VINA RESULT: -7.024292828      1.621      2.948
REMARK  14 active torsions:
REMARK  status: ('A' for Active; 'I' for Inactive)
REMARK    1  A    between atoms: N1_1  and  C1_4 
REMARK    2  A    between atoms: N5_15  and  C5_16 
REMARK    3  A    between atoms: C5_16  and  C6_17 
REMARK    4  A    between atoms: C6_17  and  O1_18 
REMARK    5  A    between atoms: C6_17  and  C7_20 
REMARK    6  A    between atoms: C7_20  and  N6_21 
REMARK    7  A    between atoms: C7_20  and  C10_27 
REMARK    8  A    between atoms: N6_21  and  O2_23 
REMARK    9  A    between atoms: O2_23  and  C8_24 
REMARK   10  A    between atoms: C8_24  and  C9_25 
REMARK   11  A    between atoms: C10_27  and  O3_28 
REMARK   12  A    between atoms: C10_27  and  O4_30 
REMARK   13  A    between atoms: O4_30  and  N7_31 
REMARK   14  A    between atoms: N7_31  and  C11_33 
ROOT
HETATM    1  C6  UNL     1    -127.648  31.534 127.352  1.00  0.00     0.166 C 
ENDROOT
BRANCH   1   2
HETATM    2  C5  UNL     1    -126.695  32.436 126.567  1.00  0.00     0.165 C 
BRANCH   2   3
HETATM    3  N5  UNL     1    -127.064  32.440 125.146  1.00  0.00    -0.324 N 
HETATM    4  C4  UNL     1    -127.277  31.348 124.379  1.00  0.00     0.185 A 
HETATM    5  N4  UNL     1    -127.578  31.771 123.148  1.00  0.00    -0.346 N 
HETATM    6  C3  UNL     1    -127.561  33.114 123.113  1.00  0.00     0.123 A 
ATOM      7  H4  UNL     1    -127.789  31.166 122.355  1.00  0.00     0.167 HD
HETATM    8  C2  UNL     1    -127.794  34.054 122.131  1.00  0.00     0.145 A 
HETATM    9  C15 UNL     1    -127.231  33.527 124.402  1.00  0.00     0.155 A 
HETATM   10  N2  UNL     1    -127.701  35.362 122.420  1.00  0.00    -0.175 N 
HETATM   11  N3  UNL     1    -128.096  33.621 120.955  1.00  0.00    -0.383 N 
HETATM   12  C1  UNL     1    -127.384  35.778 123.656  1.00  0.00     0.679 A 
ATOM     13  H2  UNL     1    -127.874  36.051 121.688  1.00  0.00     0.186 HD
HETATM   14  N10 UNL     1    -127.157  34.865 124.610  1.00  0.00    -0.174 N 
ATOM     15  H10 UNL     1    -126.916  35.194 125.544  1.00  0.00     0.186 HD
ATOM     16  H32 UNL     1    -128.268  34.315 120.228  1.00  0.00     0.157 HD
ATOM     17  H31 UNL     1    -128.167  32.628 120.735  1.00  0.00     0.157 HD
BRANCH  12  18
HETATM   18  N1  UNL     1    -127.300  37.059 123.910  1.00  0.00    -0.234 N 
ATOM     19  H12 UNL     1    -126.427  37.479 124.230  1.00  0.00     0.174 HD
ATOM     20  H11 UNL     1    -128.119  37.656 123.788  1.00  0.00     0.174 HD
ENDBRANCH  12  18
ENDBRANCH   2   3
ENDBRANCH   1   2
BRANCH   1  21
HETATM   21  O1  UNL     1    -126.936  31.041 128.422  1.00  0.00    -0.392 OA
ATOM     22  H1  UNL     1    -127.548  30.544 128.952  1.00  0.00     0.210 HD
ENDBRANCH   1  21
BRANCH   1  23
HETATM   23  C7  UNL     1    -128.844  32.284 127.808  1.00  0.00     0.193 C 
BRANCH  23  24
HETATM   24  N6  UNL     1    -129.350  32.068 129.089  1.00  0.00    -0.290 N 
ATOM     25  H6  UNL     1    -128.803  31.400 129.634  1.00  0.00     0.188 HD
BRANCH  24  26
HETATM   26  O2  UNL     1    -130.315  32.514 129.693  1.00  0.00    -0.283 OA
BRANCH  26  27
HETATM   27  C8  UNL     1    -131.617  32.555 129.575  1.00  0.00     0.215 C 
BRANCH  27  28
HETATM   28  C9  UNL     1    -132.221  33.899 130.059  1.00  0.00     0.143 C 
HETATM   29 CL1  UNL     1    -131.742  34.205 131.728  1.00  0.00    -0.128 Cl
ENDBRANCH  27  28
ENDBRANCH  26  27
ENDBRANCH  24  26
ENDBRANCH  23  24
BRANCH  23  30
HETATM   30  C10 UNL     1    -130.034  32.084 126.838  1.00  0.00     0.313 C 
BRANCH  30  31
HETATM   31  O3  UNL     1    -130.090  33.078 125.882  1.00  0.00    -0.367 OA
ATOM     32  H3  UNL     1    -129.416  33.734 126.015  1.00  0.00     0.212 HD
ENDBRANCH  30  31
BRANCH  30  33
HETATM   33  O4  UNL     1    -129.664  30.909 126.128  1.00  0.00    -0.231 OA
BRANCH  33  34
HETATM   34  N7  UNL     1    -130.740  30.325 125.587  1.00  0.00    -0.094 N 
ATOM     35  H7  UNL     1    -130.787  30.215 124.574  1.00  0.00     0.213 HD
BRANCH  34  36
HETATM   36  C11 UNL     1    -131.819  29.854 126.388  1.00  0.00     0.693 C 
HETATM   37  N8  UNL     1    -132.843  30.623 126.518  1.00  0.00    -0.225 N 
HETATM   38  C12 UNL     1    -133.944  30.135 127.338  1.00  0.00     0.139 C 
ATOM     39  H8  UNL     1    -132.882  31.536 126.065  1.00  0.00     0.177 HD
HETATM   40  C13 UNL     1    -133.411  29.449 128.579  1.00  0.00     0.040 C 
HETATM   41  C14 UNL     1    -132.477  28.329 128.262  1.00  0.00     0.139 C 
HETATM   42  N9  UNL     1    -131.793  28.590 127.027  1.00  0.00    -0.225 N 
ATOM     43  H9  UNL     1    -131.266  27.833 126.592  1.00  0.00     0.177 HD
ENDBRANCH  34  36
ENDBRANCH  33  34
ENDBRANCH  30  33
ENDBRANCH  23  30
ENDBRANCH   1  23
TORSDOF 14
ENDMDL
