MODEL 1
REMARK VINA RESULT: -6.866438177      0.000      0.000
REMARK  17 active torsions:
REMARK  status: ('A' for Active; 'I' for Inactive)
REMARK    1  A    between atoms: N1_1  and  C1_4 
REMARK    2  A    between atoms: C3_9  and  C4_10 
REMARK    3  A    between atoms: C4_10  and  N4_11 
REMARK    4  A    between atoms: C4_10  and  N6_22 
REMARK    5  A    between atoms: N4_11  and  O1_13 
REMARK    6  A    between atoms: O1_13  and  C5_14 
REMARK    7  A    between atoms: C5_14  and  C6_15 
REMARK    8  A    between atoms: C6_15  and  N5_16 
REMARK    9  A    between atoms: N5_16  and  C7_18 
REMARK   10  A    between atoms: C7_18  and  C8_19 
REMARK   11  A    between atoms: C8_19  and  O2_20 
REMARK   12  A    between atoms: N6_22  and  C9_24 
REMARK   13  A    between atoms: C9_24  and  N7_25 
REMARK   14  A    between atoms: C9_24  and  C10_30 
REMARK   15  A    between atoms: N7_25  and  N8_27 
REMARK   16  A    between atoms: C12_35  and  C13_36 
REMARK   17  A    between atoms: C13_36  and  N10_37 
ROOT
HETATM    1  C4  UNL     1    -127.735  33.147 123.890  1.00  0.00     0.146 C 
ENDROOT
BRANCH   1   2
HETATM    2  C3  UNL     1    -127.975  33.936 122.695  1.00  0.00     0.120 A 
HETATM    3  C2  UNL     1    -127.843  35.302 122.662  1.00  0.00     0.151 A 
HETATM    4  N2  UNL     1    -128.069  35.946 121.476  1.00  0.00    -0.178 N 
HETATM    5  N3  UNL     1    -127.485  36.045 123.809  1.00  0.00    -0.081 NA
HETATM    6  C1  UNL     1    -128.402  35.311 120.373  1.00  0.00     0.680 A 
ATOM      7  H2  UNL     1    -127.976  36.961 121.445  1.00  0.00     0.185 HD
HETATM    8  N11 UNL     1    -128.550  33.960 120.335  1.00  0.00    -0.155 N 
HETATM    9  C14 UNL     1    -128.328  33.286 121.510  1.00  0.00     0.277 A 
ATOM     10  H11 UNL     1    -128.813  33.473 119.479  1.00  0.00     0.187 HD
HETATM   11  O3  UNL     1    -128.443  32.040 121.538  1.00  0.00    -0.267 OA
BRANCH   6  12
HETATM   12  N1  UNL     1    -128.604  35.930 119.240  1.00  0.00    -0.234 N 
ATOM     13  H12 UNL     1    -129.384  35.581 118.683  1.00  0.00     0.174 HD
ATOM     14  H11 UNL     1    -128.020  36.705 118.927  1.00  0.00     0.174 HD
ENDBRANCH   6  12
ENDBRANCH   1   2
BRANCH   1  15
HETATM   15  N4  UNL     1    -126.981  32.205 123.938  1.00  0.00    -0.249 N 
ATOM     16  H4  UNL     1    -126.442  32.449 124.769  1.00  0.00     0.196 HD
BRANCH  15  17
HETATM   17  O1  UNL     1    -126.421  31.101 123.621  1.00  0.00    -0.274 OA
BRANCH  17  18
HETATM   18  C5  UNL     1    -127.310  29.908 123.617  1.00  0.00     0.245 C 
BRANCH  18  19
HETATM   19  C6  UNL     1    -127.005  29.397 122.237  1.00  0.00     0.084 C 
BRANCH  19  20
HETATM   20  N5  UNL     1    -127.990  28.920 121.437  1.00  0.00    -0.398 N 
ATOM     21  H5  UNL     1    -127.884  28.928 120.423  1.00  0.00     0.158 HD
BRANCH  20  22
HETATM   22  C7  UNL     1    -129.170  28.410 122.034  1.00  0.00     0.144 C 
BRANCH  22  23
HETATM   23  C8  UNL     1    -129.633  27.296 121.075  1.00  0.00     0.183 C 
BRANCH  23  24
HETATM   24  O2  UNL     1    -130.053  26.223 121.800  1.00  0.00    -0.399 OA
ATOM     25  H2  UNL     1    -129.690  26.274 122.676  1.00  0.00     0.209 HD
ENDBRANCH  23  24
ENDBRANCH  22  23
ENDBRANCH  20  22
ENDBRANCH  19  20
ENDBRANCH  18  19
ENDBRANCH  17  18
ENDBRANCH  15  17
ENDBRANCH   1  15
BRANCH   1  26
HETATM   26  N6  UNL     1    -128.538  33.335 125.090  1.00  0.00    -0.323 N 
ATOM     27  H6  UNL     1    -128.938  34.247 125.311  1.00  0.00     0.169 HD
BRANCH  26  28
HETATM   28  C9  UNL     1    -128.742  32.260 125.914  1.00  0.00     0.155 C 
BRANCH  28  29
HETATM   29  N7  UNL     1    -127.730  31.846 126.639  1.00  0.00    -0.290 N 
ATOM     30  H7  UNL     1    -127.094  31.123 126.302  1.00  0.00     0.188 HD
BRANCH  29  31
HETATM   31  N8  UNL     1    -127.564  32.432 127.876  1.00  0.00    -0.344 N 
ATOM     32  H82 UNL     1    -127.143  31.911 128.645  1.00  0.00     0.176 HD
ATOM     33  H81 UNL     1    -127.880  33.397 127.979  1.00  0.00     0.176 HD
ENDBRANCH  29  31
ENDBRANCH  28  29
BRANCH  28  34
HETATM   34  C10 UNL     1    -129.990  31.508 126.070  1.00  0.00     0.121 A 
HETATM   35  N9  UNL     1    -130.892  31.763 127.060  1.00  0.00    -0.337 N 
HETATM   36  C11 UNL     1    -131.911  30.994 127.172  1.00  0.00     0.119 A 
ATOM     37  H9  UNL     1    -130.758  32.547 127.697  1.00  0.00     0.167 HD
HETATM   38 CL1  UNL     1    -133.244  31.319 128.316  1.00  0.00    -0.063 Cl
HETATM   39  C12 UNL     1    -132.046  29.922 126.283  1.00  0.00     0.049 A 
HETATM   40  S1  UNL     1    -130.666  30.139 125.332  1.00  0.00    -0.068 SA
BRANCH  39  41
HETATM   41  C13 UNL     1    -133.025  28.822 126.453  1.00  0.00     0.278 C 
BRANCH  41  42
HETATM   42  N10 UNL     1    -132.820  27.915 127.534  1.00  0.00    -0.075 N 
ATOM     43 3H10 UNL     1    -131.853  27.982 127.851  1.00  0.00     0.274 HD
ATOM     44 2H10 UNL     1    -133.316  28.256 128.357  1.00  0.00     0.274 HD
ATOM     45 1H10 UNL     1    -133.057  26.934 127.381  1.00  0.00     0.274 HD
ENDBRANCH  41  42
ENDBRANCH  39  41
ENDBRANCH  28  34
ENDBRANCH  26  28
ENDBRANCH   1  26
TORSDOF 17
ENDMDL
MODEL 2
REMARK VINA RESULT: -6.797253000      3.786      7.426
REMARK  17 active torsions:
REMARK  status: ('A' for Active; 'I' for Inactive)
REMARK    1  A    between atoms: N1_1  and  C1_4 
REMARK    2  A    between atoms: C3_9  and  C4_10 
REMARK    3  A    between atoms: C4_10  and  N4_11 
REMARK    4  A    between atoms: C4_10  and  N6_22 
REMARK    5  A    between atoms: N4_11  and  O1_13 
REMARK    6  A    between atoms: O1_13  and  C5_14 
REMARK    7  A    between atoms: C5_14  and  C6_15 
REMARK    8  A    between atoms: C6_15  and  N5_16 
REMARK    9  A    between atoms: N5_16  and  C7_18 
REMARK   10  A    between atoms: C7_18  and  C8_19 
REMARK   11  A    between atoms: C8_19  and  O2_20 
REMARK   12  A    between atoms: N6_22  and  C9_24 
REMARK   13  A    between atoms: C9_24  and  N7_25 
REMARK   14  A    between atoms: C9_24  and  C10_30 
REMARK   15  A    between atoms: N7_25  and  N8_27 
REMARK   16  A    between atoms: C12_35  and  C13_36 
REMARK   17  A    between atoms: C13_36  and  N10_37 
ROOT
HETATM    1  C4  UNL     1    -131.022  31.206 128.223  1.00  0.00     0.146 C 
ENDROOT
BRANCH   1   2
HETATM    2  C3  UNL     1    -131.320  32.105 129.323  1.00  0.00     0.120 A 
HETATM    3  C2  UNL     1    -130.465  32.308 130.378  1.00  0.00     0.151 A 
HETATM    4  N2  UNL     1    -130.835  33.197 131.350  1.00  0.00    -0.178 N 
HETATM    5  N3  UNL     1    -129.232  31.627 130.479  1.00  0.00    -0.081 NA
HETATM    6  C1  UNL     1    -131.967  33.864 131.312  1.00  0.00     0.680 A 
ATOM      7  H2  UNL     1    -130.205  33.350 132.137  1.00  0.00     0.185 HD
HETATM    8  N11 UNL     1    -132.860  33.712 130.298  1.00  0.00    -0.155 N 
HETATM    9  C14 UNL     1    -132.517  32.827 129.307  1.00  0.00     0.277 A 
ATOM     10  H11 UNL     1    -133.740  34.228 130.276  1.00  0.00     0.187 HD
HETATM   11  O3  UNL     1    -133.295  32.648 128.343  1.00  0.00    -0.267 OA
BRANCH   6  12
HETATM   12  N1  UNL     1    -132.309  34.722 132.237  1.00  0.00    -0.234 N 
ATOM     13  H12 UNL     1    -132.159  34.413 133.198  1.00  0.00     0.174 HD
ATOM     14  H11 UNL     1    -132.705  35.636 132.017  1.00  0.00     0.174 HD
ENDBRANCH   6  12
ENDBRANCH   1   2
BRANCH   1  15
HETATM   15  N4  UNL     1    -130.962  30.005 128.330  1.00  0.00    -0.249 N 
ATOM     16  H4  UNL     1    -130.441  29.776 127.484  1.00  0.00     0.196 HD
BRANCH  15  17
HETATM   17  O1  UNL     1    -131.128  28.834 128.817  1.00  0.00    -0.274 OA
BRANCH  17  18
HETATM   18  C5  UNL     1    -131.070  27.718 127.836  1.00  0.00     0.245 C 
BRANCH  18  19
HETATM   19  C6  UNL     1    -132.540  27.419 127.738  1.00  0.00     0.084 C 
BRANCH  19  20
HETATM   20  N5  UNL     1    -133.394  28.296 127.155  1.00  0.00    -0.398 N 
ATOM     21  H5  UNL     1    -133.983  28.903 127.725  1.00  0.00     0.158 HD
BRANCH  20  22
HETATM   22  C7  UNL     1    -133.453  28.356 125.740  1.00  0.00     0.144 C 
BRANCH  22  23
HETATM   23  C8  UNL     1    -133.038  29.801 125.400  1.00  0.00     0.183 C 
BRANCH  23  24
HETATM   24  O2  UNL     1    -133.516  30.644 126.356  1.00  0.00    -0.399 OA
ATOM     25  H2  UNL     1    -132.817  30.861 126.961  1.00  0.00     0.209 HD
ENDBRANCH  23  24
ENDBRANCH  22  23
ENDBRANCH  20  22
ENDBRANCH  19  20
ENDBRANCH  18  19
ENDBRANCH  17  18
ENDBRANCH  15  17
ENDBRANCH   1  15
BRANCH   1  26
HETATM   26  N6  UNL     1    -130.594  31.716 126.929  1.00  0.00    -0.323 N 
ATOM     27  H6  UNL     1    -131.279  31.990 126.225  1.00  0.00     0.169 HD
BRANCH  26  28
HETATM   28  C9  UNL     1    -129.251  31.818 126.680  1.00  0.00     0.155 C 
BRANCH  28  29
HETATM   29  N7  UNL     1    -128.425  31.500 127.647  1.00  0.00    -0.290 N 
ATOM     30  H7  UNL     1    -128.460  30.586 128.099  1.00  0.00     0.188 HD
BRANCH  29  31
HETATM   31  N8  UNL     1    -127.505  32.456 128.027  1.00  0.00    -0.344 N 
ATOM     32  H82 UNL     1    -126.868  32.864 127.343  1.00  0.00     0.176 HD
ATOM     33  H81 UNL     1    -127.499  32.728 129.010  1.00  0.00     0.176 HD
ENDBRANCH  29  31
ENDBRANCH  28  29
BRANCH  28  34
HETATM   34  C10 UNL     1    -128.630  32.259 125.427  1.00  0.00     0.121 A 
HETATM   35  N9  UNL     1    -128.603  33.562 125.030  1.00  0.00    -0.337 N 
HETATM   36  C11 UNL     1    -128.118  33.839 123.876  1.00  0.00     0.119 A 
ATOM     37  H9  UNL     1    -128.960  34.299 125.636  1.00  0.00     0.167 HD
HETATM   38 CL1  UNL     1    -127.874  35.516 123.310  1.00  0.00    -0.063 Cl
HETATM   39  C12 UNL     1    -127.652  32.793 123.073  1.00  0.00     0.049 A 
HETATM   40  S1  UNL     1    -127.944  31.475 124.089  1.00  0.00    -0.068 SA
BRANCH  39  41
HETATM   41  C13 UNL     1    -127.304  32.940 121.639  1.00  0.00     0.278 C 
BRANCH  41  42
HETATM   42  N10 UNL     1    -127.620  31.856 120.768  1.00  0.00    -0.075 N 
ATOM     43 3H10 UNL     1    -128.263  31.221 121.240  1.00  0.00     0.274 HD
ATOM     44 2H10 UNL     1    -128.208  32.196 120.007  1.00  0.00     0.274 HD
ATOM     45 1H10 UNL     1    -126.843  31.320 120.380  1.00  0.00     0.274 HD
ENDBRANCH  41  42
ENDBRANCH  39  41
ENDBRANCH  28  34
ENDBRANCH  26  28
ENDBRANCH   1  26
TORSDOF 17
ENDMDL
MODEL 3
REMARK VINA RESULT: -6.679115182      1.539      2.256
REMARK  17 active torsions:
REMARK  status: ('A' for Active; 'I' for Inactive)
REMARK    1  A    between atoms: N1_1  and  C1_4 
REMARK    2  A    between atoms: C3_9  and  C4_10 
REMARK    3  A    between atoms: C4_10  and  N4_11 
REMARK    4  A    between atoms: C4_10  and  N6_22 
REMARK    5  A    between atoms: N4_11  and  O1_13 
REMARK    6  A    between atoms: O1_13  and  C5_14 
REMARK    7  A    between atoms: C5_14  and  C6_15 
REMARK    8  A    between atoms: C6_15  and  N5_16 
REMARK    9  A    between atoms: N5_16  and  C7_18 
REMARK   10  A    between atoms: C7_18  and  C8_19 
REMARK   11  A    between atoms: C8_19  and  O2_20 
REMARK   12  A    between atoms: N6_22  and  C9_24 
REMARK   13  A    between atoms: C9_24  and  N7_25 
REMARK   14  A    between atoms: C9_24  and  C10_30 
REMARK   15  A    between atoms: N7_25  and  N8_27 
REMARK   16  A    between atoms: C12_35  and  C13_36 
REMARK   17  A    between atoms: C13_36  and  N10_37 
ROOT
HETATM    1  C4  UNL     1    -128.765  32.245 124.249  1.00  0.00     0.146 C 
ENDROOT
BRANCH   1   2
HETATM    2  C3  UNL     1    -128.180  33.481 123.761  1.00  0.00     0.120 A 
HETATM    3  C2  UNL     1    -128.292  33.898 122.458  1.00  0.00     0.151 A 
HETATM    4  N2  UNL     1    -127.722  35.093 122.110  1.00  0.00    -0.178 N 
HETATM    5  N3  UNL     1    -128.970  33.131 121.485  1.00  0.00    -0.081 NA
HETATM    6  C1  UNL     1    -127.080  35.854 122.969  1.00  0.00     0.680 A 
ATOM      7  H2  UNL     1    -127.799  35.407 121.142  1.00  0.00     0.185 HD
HETATM    8  N11 UNL     1    -126.932  35.501 124.273  1.00  0.00    -0.155 N 
HETATM    9  C14 UNL     1    -127.494  34.308 124.654  1.00  0.00     0.277 A 
ATOM     10  H11 UNL     1    -126.429  36.092 124.935  1.00  0.00     0.187 HD
HETATM   11  O3  UNL     1    -127.396  33.931 125.844  1.00  0.00    -0.267 OA
BRANCH   6  12
HETATM   12  N1  UNL     1    -126.550  37.000 122.633  1.00  0.00    -0.234 N 
ATOM     13  H12 UNL     1    -125.752  36.945 122.000  1.00  0.00     0.174 HD
ATOM     14  H11 UNL     1    -126.903  37.891 122.984  1.00  0.00     0.174 HD
ENDBRANCH   6  12
ENDBRANCH   1   2
BRANCH   1  15
HETATM   15  N4  UNL     1    -128.270  31.155 124.092  1.00  0.00    -0.249 N 
ATOM     16  H4  UNL     1    -127.323  31.339 124.423  1.00  0.00     0.196 HD
BRANCH  15  17
HETATM   17  O1  UNL     1    -128.164  29.920 123.779  1.00  0.00    -0.274 OA
BRANCH  17  18
HETATM   18  C5  UNL     1    -126.954  29.560 122.992  1.00  0.00     0.245 C 
BRANCH  18  19
HETATM   19  C6  UNL     1    -127.461  29.900 121.619  1.00  0.00     0.084 C 
BRANCH  19  20
HETATM   20  N5  UNL     1    -128.534  29.260 121.093  1.00  0.00    -0.398 N 
ATOM     21  H5  UNL     1    -129.306  29.788 120.687  1.00  0.00     0.158 HD
BRANCH  20  22
HETATM   22  C7  UNL     1    -128.565  27.843 121.118  1.00  0.00     0.144 C 
BRANCH  22  23
HETATM   23  C8  UNL     1    -130.016  27.499 121.510  1.00  0.00     0.183 C 
BRANCH  23  24
HETATM   24  O2  UNL     1    -130.086  26.189 121.873  1.00  0.00    -0.399 OA
ATOM     25  H2  UNL     1    -130.590  25.710 121.226  1.00  0.00     0.209 HD
ENDBRANCH  23  24
ENDBRANCH  22  23
ENDBRANCH  20  22
ENDBRANCH  19  20
ENDBRANCH  18  19
ENDBRANCH  17  18
ENDBRANCH  15  17
ENDBRANCH   1  15
BRANCH   1  26
HETATM   26  N6  UNL     1    -130.103  32.220 124.820  1.00  0.00    -0.323 N 
ATOM     27  H6  UNL     1    -130.913  32.493 124.263  1.00  0.00     0.169 HD
BRANCH  26  28
HETATM   28  C9  UNL     1    -130.250  31.822 126.123  1.00  0.00     0.155 C 
BRANCH  28  29
HETATM   29  N7  UNL     1    -129.551  32.453 127.036  1.00  0.00    -0.290 N 
ATOM     30  H7  UNL     1    -129.654  33.457 127.187  1.00  0.00     0.188 HD
BRANCH  29  31
HETATM   31  N8  UNL     1    -128.669  31.699 127.782  1.00  0.00    -0.344 N 
ATOM     32  H82 UNL     1    -128.809  30.694 127.893  1.00  0.00     0.176 HD
ATOM     33  H81 UNL     1    -127.884  32.191 128.209  1.00  0.00     0.176 HD
ENDBRANCH  29  31
ENDBRANCH  28  29
BRANCH  28  34
HETATM   34  C10 UNL     1    -131.116  30.746 126.612  1.00  0.00     0.121 A 
HETATM   35  N9  UNL     1    -132.217  30.970 127.382  1.00  0.00    -0.337 N 
HETATM   36  C11 UNL     1    -132.861  29.960 127.837  1.00  0.00     0.119 A 
ATOM     37  H9  UNL     1    -132.522  31.921 127.591  1.00  0.00     0.167 HD
HETATM   38 CL1  UNL     1    -134.409  30.119 128.715  1.00  0.00    -0.063 Cl
HETATM   39  C12 UNL     1    -132.398  28.675 127.536  1.00  0.00     0.049 A 
HETATM   40  S1  UNL     1    -131.054  29.051 126.583  1.00  0.00    -0.068 SA
BRANCH  39  41
HETATM   41  C13 UNL     1    -132.890  27.441 128.194  1.00  0.00     0.278 C 
BRANCH  41  42
HETATM   42  N10 UNL     1    -132.694  27.319 129.601  1.00  0.00    -0.075 N 
ATOM     43 3H10 UNL     1    -132.256  26.420 129.804  1.00  0.00     0.274 HD
ATOM     44 2H10 UNL     1    -131.959  27.962 129.895  1.00  0.00     0.274 HD
ATOM     45 1H10 UNL     1    -133.508  27.439 130.205  1.00  0.00     0.274 HD
ENDBRANCH  41  42
ENDBRANCH  39  41
ENDBRANCH  28  34
ENDBRANCH  26  28
ENDBRANCH   1  26
TORSDOF 17
ENDMDL
MODEL 4
REMARK VINA RESULT: -6.611733121      4.017      7.679
REMARK  17 active torsions:
REMARK  status: ('A' for Active; 'I' for Inactive)
REMARK    1  A    between atoms: N1_1  and  C1_4 
REMARK    2  A    between atoms: C3_9  and  C4_10 
REMARK    3  A    between atoms: C4_10  and  N4_11 
REMARK    4  A    between atoms: C4_10  and  N6_22 
REMARK    5  A    between atoms: N4_11  and  O1_13 
REMARK    6  A    between atoms: O1_13  and  C5_14 
REMARK    7  A    between atoms: C5_14  and  C6_15 
REMARK    8  A    between atoms: C6_15  and  N5_16 
REMARK    9  A    between atoms: N5_16  and  C7_18 
REMARK   10  A    between atoms: C7_18  and  C8_19 
REMARK   11  A    between atoms: C8_19  and  O2_20 
REMARK   12  A    between atoms: N6_22  and  C9_24 
REMARK   13  A    between atoms: C9_24  and  N7_25 
REMARK   14  A    between atoms: C9_24  and  C10_30 
REMARK   15  A    between atoms: N7_25  and  N8_27 
REMARK   16  A    between atoms: C12_35  and  C13_36 
REMARK   17  A    between atoms: C13_36  and  N10_37 
ROOT
HETATM    1  C4  UNL     1    -130.962  31.253 128.040  1.00  0.00     0.146 C 
ENDROOT
BRANCH   1   2
HETATM    2  C3  UNL     1    -131.325  32.102 129.161  1.00  0.00     0.120 A 
HETATM    3  C2  UNL     1    -130.488  32.335 130.224  1.00  0.00     0.151 A 
HETATM    4  N2  UNL     1    -130.920  33.172 131.217  1.00  0.00    -0.178 N 
HETATM    5  N3  UNL     1    -129.211  31.737 130.313  1.00  0.00    -0.081 NA
HETATM    6  C1  UNL     1    -132.095  33.761 131.191  1.00  0.00     0.680 A 
ATOM      7  H2  UNL     1    -130.304  33.347 132.011  1.00  0.00     0.185 HD
HETATM    8  N11 UNL     1    -132.973  33.574 130.170  1.00  0.00    -0.155 N 
HETATM    9  C14 UNL     1    -132.567  32.741 129.157  1.00  0.00     0.277 A 
ATOM     10  H11 UNL     1    -133.885  34.030 130.156  1.00  0.00     0.187 HD
HETATM   11  O3  UNL     1    -133.329  32.533 128.185  1.00  0.00    -0.267 OA
BRANCH   6  12
HETATM   12  N1  UNL     1    -132.497  34.570 132.135  1.00  0.00    -0.234 N 
ATOM     13  H12 UNL     1    -132.311  35.559 131.973  1.00  0.00     0.174 HD
ATOM     14  H11 UNL     1    -132.959  34.237 132.982  1.00  0.00     0.174 HD
ENDBRANCH   6  12
ENDBRANCH   1   2
BRANCH   1  15
HETATM   15  N4  UNL     1    -130.780  30.063 128.125  1.00  0.00    -0.249 N 
ATOM     16  H4  UNL     1    -130.952  29.926 129.121  1.00  0.00     0.196 HD
BRANCH  15  17
HETATM   17  O1  UNL     1    -130.510  28.863 127.776  1.00  0.00    -0.274 OA
BRANCH  17  18
HETATM   18  C5  UNL     1    -131.411  28.277 126.748  1.00  0.00     0.245 C 
BRANCH  18  19
HETATM   19  C6  UNL     1    -132.596  27.976 127.622  1.00  0.00     0.084 C 
BRANCH  19  20
HETATM   20  N5  UNL     1    -132.645  26.845 128.367  1.00  0.00    -0.398 N 
ATOM     21  H5  UNL     1    -132.594  25.928 127.924  1.00  0.00     0.158 HD
BRANCH  20  22
HETATM   22  C7  UNL     1    -132.767  26.958 129.775  1.00  0.00     0.144 C 
BRANCH  22  23
HETATM   23  C8  UNL     1    -131.321  27.151 130.271  1.00  0.00     0.183 C 
BRANCH  23  24
HETATM   24  O2  UNL     1    -131.337  27.488 131.589  1.00  0.00    -0.399 OA
ATOM     25  H2  UNL     1    -131.092  26.733 132.110  1.00  0.00     0.209 HD
ENDBRANCH  23  24
ENDBRANCH  22  23
ENDBRANCH  20  22
ENDBRANCH  19  20
ENDBRANCH  18  19
ENDBRANCH  17  18
ENDBRANCH  15  17
ENDBRANCH   1  15
BRANCH   1  26
HETATM   26  N6  UNL     1    -130.618  31.822 126.746  1.00  0.00    -0.323 N 
ATOM     27  H6  UNL     1    -131.326  31.936 126.021  1.00  0.00     0.169 HD
BRANCH  26  28
HETATM   28  C9  UNL     1    -129.320  32.202 126.524  1.00  0.00     0.155 C 
BRANCH  28  29
HETATM   29  N7  UNL     1    -128.573  32.461 127.571  1.00  0.00    -0.290 N 
ATOM     30  H7  UNL     1    -128.847  33.161 128.261  1.00  0.00     0.188 HD
BRANCH  29  31
HETATM   31  N8  UNL     1    -127.401  31.745 127.698  1.00  0.00    -0.344 N 
ATOM     32  H82 UNL     1    -126.664  31.826 126.996  1.00  0.00     0.176 HD
ATOM     33  H81 UNL     1    -127.313  31.141 128.515  1.00  0.00     0.176 HD
ENDBRANCH  29  31
ENDBRANCH  28  29
BRANCH  28  34
HETATM   34  C10 UNL     1    -128.669  32.357 125.221  1.00  0.00     0.121 A 
HETATM   35  N9  UNL     1    -128.629  33.540 124.546  1.00  0.00    -0.337 N 
HETATM   36  C11 UNL     1    -128.117  33.557 123.372  1.00  0.00     0.119 A 
ATOM     37  H9  UNL     1    -128.998  34.392 124.967  1.00  0.00     0.167 HD
HETATM   38 CL1  UNL     1    -127.854  35.069 122.456  1.00  0.00    -0.063 Cl
HETATM   39  C12 UNL     1    -127.636  32.361 122.829  1.00  0.00     0.049 A 
HETATM   40  S1  UNL     1    -127.956  31.298 124.104  1.00  0.00    -0.068 SA
BRANCH  39  41
HETATM   41  C13 UNL     1    -127.255  32.189 121.406  1.00  0.00     0.278 C 
BRANCH  41  42
HETATM   42  N10 UNL     1    -128.243  32.477 120.419  1.00  0.00    -0.075 N 
ATOM     43 3H10 UNL     1    -129.131  32.061 120.699  1.00  0.00     0.274 HD
ATOM     44 2H10 UNL     1    -128.475  33.469 120.455  1.00  0.00     0.274 HD
ATOM     45 1H10 UNL     1    -128.038  32.214 119.454  1.00  0.00     0.274 HD
ENDBRANCH  41  42
ENDBRANCH  39  41
ENDBRANCH  28  34
ENDBRANCH  26  28
ENDBRANCH   1  26
TORSDOF 17
ENDMDL
MODEL 5
REMARK VINA RESULT: -6.518399630      0.917      1.514
REMARK  17 active torsions:
REMARK  status: ('A' for Active; 'I' for Inactive)
REMARK    1  A    between atoms: N1_1  and  C1_4 
REMARK    2  A    between atoms: C3_9  and  C4_10 
REMARK    3  A    between atoms: C4_10  and  N4_11 
REMARK    4  A    between atoms: C4_10  and  N6_22 
REMARK    5  A    between atoms: N4_11  and  O1_13 
REMARK    6  A    between atoms: O1_13  and  C5_14 
REMARK    7  A    between atoms: C5_14  and  C6_15 
REMARK    8  A    between atoms: C6_15  and  N5_16 
REMARK    9  A    between atoms: N5_16  and  C7_18 
REMARK   10  A    between atoms: C7_18  and  C8_19 
REMARK   11  A    between atoms: C8_19  and  O2_20 
REMARK   12  A    between atoms: N6_22  and  C9_24 
REMARK   13  A    between atoms: C9_24  and  N7_25 
REMARK   14  A    between atoms: C9_24  and  C10_30 
REMARK   15  A    between atoms: N7_25  and  N8_27 
REMARK   16  A    between atoms: C12_35  and  C13_36 
REMARK   17  A    between atoms: C13_36  and  N10_37 
ROOT
HETATM    1  C4  UNL     1    -127.813  33.090 123.569  1.00  0.00     0.146 C 
ENDROOT
BRANCH   1   2
HETATM    2  C3  UNL     1    -128.047  33.792 122.319  1.00  0.00     0.120 A 
HETATM    3  C2  UNL     1    -128.315  33.147 121.138  1.00  0.00     0.151 A 
HETATM    4  N2  UNL     1    -128.545  33.907 120.023  1.00  0.00    -0.178 N 
HETATM    5  N3  UNL     1    -128.357  31.737 121.050  1.00  0.00    -0.081 NA
HETATM    6  C1  UNL     1    -128.522  35.221 120.039  1.00  0.00     0.680 A 
ATOM      7  H2  UNL     1    -128.742  33.433 119.141  1.00  0.00     0.185 HD
HETATM    8  N11 UNL     1    -128.262  35.923 121.174  1.00  0.00    -0.155 N 
HETATM    9  C14 UNL     1    -128.030  35.189 122.310  1.00  0.00     0.277 A 
ATOM     10  H11 UNL     1    -128.242  36.943 121.181  1.00  0.00     0.187 HD
HETATM   11  O3  UNL     1    -127.791  35.779 123.388  1.00  0.00    -0.267 OA
BRANCH   6  12
HETATM   12  N1  UNL     1    -128.755  35.942 118.974  1.00  0.00    -0.234 N 
ATOM     13  H12 UNL     1    -128.712  36.952 119.111  1.00  0.00     0.174 HD
ATOM     14  H11 UNL     1    -128.972  35.526 118.068  1.00  0.00     0.174 HD
ENDBRANCH   6  12
ENDBRANCH   1   2
BRANCH   1  15
HETATM   15  N4  UNL     1    -127.023  32.186 123.698  1.00  0.00    -0.249 N 
ATOM     16  H4  UNL     1    -126.483  32.532 124.491  1.00  0.00     0.196 HD
BRANCH  15  17
HETATM   17  O1  UNL     1    -126.426  31.076 123.485  1.00  0.00    -0.274 OA
BRANCH  17  18
HETATM   18  C5  UNL     1    -127.262  29.856 123.647  1.00  0.00     0.245 C 
BRANCH  18  19
HETATM   19  C6  UNL     1    -126.901  29.157 122.367  1.00  0.00     0.084 C 
BRANCH  19  20
HETATM   20  N5  UNL     1    -127.861  28.678 121.539  1.00  0.00    -0.398 N 
ATOM     21  H5  UNL     1    -127.674  28.551 120.544  1.00  0.00     0.158 HD
BRANCH  20  22
HETATM   22  C7  UNL     1    -129.132  28.356 122.079  1.00  0.00     0.144 C 
BRANCH  22  23
HETATM   23  C8  UNL     1    -129.690  27.278 121.129  1.00  0.00     0.183 C 
BRANCH  23  24
HETATM   24  O2  UNL     1    -130.077  26.194 121.855  1.00  0.00    -0.399 OA
ATOM     25  H2  UNL     1    -130.236  26.457 122.753  1.00  0.00     0.209 HD
ENDBRANCH  23  24
ENDBRANCH  22  23
ENDBRANCH  20  22
ENDBRANCH  19  20
ENDBRANCH  18  19
ENDBRANCH  17  18
ENDBRANCH  15  17
ENDBRANCH   1  15
BRANCH   1  26
HETATM   26  N6  UNL     1    -128.659  33.320 124.730  1.00  0.00    -0.323 N 
ATOM     27  H6  UNL     1    -129.135  34.212 124.860  1.00  0.00     0.169 HD
BRANCH  26  28
HETATM   28  C9  UNL     1    -128.801  32.309 125.645  1.00  0.00     0.155 C 
BRANCH  28  29
HETATM   29  N7  UNL     1    -127.753  31.988 126.366  1.00  0.00    -0.290 N 
ATOM     30  H7  UNL     1    -127.020  31.381 126.000  1.00  0.00     0.188 HD
BRANCH  29  31
HETATM   31  N8  UNL     1    -127.687  32.508 127.642  1.00  0.00    -0.344 N 
ATOM     32  H82 UNL     1    -128.463  33.049 128.023  1.00  0.00     0.176 HD
ATOM     33  H81 UNL     1    -126.836  32.325 128.174  1.00  0.00     0.176 HD
ENDBRANCH  29  31
ENDBRANCH  28  29
BRANCH  28  34
HETATM   34  C10 UNL     1    -130.017  31.534 125.903  1.00  0.00     0.121 A 
HETATM   35  N9  UNL     1    -130.875  31.816 126.924  1.00  0.00    -0.337 N 
HETATM   36  C11 UNL     1    -131.864  31.027 127.127  1.00  0.00     0.119 A 
ATOM     37  H9  UNL     1    -130.732  32.636 127.513  1.00  0.00     0.167 HD
HETATM   38 CL1  UNL     1    -133.147  31.375 128.321  1.00  0.00    -0.063 Cl
HETATM   39  C12 UNL     1    -132.012  29.907 126.302  1.00  0.00     0.049 A 
HETATM   40  S1  UNL     1    -130.688  30.111 125.271  1.00  0.00    -0.068 SA
BRANCH  39  41
HETATM   41  C13 UNL     1    -132.949  28.791 126.578  1.00  0.00     0.278 C 
BRANCH  41  42
HETATM   42  N10 UNL     1    -132.632  27.912 127.654  1.00  0.00    -0.075 N 
ATOM     43 3H10 UNL     1    -131.780  27.398 127.429  1.00  0.00     0.274 HD
ATOM     44 2H10 UNL     1    -132.320  28.460 128.455  1.00  0.00     0.274 HD
ATOM     45 1H10 UNL     1    -133.351  27.254 127.956  1.00  0.00     0.274 HD
ENDBRANCH  41  42
ENDBRANCH  39  41
ENDBRANCH  28  34
ENDBRANCH  26  28
ENDBRANCH   1  26
TORSDOF 17
ENDMDL
