MODEL 1
REMARK VINA RESULT: -7.891033130      0.000      0.000
REMARK  9 active torsions:
REMARK  status: ('A' for Active; 'I' for Inactive)
REMARK    1  A    between atoms: O1_2  and  C2_3 
REMARK    2  A    between atoms: C4_5  and  N1_6 
REMARK    3  A    between atoms: C5_11  and  N4_12 
REMARK    4  A    between atoms: N4_12  and  C6_14 
REMARK    5  A    between atoms: C8_19  and  N7_20 
REMARK    6  A    between atoms: C10_27  and  N9_28 
REMARK    7  A    between atoms: N9_28  and  C11_30 
REMARK    8  A    between atoms: C11_30  and  C12_31 
REMARK    9  A    between atoms: C12_31  and  N10_32 
REMARK       I    between atoms: N10_32  and  C13_34 
ROOT
HETATM    1  N1  UNL     1    -128.458  31.826 125.913  1.00  0.00    -0.218 N 
HETATM    2  N2  UNL     1    -127.664  31.983 126.948  1.00  0.00    -0.232 N 
ATOM      3  H2  UNL     1    -126.690  32.278 126.886  1.00  0.00     0.209 HD
HETATM    4  N3  UNL     1    -128.283  31.713 128.068  1.00  0.00    -0.267 N 
ATOM      5  H3  UNL     1    -127.872  31.763 129.001  1.00  0.00     0.190 HD
HETATM    6  C5  UNL     1    -129.578  31.349 127.780  1.00  0.00     0.169 A 
HETATM    7  C10 UNL     1    -129.678  31.422 126.422  1.00  0.00     0.174 A 
ENDROOT
BRANCH   6   8
HETATM    8  N4  UNL     1    -130.526  31.026 128.771  1.00  0.00    -0.331 N 
ATOM      9  H4  UNL     1    -130.855  30.064 128.858  1.00  0.00     0.168 HD
BRANCH   8  10
HETATM   10  C6  UNL     1    -131.037  32.030 129.661  1.00  0.00     0.145 A 
HETATM   11  C7  UNL     1    -130.439  32.318 130.855  1.00  0.00     0.164 A 
HETATM   12  N5  UNL     1    -129.281  31.609 131.226  1.00  0.00    -0.080 NA
HETATM   13  N6  UNL     1    -130.960  33.272 131.660  1.00  0.00    -0.177 N 
HETATM   14  C8  UNL     1    -132.063  33.945 131.301  1.00  0.00     0.680 A 
ATOM     15  H6  UNL     1    -130.508  33.482 132.550  1.00  0.00     0.185 HD
HETATM   16  N8  UNL     1    -132.662  33.673 130.131  1.00  0.00    -0.154 N 
HETATM   17  C9  UNL     1    -132.172  32.719 129.288  1.00  0.00     0.289 A 
ATOM     18  H8  UNL     1    -133.501  34.189 129.868  1.00  0.00     0.187 HD
HETATM   19  O2  UNL     1    -132.772  32.502 128.200  1.00  0.00    -0.265 OA
BRANCH  14  20
HETATM   20  N7  UNL     1    -132.519  34.844 132.102  1.00  0.00    -0.234 N 
ATOM     21  H72 UNL     1    -131.993  35.153 132.919  1.00  0.00     0.174 HD
ATOM     22  H71 UNL     1    -133.433  35.252 131.905  1.00  0.00     0.174 HD
ENDBRANCH  14  20
ENDBRANCH   8  10
ENDBRANCH   6   8
BRANCH   7  23
HETATM   23  N9  UNL     1    -130.761  31.198 125.581  1.00  0.00    -0.350 N 
ATOM     24  H9  UNL     1    -131.094  32.011 125.064  1.00  0.00     0.166 HD
BRANCH  23  25
HETATM   25  C11 UNL     1    -131.462  30.000 125.347  1.00  0.00     0.082 C 
BRANCH  25  26
HETATM   26  C12 UNL     1    -132.657  29.752 126.256  1.00  0.00     0.166 C 
BRANCH  26  27
HETATM   27  N10 UNL     1    -132.694  28.352 126.626  1.00  0.00    -0.360 N 
HETATM   28  C13 UNL     1    -132.028  27.943 127.825  1.00  0.00     0.182 C 
HETATM   29  N11 UNL     1    -132.769  27.702 128.853  1.00  0.00    -0.374 N 
HETATM   30  N12 UNL     1    -130.623  27.818 127.851  1.00  0.00    -0.064 NA
ATOM     31 2H11 UNL     1    -133.785  27.792 128.835  1.00  0.00     0.158 HD
ATOM     32 1H11 UNL     1    -132.295  27.411 129.707  1.00  0.00     0.158 HD
ATOM     33  H10 UNL     1    -133.185  27.673 126.045  1.00  0.00     0.162 HD
ENDBRANCH  26  27
ENDBRANCH  25  26
ENDBRANCH  23  25
ENDBRANCH   7  23
BRANCH   1  34
HETATM   34  C4  UNL     1    -128.120  32.030 124.549  1.00  0.00     0.107 A 
HETATM   35  C3  UNL     1    -127.741  31.023 123.689  1.00  0.00     0.091 A 
HETATM   36  C2  UNL     1    -127.417  31.240 122.371  1.00  0.00     0.146 A 
HETATM   37  N13 UNL     1    -127.469  32.493 121.891  1.00  0.00    -0.311 N 
HETATM   38  C15 UNL     1    -127.832  33.546 122.672  1.00  0.00     0.231 A 
ATOM     39  H13 UNL     1    -127.229  32.661 120.914  1.00  0.00     0.170 HD
HETATM   40  C14 UNL     1    -128.151  33.303 123.983  1.00  0.00     0.201 A 
HETATM   41  F2  UNL     1    -127.853  34.759 122.097  1.00  0.00    -0.183 F 
HETATM   42  F1  UNL     1    -128.510  34.361 124.744  1.00  0.00    -0.199 F 
BRANCH  36  43
HETATM   43  O1  UNL     1    -127.037  30.224 121.508  1.00  0.00    -0.341 OA
HETATM   44  C1  UNL     1    -127.300  28.874 121.717  1.00  0.00     0.211 C 
ENDBRANCH  36  43
ENDBRANCH   1  34
TORSDOF 9
ENDMDL
MODEL 2
REMARK VINA RESULT: -7.839181565      1.524      2.128
REMARK  9 active torsions:
REMARK  status: ('A' for Active; 'I' for Inactive)
REMARK    1  A    between atoms: O1_2  and  C2_3 
REMARK    2  A    between atoms: C4_5  and  N1_6 
REMARK    3  A    between atoms: C5_11  and  N4_12 
REMARK    4  A    between atoms: N4_12  and  C6_14 
REMARK    5  A    between atoms: C8_19  and  N7_20 
REMARK    6  A    between atoms: C10_27  and  N9_28 
REMARK    7  A    between atoms: N9_28  and  C11_30 
REMARK    8  A    between atoms: C11_30  and  C12_31 
REMARK    9  A    between atoms: C12_31  and  N10_32 
REMARK       I    between atoms: N10_32  and  C13_34 
ROOT
HETATM    1  N1  UNL     1    -128.320  32.062 125.891  1.00  0.00    -0.218 N 
HETATM    2  N2  UNL     1    -127.465  32.058 126.889  1.00  0.00    -0.232 N 
ATOM      3  H2  UNL     1    -126.481  32.313 126.804  1.00  0.00     0.209 HD
HETATM    4  N3  UNL     1    -128.036  31.683 128.004  1.00  0.00    -0.267 N 
ATOM      5  H3  UNL     1    -127.574  31.603 128.910  1.00  0.00     0.190 HD
HETATM    6  C5  UNL     1    -129.362  31.416 127.752  1.00  0.00     0.169 A 
HETATM    7  C10 UNL     1    -129.531  31.656 126.421  1.00  0.00     0.174 A 
ENDROOT
BRANCH   6   8
HETATM    8  N4  UNL     1    -130.272  31.020 128.754  1.00  0.00    -0.331 N 
ATOM      9  H4  UNL     1    -130.520  30.035 128.845  1.00  0.00     0.168 HD
BRANCH   8  10
HETATM   10  C6  UNL     1    -130.854  31.982 129.647  1.00  0.00     0.145 A 
HETATM   11  C7  UNL     1    -130.328  32.241 130.881  1.00  0.00     0.164 A 
HETATM   12  N5  UNL     1    -129.177  31.545 131.292  1.00  0.00    -0.080 NA
HETATM   13  N6  UNL     1    -130.915  33.156 131.686  1.00  0.00    -0.177 N 
HETATM   14  C8  UNL     1    -132.012  33.818 131.289  1.00  0.00     0.680 A 
ATOM     15  H6  UNL     1    -130.518  33.344 132.607  1.00  0.00     0.185 HD
HETATM   16  N8  UNL     1    -132.539  33.573 130.080  1.00  0.00    -0.154 N 
HETATM   17  C9  UNL     1    -131.982  32.659 129.234  1.00  0.00     0.289 A 
ATOM     18  H8  UNL     1    -133.374  34.081 129.787  1.00  0.00     0.187 HD
HETATM   19  O2  UNL     1    -132.516  32.467 128.108  1.00  0.00    -0.265 OA
BRANCH  14  20
HETATM   20  N7  UNL     1    -132.532  34.679 132.093  1.00  0.00    -0.234 N 
ATOM     21  H72 UNL     1    -132.066  34.958 132.956  1.00  0.00     0.174 HD
ATOM     22  H71 UNL     1    -133.435  35.087 131.850  1.00  0.00     0.174 HD
ENDBRANCH  14  20
ENDBRANCH   8  10
ENDBRANCH   6   8
BRANCH   7  23
HETATM   23  N9  UNL     1    -130.668  31.583 125.625  1.00  0.00    -0.350 N 
ATOM     24  H9  UNL     1    -131.007  32.472 125.259  1.00  0.00     0.166 HD
BRANCH  23  25
HETATM   25  C11 UNL     1    -131.414  30.449 125.257  1.00  0.00     0.082 C 
BRANCH  25  26
HETATM   26  C12 UNL     1    -132.507  30.038 126.233  1.00  0.00     0.166 C 
BRANCH  26  27
HETATM   27  N10 UNL     1    -132.507  28.596 126.373  1.00  0.00    -0.360 N 
HETATM   28  C13 UNL     1    -131.947  28.023 127.559  1.00  0.00     0.182 C 
HETATM   29  N11 UNL     1    -132.776  27.592 128.448  1.00  0.00    -0.374 N 
HETATM   30  N12 UNL     1    -130.547  27.947 127.719  1.00  0.00    -0.064 NA
ATOM     31 2H11 UNL     1    -133.788  27.647 128.332  1.00  0.00     0.158 HD
ATOM     32 1H11 UNL     1    -132.377  27.184 129.293  1.00  0.00     0.158 HD
ATOM     33  H10 UNL     1    -132.897  28.002 125.641  1.00  0.00     0.162 HD
ENDBRANCH  26  27
ENDBRANCH  25  26
ENDBRANCH  23  25
ENDBRANCH   7  23
BRANCH   1  34
HETATM   34  C4  UNL     1    -128.045  32.412 124.543  1.00  0.00     0.107 A 
HETATM   35  C3  UNL     1    -128.054  33.704 124.065  1.00  0.00     0.091 A 
HETATM   36  C2  UNL     1    -127.785  34.025 122.756  1.00  0.00     0.146 A 
HETATM   37  N13 UNL     1    -127.501  33.035 121.894  1.00  0.00    -0.311 N 
HETATM   38  C15 UNL     1    -127.472  31.732 122.282  1.00  0.00     0.231 A 
ATOM     39  H13 UNL     1    -127.301  33.266 120.921  1.00  0.00     0.170 HD
HETATM   40  C14 UNL     1    -127.742  31.439 123.593  1.00  0.00     0.201 A 
HETATM   41  F2  UNL     1    -127.175  30.818 121.344  1.00  0.00    -0.183 F 
HETATM   42  F1  UNL     1    -127.708  30.138 123.961  1.00  0.00    -0.199 F 
BRANCH  36  43
HETATM   43  O1  UNL     1    -127.795  35.327 122.278  1.00  0.00    -0.341 OA
HETATM   44  C1  UNL     1    -127.009  36.356 122.786  1.00  0.00     0.211 C 
ENDBRANCH  36  43
ENDBRANCH   1  34
TORSDOF 9
ENDMDL
MODEL 3
REMARK VINA RESULT: -7.692739854      0.913      1.443
REMARK  9 active torsions:
REMARK  status: ('A' for Active; 'I' for Inactive)
REMARK    1  A    between atoms: O1_2  and  C2_3 
REMARK    2  A    between atoms: C4_5  and  N1_6 
REMARK    3  A    between atoms: C5_11  and  N4_12 
REMARK    4  A    between atoms: N4_12  and  C6_14 
REMARK    5  A    between atoms: C8_19  and  N7_20 
REMARK    6  A    between atoms: C10_27  and  N9_28 
REMARK    7  A    between atoms: N9_28  and  C11_30 
REMARK    8  A    between atoms: C11_30  and  C12_31 
REMARK    9  A    between atoms: C12_31  and  N10_32 
REMARK       I    between atoms: N10_32  and  C13_34 
ROOT
HETATM    1  N1  UNL     1    -128.544  31.820 125.942  1.00  0.00    -0.218 N 
HETATM    2  N2  UNL     1    -127.781  32.003 126.996  1.00  0.00    -0.232 N 
ATOM      3  H2  UNL     1    -126.808  32.307 126.955  1.00  0.00     0.209 HD
HETATM    4  N3  UNL     1    -128.427  31.746 128.103  1.00  0.00    -0.267 N 
ATOM      5  H3  UNL     1    -128.043  31.816 129.045  1.00  0.00     0.190 HD
HETATM    6  C5  UNL     1    -129.711  31.364 127.786  1.00  0.00     0.169 A 
HETATM    7  C10 UNL     1    -129.774  31.412 126.425  1.00  0.00     0.174 A 
ENDROOT
BRANCH   6   8
HETATM    8  N4  UNL     1    -130.682  31.048 128.757  1.00  0.00    -0.331 N 
ATOM      9  H4  UNL     1    -130.993  30.082 128.861  1.00  0.00     0.168 HD
BRANCH   8  10
HETATM   10  C6  UNL     1    -131.242  32.066 129.601  1.00  0.00     0.145 A 
HETATM   11  C7  UNL     1    -132.450  32.648 129.337  1.00  0.00     0.164 A 
HETATM   12  N5  UNL     1    -133.171  32.237 128.201  1.00  0.00    -0.080 NA
HETATM   13  N6  UNL     1    -132.934  33.604 130.162  1.00  0.00    -0.177 N 
HETATM   14  C8  UNL     1    -132.242  33.992 131.244  1.00  0.00     0.680 A 
ATOM     15  H6  UNL     1    -133.835  34.035 129.959  1.00  0.00     0.185 HD
HETATM   16  N8  UNL     1    -131.055  33.428 131.516  1.00  0.00    -0.154 N 
HETATM   17  C9  UNL     1    -130.528  32.461 130.712  1.00  0.00     0.289 A 
ATOM     18  H8  UNL     1    -130.536  33.730 132.340  1.00  0.00     0.187 HD
HETATM   19  O2  UNL     1    -129.408  31.963 131.012  1.00  0.00    -0.265 OA
BRANCH  14  20
HETATM   20  N7  UNL     1    -132.747  34.905 131.998  1.00  0.00    -0.234 N 
ATOM     21  H72 UNL     1    -132.532  35.893 131.862  1.00  0.00     0.174 HD
ATOM     22  H71 UNL     1    -133.377  34.622 132.749  1.00  0.00     0.174 HD
ENDBRANCH  14  20
ENDBRANCH   8  10
ENDBRANCH   6   8
BRANCH   7  23
HETATM   23  N9  UNL     1    -130.831  31.162 125.559  1.00  0.00    -0.350 N 
ATOM     24  H9  UNL     1    -131.175  31.968 125.038  1.00  0.00     0.166 HD
BRANCH  23  25
HETATM   25  C11 UNL     1    -131.493  29.947 125.305  1.00  0.00     0.082 C 
BRANCH  25  26
HETATM   26  C12 UNL     1    -132.721  29.677 126.162  1.00  0.00     0.166 C 
BRANCH  26  27
HETATM   27  N10 UNL     1    -132.722  28.288 126.574  1.00  0.00    -0.360 N 
HETATM   28  C13 UNL     1    -132.048  27.933 127.785  1.00  0.00     0.182 C 
HETATM   29  N11 UNL     1    -132.785  27.704 128.819  1.00  0.00    -0.374 N 
HETATM   30  N12 UNL     1    -130.640  27.846 127.816  1.00  0.00    -0.064 NA
ATOM     31 2H11 UNL     1    -133.803  27.766 128.797  1.00  0.00     0.158 HD
ATOM     32 1H11 UNL     1    -132.304  27.450 129.682  1.00  0.00     0.158 HD
ATOM     33  H10 UNL     1    -133.194  27.580 126.012  1.00  0.00     0.162 HD
ENDBRANCH  26  27
ENDBRANCH  25  26
ENDBRANCH  23  25
ENDBRANCH   7  23
BRANCH   1  34
HETATM   34  C4  UNL     1    -128.171  32.004 124.585  1.00  0.00     0.107 A 
HETATM   35  C3  UNL     1    -127.765  30.985 123.751  1.00  0.00     0.091 A 
HETATM   36  C2  UNL     1    -127.408  31.182 122.439  1.00  0.00     0.146 A 
HETATM   37  N13 UNL     1    -127.452  32.428 121.938  1.00  0.00    -0.311 N 
HETATM   38  C15 UNL     1    -127.840  33.490 122.692  1.00  0.00     0.231 A 
ATOM     39  H13 UNL     1    -127.187  32.581 120.965  1.00  0.00     0.170 HD
HETATM   40  C14 UNL     1    -128.193  33.267 123.997  1.00  0.00     0.201 A 
HETATM   41  F2  UNL     1    -127.851  34.694 122.097  1.00  0.00    -0.183 F 
HETATM   42  F1  UNL     1    -128.576  34.336 124.732  1.00  0.00    -0.199 F 
BRANCH  36  43
HETATM   43  O1  UNL     1    -127.000  30.154 121.603  1.00  0.00    -0.341 OA
HETATM   44  C1  UNL     1    -127.302  28.811 121.802  1.00  0.00     0.211 C 
ENDBRANCH  36  43
ENDBRANCH   1  34
TORSDOF 9
ENDMDL
MODEL 4
REMARK VINA RESULT: -7.665401124      1.911      2.693
REMARK  9 active torsions:
REMARK  status: ('A' for Active; 'I' for Inactive)
REMARK    1  A    between atoms: O1_2  and  C2_3 
REMARK    2  A    between atoms: C4_5  and  N1_6 
REMARK    3  A    between atoms: C5_11  and  N4_12 
REMARK    4  A    between atoms: N4_12  and  C6_14 
REMARK    5  A    between atoms: C8_19  and  N7_20 
REMARK    6  A    between atoms: C10_27  and  N9_28 
REMARK    7  A    between atoms: N9_28  and  C11_30 
REMARK    8  A    between atoms: C11_30  and  C12_31 
REMARK    9  A    between atoms: C12_31  and  N10_32 
REMARK       I    between atoms: N10_32  and  C13_34 
ROOT
HETATM    1  N1  UNL     1    -128.179  32.153 126.096  1.00  0.00    -0.218 N 
HETATM    2  N2  UNL     1    -127.360  31.948 127.103  1.00  0.00    -0.232 N 
ATOM      3  H2  UNL     1    -126.353  32.103 127.066  1.00  0.00     0.209 HD
HETATM    4  N3  UNL     1    -128.001  31.517 128.159  1.00  0.00    -0.267 N 
ATOM      5  H3  UNL     1    -127.578  31.288 129.058  1.00  0.00     0.190 HD
HETATM    6  C5  UNL     1    -129.339  31.424 127.854  1.00  0.00     0.169 A 
HETATM    7  C10 UNL     1    -129.441  31.825 126.555  1.00  0.00     0.174 A 
ENDROOT
BRANCH   6   8
HETATM    8  N4  UNL     1    -130.316  31.021 128.787  1.00  0.00    -0.331 N 
ATOM      9  H4  UNL     1    -130.533  30.029 128.890  1.00  0.00     0.168 HD
BRANCH   8  10
HETATM   10  C6  UNL     1    -131.009  31.984 129.596  1.00  0.00     0.145 A 
HETATM   11  C7  UNL     1    -132.223  32.498 129.236  1.00  0.00     0.164 A 
HETATM   12  N5  UNL     1    -132.817  32.069 128.036  1.00  0.00    -0.080 NA
HETATM   13  N6  UNL     1    -132.834  33.405 130.032  1.00  0.00    -0.177 N 
HETATM   14  C8  UNL     1    -132.264  33.811 131.176  1.00  0.00     0.680 A 
ATOM     15  H6  UNL     1    -133.740  33.785 129.758  1.00  0.00     0.185 HD
HETATM   16  N8  UNL     1    -131.072  33.315 131.541  1.00  0.00    -0.154 N 
HETATM   17  C9  UNL     1    -130.418  32.399 130.771  1.00  0.00     0.289 A 
ATOM     18  H8  UNL     1    -130.646  33.630 132.413  1.00  0.00     0.187 HD
HETATM   19  O2  UNL     1    -129.299  31.963 131.160  1.00  0.00    -0.265 OA
BRANCH  14  20
HETATM   20  N7  UNL     1    -132.887  34.676 131.898  1.00  0.00    -0.234 N 
ATOM     21  H72 UNL     1    -132.436  35.147 132.682  1.00  0.00     0.174 HD
ATOM     22  H71 UNL     1    -133.858  34.889 131.670  1.00  0.00     0.174 HD
ENDBRANCH  14  20
ENDBRANCH   8  10
ENDBRANCH   6   8
BRANCH   7  23
HETATM   23  N9  UNL     1    -130.555  31.963 125.735  1.00  0.00    -0.350 N 
ATOM     24  H9  UNL     1    -130.839  32.922 125.536  1.00  0.00     0.166 HD
BRANCH  23  25
HETATM   25  C11 UNL     1    -131.343  30.959 125.144  1.00  0.00     0.082 C 
BRANCH  25  26
HETATM   26  C12 UNL     1    -131.152  29.559 125.707  1.00  0.00     0.166 C 
BRANCH  26  27
HETATM   27  N10 UNL     1    -132.442  29.009 126.071  1.00  0.00    -0.360 N 
HETATM   28  C13 UNL     1    -132.567  28.329 127.324  1.00  0.00     0.182 C 
HETATM   29  N11 UNL     1    -133.147  28.969 128.282  1.00  0.00    -0.374 N 
HETATM   30  N12 UNL     1    -132.068  27.017 127.474  1.00  0.00    -0.064 NA
ATOM     31 2H11 UNL     1    -133.509  29.916 128.174  1.00  0.00     0.158 HD
ATOM     32 1H11 UNL     1    -133.237  28.484 129.175  1.00  0.00     0.158 HD
ATOM     33  H10 UNL     1    -133.243  29.105 125.448  1.00  0.00     0.162 HD
ENDBRANCH  26  27
ENDBRANCH  25  26
ENDBRANCH  23  25
ENDBRANCH   7  23
BRANCH   1  34
HETATM   34  C4  UNL     1    -127.828  32.618 124.802  1.00  0.00     0.107 A 
HETATM   35  C3  UNL     1    -127.605  33.942 124.492  1.00  0.00     0.091 A 
HETATM   36  C2  UNL     1    -127.265  34.373 123.232  1.00  0.00     0.146 A 
HETATM   37  N13 UNL     1    -127.145  33.466 122.249  1.00  0.00    -0.311 N 
HETATM   38  C15 UNL     1    -127.349  32.139 122.469  1.00  0.00     0.231 A 
ATOM     39  H13 UNL     1    -126.894  33.780 121.312  1.00  0.00     0.170 HD
HETATM   40  C14 UNL     1    -127.685  31.734 123.734  1.00  0.00     0.201 A 
HETATM   41  F2  UNL     1    -127.202  31.313 121.420  1.00  0.00    -0.183 F 
HETATM   42  F1  UNL     1    -127.883  30.412 123.934  1.00  0.00    -0.199 F 
BRANCH  36  43
HETATM   43  O1  UNL     1    -127.041  35.706 122.923  1.00  0.00    -0.341 OA
HETATM   44  C1  UNL     1    -126.905  36.720 123.865  1.00  0.00     0.211 C 
ENDBRANCH  36  43
ENDBRANCH   1  34
TORSDOF 9
ENDMDL
MODEL 5
REMARK VINA RESULT: -7.157214095      3.467      7.428
REMARK  9 active torsions:
REMARK  status: ('A' for Active; 'I' for Inactive)
REMARK    1  A    between atoms: O1_2  and  C2_3 
REMARK    2  A    between atoms: C4_5  and  N1_6 
REMARK    3  A    between atoms: C5_11  and  N4_12 
REMARK    4  A    between atoms: N4_12  and  C6_14 
REMARK    5  A    between atoms: C8_19  and  N7_20 
REMARK    6  A    between atoms: C10_27  and  N9_28 
REMARK    7  A    between atoms: N9_28  and  C11_30 
REMARK    8  A    between atoms: C11_30  and  C12_31 
REMARK    9  A    between atoms: C12_31  and  N10_32 
REMARK       I    between atoms: N10_32  and  C13_34 
ROOT
HETATM    1  N1  UNL     1    -130.139  31.253 125.838  1.00  0.00    -0.218 N 
HETATM    2  N2  UNL     1    -130.229  32.485 126.286  1.00  0.00    -0.232 N 
ATOM      3  H2  UNL     1    -130.887  32.790 127.003  1.00  0.00     0.209 HD
HETATM    4  N3  UNL     1    -129.367  33.271 125.695  1.00  0.00    -0.267 N 
ATOM      5  H3  UNL     1    -129.250  34.268 125.877  1.00  0.00     0.190 HD
HETATM    6  C5  UNL     1    -128.644  32.530 124.788  1.00  0.00     0.169 A 
HETATM    7  C10 UNL     1    -129.138  31.263 124.885  1.00  0.00     0.174 A 
ENDROOT
BRANCH   6   8
HETATM    8  N4  UNL     1    -127.605  33.072 124.005  1.00  0.00    -0.331 N 
ATOM      9  H4  UNL     1    -126.636  32.930 124.289  1.00  0.00     0.168 HD
BRANCH   8  10
HETATM   10  C6  UNL     1    -127.891  33.819 122.812  1.00  0.00     0.145 A 
HETATM   11  C7  UNL     1    -127.954  35.184 122.806  1.00  0.00     0.164 A 
HETATM   12  N5  UNL     1    -127.730  35.883 124.007  1.00  0.00    -0.080 NA
HETATM   13  N6  UNL     1    -128.228  35.842 121.657  1.00  0.00    -0.177 N 
HETATM   14  C8  UNL     1    -128.440  35.171 120.515  1.00  0.00     0.680 A 
ATOM     15  H6  UNL     1    -128.275  36.861 121.659  1.00  0.00     0.185 HD
HETATM   16  N8  UNL     1    -128.382  33.831 120.506  1.00  0.00    -0.154 N 
HETATM   17  C9  UNL     1    -128.108  33.125 121.641  1.00  0.00     0.289 A 
ATOM     18  H8  UNL     1    -128.545  33.329 119.633  1.00  0.00     0.187 HD
HETATM   19  O2  UNL     1    -128.064  31.866 121.579  1.00  0.00    -0.265 OA
BRANCH  14  20
HETATM   20  N7  UNL     1    -128.697  35.845 119.448  1.00  0.00    -0.234 N 
ATOM     21  H72 UNL     1    -128.717  35.406 118.527  1.00  0.00     0.174 HD
ATOM     22  H71 UNL     1    -128.886  36.843 119.537  1.00  0.00     0.174 HD
ENDBRANCH  14  20
ENDBRANCH   8  10
ENDBRANCH   6   8
BRANCH   7  23
HETATM   23  N9  UNL     1    -128.766  30.095 124.231  1.00  0.00    -0.350 N 
ATOM     24  H9  UNL     1    -129.402  29.305 124.343  1.00  0.00     0.166 HD
BRANCH  23  25
HETATM   25  C11 UNL     1    -127.631  29.853 123.437  1.00  0.00     0.082 C 
BRANCH  25  26
HETATM   26  C12 UNL     1    -127.647  28.551 122.649  1.00  0.00     0.166 C 
BRANCH  26  27
HETATM   27  N10 UNL     1    -128.575  28.672 121.543  1.00  0.00    -0.360 N 
HETATM   28  C13 UNL     1    -129.354  27.529 121.175  1.00  0.00     0.182 C 
HETATM   29  N11 UNL     1    -130.592  27.524 121.539  1.00  0.00    -0.374 N 
HETATM   30  N12 UNL     1    -128.767  26.472 120.448  1.00  0.00    -0.064 NA
ATOM     31 2H11 UNL     1    -131.017  28.288 122.064  1.00  0.00     0.158 HD
ATOM     32 1H11 UNL     1    -131.147  26.710 121.276  1.00  0.00     0.158 HD
ATOM     33  H10 UNL     1    -128.670  29.552 121.038  1.00  0.00     0.162 HD
ENDBRANCH  26  27
ENDBRANCH  25  26
ENDBRANCH  23  25
ENDBRANCH   7  23
BRANCH   1  34
HETATM   34  C4  UNL     1    -130.920  30.143 126.255  1.00  0.00     0.107 A 
HETATM   35  C3  UNL     1    -130.535  29.253 127.233  1.00  0.00     0.091 A 
HETATM   36  C2  UNL     1    -131.304  28.183 127.623  1.00  0.00     0.146 A 
HETATM   37  N13 UNL     1    -132.491  27.988 127.025  1.00  0.00    -0.311 N 
HETATM   38  C15 UNL     1    -132.946  28.819 126.049  1.00  0.00     0.231 A 
ATOM     39  H13 UNL     1    -133.066  27.196 127.309  1.00  0.00     0.170 HD
HETATM   40  C14 UNL     1    -132.161  29.879 125.679  1.00  0.00     0.201 A 
HETATM   41  F2  UNL     1    -134.146  28.538 125.515  1.00  0.00    -0.183 F 
HETATM   42  F1  UNL     1    -132.631  30.694 124.707  1.00  0.00    -0.199 F 
BRANCH  36  43
HETATM   43  O1  UNL     1    -130.914  27.289 128.609  1.00  0.00    -0.341 OA
HETATM   44  C1  UNL     1    -131.520  27.180 129.856  1.00  0.00     0.211 C 
ENDBRANCH  36  43
ENDBRANCH   1  34
TORSDOF 9
ENDMDL
