MODEL 1
REMARK VINA RESULT: -6.126397225      0.000      0.000
REMARK  12 active torsions:
REMARK  status: ('A' for Active; 'I' for Inactive)
REMARK       I    between atoms: C1_4  and  N3_6 
REMARK    1  A    between atoms: N3_6  and  C2_8 
REMARK    2  A    between atoms: C2_8  and  C3_9 
REMARK    3  A    between atoms: N4_11  and  C4_13 
REMARK    4  A    between atoms: C4_13  and  C5_14 
REMARK    5  A    between atoms: C5_14  and  N5_15 
REMARK    6  A    between atoms: C7_17  and  C8_18 
REMARK    7  A    between atoms: C10_22  and  N7_23 
REMARK    8  A    between atoms: C11_28  and  N9_29 
REMARK    9  A    between atoms: C13_37  and  N12_38 
REMARK   10  A    between atoms: N12_38  and  C14_40 
REMARK   11  A    between atoms: C16_42  and  C17_43 
REMARK   12  A    between atoms: C17_43  and  N13_44 
ROOT
HETATM    1  C8  UNL     1    -127.463  32.763 124.369  1.00  0.00     0.107 A 
HETATM    2  N6  UNL     1    -127.631  34.103 124.048  1.00  0.00    -0.345 N 
ATOM      3  H6  UNL     1    -127.560  34.801 124.788  1.00  0.00     0.166 HD
HETATM    4  C9  UNL     1    -127.878  34.501 122.813  1.00  0.00     0.122 A 
HETATM    5  C10 UNL     1    -128.044  35.856 122.508  1.00  0.00     0.145 A 
HETATM    6  N8  UNL     1    -128.289  36.162 121.237  1.00  0.00    -0.175 N 
ATOM      7  H8  UNL     1    -128.414  37.144 120.994  1.00  0.00     0.186 HD
HETATM    8  C11 UNL     1    -128.383  35.251 120.252  1.00  0.00     0.679 A 
HETATM    9  N10 UNL     1    -128.219  33.959 120.572  1.00  0.00    -0.174 N 
ATOM     10  H10 UNL     1    -128.289  33.264 119.829  1.00  0.00     0.186 HD
HETATM   11  C12 UNL     1    -127.964  33.527 121.840  1.00  0.00     0.153 A 
HETATM   12  N11 UNL     1    -127.807  32.238 122.124  1.00  0.00    -0.325 N 
ATOM     13  H11 UNL     1    -127.879  31.549 121.375  1.00  0.00     0.169 HD
HETATM   14  C13 UNL     1    -127.548  31.811 123.416  1.00  0.00     0.132 A 
ENDROOT
BRANCH   1  15
HETATM   15  C7  UNL     1    -127.203  32.518 125.766  1.00  0.00     0.097 A 
HETATM   16  C6  UNL     1    -127.957  32.469 126.875  1.00  0.00     0.145 A 
HETATM   17  N5  UNL     1    -127.193  32.194 127.977  1.00  0.00    -0.285 N 
HETATM   18  N15 UNL     1    -125.962  32.073 127.545  1.00  0.00    -0.240 N 
HETATM   19  N14 UNL     1    -125.924  32.258 126.246  1.00  0.00    -0.283 N 
ATOM     20  H15 UNL     1    -125.153  31.867 128.131  1.00  0.00     0.208 HD
ATOM     21  H14 UNL     1    -125.081  32.216 125.673  1.00  0.00     0.188 HD
BRANCH  17  22
HETATM   22  C5  UNL     1    -127.703  32.073 129.320  1.00  0.00     0.169 C 
BRANCH  22  23
HETATM   23  C4  UNL     1    -129.019  31.281 129.315  1.00  0.00     0.143 C 
BRANCH  23  24
HETATM   24  N4  UNL     1    -130.140  32.089 129.544  1.00  0.00    -0.367 N 
HETATM   25  C3  UNL     1    -131.200  32.119 128.863  1.00  0.00     0.178 C 
HETATM   26  F1  UNL     1    -132.240  32.963 129.195  1.00  0.00    -0.190 F 
ATOM     27  H4  UNL     1    -130.094  32.719 130.344  1.00  0.00     0.161 HD
BRANCH  25  28
HETATM   28  C2  UNL     1    -131.392  31.257 127.678  1.00  0.00     0.211 C 
BRANCH  28  29
HETATM   29  N3  UNL     1    -132.388  30.219 127.931  1.00  0.00    -0.357 N 
HETATM   30  C1  UNL     1    -132.061  28.887 127.603  1.00  0.00     0.182 C 
HETATM   31  N1  UNL     1    -132.977  28.068 127.252  1.00  0.00    -0.374 N 
HETATM   32  N2  UNL     1    -130.721  28.462 127.663  1.00  0.00    -0.064 NA
ATOM     33  H12 UNL     1    -132.740  27.104 127.015  1.00  0.00     0.158 HD
ATOM     34  H11 UNL     1    -133.948  28.377 127.209  1.00  0.00     0.158 HD
ATOM     35  H3  UNL     1    -133.296  30.450 128.336  1.00  0.00     0.162 HD
ENDBRANCH  28  29
ENDBRANCH  25  28
ENDBRANCH  23  24
ENDBRANCH  22  23
ENDBRANCH  17  22
ENDBRANCH   1  15
BRANCH  14  36
HETATM   36  N12 UNL     1    -127.396  30.407 123.584  1.00  0.00    -0.369 N 
ATOM     37  H12 UNL     1    -127.264  30.005 124.511  1.00  0.00     0.161 HD
BRANCH  36  38
HETATM   38  C14 UNL     1    -127.436  29.544 122.384  1.00  0.00     0.089 A 
HETATM   39  C15 UNL     1    -126.857  28.171 122.574  1.00  0.00     0.033 A 
HETATM   40  C16 UNL     1    -128.316  28.306 122.459  1.00  0.00     0.036 A 
BRANCH  40  41
HETATM   41  C17 UNL     1    -128.939  27.787 121.188  1.00  0.00     0.236 C 
BRANCH  41  42
HETATM   42  N13 UNL     1    -130.184  27.075 121.469  1.00  0.00    -0.079 N 
ATOM     43 3H13 UNL     1    -130.453  27.159 122.449  1.00  0.00     0.274 HD
ATOM     44 2H13 UNL     1    -130.987  27.542 121.047  1.00  0.00     0.274 HD
ATOM     45 1H13 UNL     1    -130.121  26.099 121.178  1.00  0.00     0.274 HD
ENDBRANCH  41  42
ENDBRANCH  40  41
ENDBRANCH  36  38
ENDBRANCH  14  36
BRANCH   5  46
HETATM   46  N7  UNL     1    -127.956  36.743 123.447  1.00  0.00    -0.383 N 
ATOM     47  H72 UNL     1    -128.433  36.658 124.344  1.00  0.00     0.157 HD
ATOM     48  H71 UNL     1    -127.385  37.576 123.305  1.00  0.00     0.157 HD
ENDBRANCH   5  46
BRANCH   8  49
HETATM   49  N9  UNL     1    -128.627  35.615 119.015  1.00  0.00    -0.234 N 
ATOM     50  H92 UNL     1    -128.361  36.540 118.678  1.00  0.00     0.174 HD
ATOM     51  H91 UNL     1    -129.090  34.983 118.363  1.00  0.00     0.174 HD
ENDBRANCH   8  49
TORSDOF 12
ENDMDL
MODEL 2
REMARK VINA RESULT: -6.123539938      1.226      1.477
REMARK  12 active torsions:
REMARK  status: ('A' for Active; 'I' for Inactive)
REMARK       I    between atoms: C1_4  and  N3_6 
REMARK    1  A    between atoms: N3_6  and  C2_8 
REMARK    2  A    between atoms: C2_8  and  C3_9 
REMARK    3  A    between atoms: N4_11  and  C4_13 
REMARK    4  A    between atoms: C4_13  and  C5_14 
REMARK    5  A    between atoms: C5_14  and  N5_15 
REMARK    6  A    between atoms: C7_17  and  C8_18 
REMARK    7  A    between atoms: C10_22  and  N7_23 
REMARK    8  A    between atoms: C11_28  and  N9_29 
REMARK    9  A    between atoms: C13_37  and  N12_38 
REMARK   10  A    between atoms: N12_38  and  C14_40 
REMARK   11  A    between atoms: C16_42  and  C17_43 
REMARK   12  A    between atoms: C17_43  and  N13_44 
ROOT
HETATM    1  C8  UNL     1    -127.574  32.713 124.086  1.00  0.00     0.107 A 
HETATM    2  N6  UNL     1    -127.850  34.029 123.741  1.00  0.00    -0.345 N 
ATOM      3  H6  UNL     1    -127.914  34.730 124.479  1.00  0.00     0.166 HD
HETATM    4  C9  UNL     1    -128.031  34.401 122.487  1.00  0.00     0.122 A 
HETATM    5  C10 UNL     1    -128.308  35.732 122.159  1.00  0.00     0.145 A 
HETATM    6  N8  UNL     1    -128.474  36.012 120.869  1.00  0.00    -0.175 N 
ATOM      7  H8  UNL     1    -128.677  36.977 120.609  1.00  0.00     0.186 HD
HETATM    8  C11 UNL     1    -128.391  35.097 119.887  1.00  0.00     0.679 A 
HETATM    9  N10 UNL     1    -128.124  33.828 120.230  1.00  0.00    -0.174 N 
ATOM     10  H10 UNL     1    -128.059  33.130 119.489  1.00  0.00     0.186 HD
HETATM   11  C12 UNL     1    -127.935  33.424 121.518  1.00  0.00     0.153 A 
HETATM   12  N11 UNL     1    -127.672  32.157 121.824  1.00  0.00    -0.325 N 
ATOM     13  H11 UNL     1    -127.609  31.465 121.078  1.00  0.00     0.169 HD
HETATM   14  C13 UNL     1    -127.481  31.758 123.137  1.00  0.00     0.132 A 
ENDROOT
BRANCH   1  15
HETATM   15  C7  UNL     1    -127.410  32.495 125.503  1.00  0.00     0.097 A 
HETATM   16  C6  UNL     1    -128.247  32.315 126.536  1.00  0.00     0.145 A 
HETATM   17  N5  UNL     1    -127.555  32.149 127.705  1.00  0.00    -0.285 N 
HETATM   18  N15 UNL     1    -126.286  32.227 127.391  1.00  0.00    -0.240 N 
HETATM   19  N14 UNL     1    -126.157  32.431 126.100  1.00  0.00    -0.283 N 
ATOM     20  H15 UNL     1    -125.513  32.142 128.051  1.00  0.00     0.208 HD
ATOM     21  H14 UNL     1    -125.268  32.528 125.609  1.00  0.00     0.188 HD
BRANCH  17  22
HETATM   22  C5  UNL     1    -128.163  31.935 128.995  1.00  0.00     0.169 C 
BRANCH  22  23
HETATM   23  C4  UNL     1    -129.686  31.807 128.845  1.00  0.00     0.143 C 
BRANCH  23  24
HETATM   24  N4  UNL     1    -130.108  30.478 128.701  1.00  0.00    -0.367 N 
HETATM   25  C3  UNL     1    -130.895  30.028 127.827  1.00  0.00     0.178 C 
HETATM   26  F1  UNL     1    -131.233  28.690 127.789  1.00  0.00    -0.190 F 
ATOM     27  H4  UNL     1    -129.739  29.806 129.373  1.00  0.00     0.161 HD
BRANCH  25  28
HETATM   28  C2  UNL     1    -131.500  30.898 126.796  1.00  0.00     0.211 C 
BRANCH  28  29
HETATM   29  N3  UNL     1    -132.946  30.702 126.717  1.00  0.00    -0.357 N 
HETATM   30  C1  UNL     1    -133.709  30.896 127.887  1.00  0.00     0.182 C 
HETATM   31  N1  UNL     1    -134.787  30.233 128.067  1.00  0.00    -0.374 N 
HETATM   32  N2  UNL     1    -133.281  31.820 128.857  1.00  0.00    -0.064 NA
ATOM     33  H12 UNL     1    -135.340  30.373 128.913  1.00  0.00     0.158 HD
ATOM     34  H11 UNL     1    -135.097  29.563 127.364  1.00  0.00     0.158 HD
ATOM     35  H3  UNL     1    -133.391  30.434 125.840  1.00  0.00     0.162 HD
ENDBRANCH  28  29
ENDBRANCH  25  28
ENDBRANCH  23  24
ENDBRANCH  22  23
ENDBRANCH  17  22
ENDBRANCH   1  15
BRANCH  14  36
HETATM   36  N12 UNL     1    -127.202  30.376 123.328  1.00  0.00    -0.369 N 
ATOM     37  H12 UNL     1    -126.919  30.024 124.242  1.00  0.00     0.161 HD
BRANCH  36  38
HETATM   38  C14 UNL     1    -127.332  29.464 122.173  1.00  0.00     0.089 A 
HETATM   39  C15 UNL     1    -126.809  28.075 122.403  1.00  0.00     0.033 A 
HETATM   40  C16 UNL     1    -128.263  28.272 122.342  1.00  0.00     0.036 A 
BRANCH  40  41
HETATM   41  C17 UNL     1    -128.964  27.726 121.124  1.00  0.00     0.236 C 
BRANCH  41  42
HETATM   42  N13 UNL     1    -130.245  27.123 121.484  1.00  0.00    -0.079 N 
ATOM     43 3H13 UNL     1    -130.213  26.694 122.408  1.00  0.00     0.274 HD
ATOM     44 2H13 UNL     1    -130.956  27.832 121.666  1.00  0.00     0.274 HD
ATOM     45 1H13 UNL     1    -130.549  26.459 120.771  1.00  0.00     0.274 HD
ENDBRANCH  41  42
ENDBRANCH  40  41
ENDBRANCH  36  38
ENDBRANCH  14  36
BRANCH   5  46
HETATM   46  N7  UNL     1    -128.390  36.622 123.095  1.00  0.00    -0.383 N 
ATOM     47  H72 UNL     1    -129.264  37.074 123.363  1.00  0.00     0.157 HD
ATOM     48  H71 UNL     1    -127.551  36.901 123.604  1.00  0.00     0.157 HD
ENDBRANCH   5  46
BRANCH   8  49
HETATM   49  N9  UNL     1    -128.565  35.436 118.631  1.00  0.00    -0.234 N 
ATOM     50  H92 UNL     1    -127.902  35.146 117.912  1.00  0.00     0.174 HD
ATOM     51  H91 UNL     1    -129.367  35.997 118.345  1.00  0.00     0.174 HD
ENDBRANCH   8  49
TORSDOF 12
ENDMDL
MODEL 3
REMARK VINA RESULT: -6.054363313      1.484      1.786
REMARK  12 active torsions:
REMARK  status: ('A' for Active; 'I' for Inactive)
REMARK       I    between atoms: C1_4  and  N3_6 
REMARK    1  A    between atoms: N3_6  and  C2_8 
REMARK    2  A    between atoms: C2_8  and  C3_9 
REMARK    3  A    between atoms: N4_11  and  C4_13 
REMARK    4  A    between atoms: C4_13  and  C5_14 
REMARK    5  A    between atoms: C5_14  and  N5_15 
REMARK    6  A    between atoms: C7_17  and  C8_18 
REMARK    7  A    between atoms: C10_22  and  N7_23 
REMARK    8  A    between atoms: C11_28  and  N9_29 
REMARK    9  A    between atoms: C13_37  and  N12_38 
REMARK   10  A    between atoms: N12_38  and  C14_40 
REMARK   11  A    between atoms: C16_42  and  C17_43 
REMARK   12  A    between atoms: C17_43  and  N13_44 
ROOT
HETATM    1  C8  UNL     1    -127.903  32.794 122.894  1.00  0.00     0.107 A 
HETATM    2  N6  UNL     1    -128.310  34.008 122.358  1.00  0.00    -0.345 N 
ATOM      3  H6  UNL     1    -128.580  34.762 122.991  1.00  0.00     0.166 HD
HETATM    4  C9  UNL     1    -128.357  34.219 121.056  1.00  0.00     0.122 A 
HETATM    5  C10 UNL     1    -128.769  35.450 120.534  1.00  0.00     0.145 A 
HETATM    6  N8  UNL     1    -128.783  35.568 119.209  1.00  0.00    -0.175 N 
ATOM      7  H8  UNL     1    -129.081  36.458 118.810  1.00  0.00     0.186 HD
HETATM    8  C11 UNL     1    -128.428  34.584 118.366  1.00  0.00     0.679 A 
HETATM    9  N10 UNL     1    -128.037  33.414 118.892  1.00  0.00    -0.174 N 
ATOM     10  H10 UNL     1    -127.766  32.664 118.256  1.00  0.00     0.186 HD
HETATM   11  C12 UNL     1    -127.982  33.176 120.233  1.00  0.00     0.153 A 
HETATM   12  N11 UNL     1    -127.589  32.004 120.723  1.00  0.00    -0.325 N 
ATOM     13  H11 UNL     1    -127.321  31.259 120.081  1.00  0.00     0.169 HD
HETATM   14  C13 UNL     1    -127.538  31.775 122.088  1.00  0.00     0.132 A 
ENDROOT
BRANCH   1  15
HETATM   15  C7  UNL     1    -127.918  32.748 124.335  1.00  0.00     0.097 A 
HETATM   16  C6  UNL     1    -128.826  32.406 125.262  1.00  0.00     0.145 A 
HETATM   17  N5  UNL     1    -128.318  32.550 126.524  1.00  0.00    -0.285 N 
HETATM   18  N15 UNL     1    -127.091  32.984 126.375  1.00  0.00    -0.240 N 
HETATM   19  N14 UNL     1    -126.815  33.114 125.098  1.00  0.00    -0.283 N 
ATOM     20  H15 UNL     1    -126.445  33.189 127.138  1.00  0.00     0.208 HD
ATOM     21  H14 UNL     1    -125.924  33.436 124.722  1.00  0.00     0.188 HD
BRANCH  17  22
HETATM   22  C5  UNL     1    -129.042  32.265 127.739  1.00  0.00     0.169 C 
BRANCH  22  23
HETATM   23  C4  UNL     1    -130.053  31.135 127.496  1.00  0.00     0.143 C 
BRANCH  23  24
HETATM   24  N4  UNL     1    -131.380  31.544 127.683  1.00  0.00    -0.367 N 
HETATM   25  C3  UNL     1    -132.414  30.836 127.552  1.00  0.00     0.178 C 
HETATM   26  F1  UNL     1    -133.672  31.359 127.768  1.00  0.00    -0.190 F 
ATOM     27  H4  UNL     1    -131.524  32.517 127.953  1.00  0.00     0.161 HD
BRANCH  25  28
HETATM   28  C2  UNL     1    -132.341  29.412 127.163  1.00  0.00     0.211 C 
BRANCH  28  29
HETATM   29  N3  UNL     1    -132.970  28.555 128.165  1.00  0.00    -0.357 N 
HETATM   30  C1  UNL     1    -132.303  27.371 128.542  1.00  0.00     0.182 C 
HETATM   31  N1  UNL     1    -132.972  26.349 128.919  1.00  0.00    -0.374 N 
HETATM   32  N2  UNL     1    -130.898  27.317 128.503  1.00  0.00    -0.064 NA
ATOM     33  H12 UNL     1    -132.490  25.492 129.192  1.00  0.00     0.158 HD
ATOM     34  H11 UNL     1    -133.990  26.388 128.947  1.00  0.00     0.158 HD
ATOM     35  H3  UNL     1    -133.867  28.805 128.581  1.00  0.00     0.162 HD
ENDBRANCH  28  29
ENDBRANCH  25  28
ENDBRANCH  23  24
ENDBRANCH  22  23
ENDBRANCH  17  22
ENDBRANCH   1  15
BRANCH  14  36
HETATM   36  N12 UNL     1    -127.096  30.481 122.480  1.00  0.00    -0.369 N 
ATOM     37  H12 UNL     1    -126.609  30.343 123.365  1.00  0.00     0.161 HD
BRANCH  36  38
HETATM   38  C14 UNL     1    -127.360  29.341 121.577  1.00  0.00     0.089 A 
HETATM   39  C15 UNL     1    -126.957  27.999 122.119  1.00  0.00     0.033 A 
HETATM   40  C16 UNL     1    -128.388  28.321 122.044  1.00  0.00     0.036 A 
BRANCH  40  41
HETATM   41  C17 UNL     1    -129.189  27.578 121.004  1.00  0.00     0.236 C 
BRANCH  41  42
HETATM   42  N13 UNL     1    -130.308  26.866 121.616  1.00  0.00    -0.079 N 
ATOM     43 3H13 UNL     1    -130.013  26.333 122.434  1.00  0.00     0.274 HD
ATOM     44 2H13 UNL     1    -130.956  27.507 122.075  1.00  0.00     0.274 HD
ATOM     45 1H13 UNL     1    -130.784  26.276 120.933  1.00  0.00     0.274 HD
ENDBRANCH  41  42
ENDBRANCH  40  41
ENDBRANCH  36  38
ENDBRANCH  14  36
BRANCH   5  46
HETATM   46  N7  UNL     1    -129.113  36.405 121.337  1.00  0.00    -0.383 N 
ATOM     47  H72 UNL     1    -129.553  36.245 122.242  1.00  0.00     0.157 HD
ATOM     48  H71 UNL     1    -128.945  37.376 121.070  1.00  0.00     0.157 HD
ENDBRANCH   5  46
BRANCH   8  49
HETATM   49  N9  UNL     1    -128.464  34.762 117.066  1.00  0.00    -0.234 N 
ATOM     50  H92 UNL     1    -129.352  34.801 116.565  1.00  0.00     0.174 HD
ATOM     51  H91 UNL     1    -127.605  34.865 116.526  1.00  0.00     0.174 HD
ENDBRANCH   8  49
TORSDOF 12
ENDMDL
MODEL 4
REMARK VINA RESULT: -5.532830184      2.992      8.914
REMARK  12 active torsions:
REMARK  status: ('A' for Active; 'I' for Inactive)
REMARK       I    between atoms: C1_4  and  N3_6 
REMARK    1  A    between atoms: N3_6  and  C2_8 
REMARK    2  A    between atoms: C2_8  and  C3_9 
REMARK    3  A    between atoms: N4_11  and  C4_13 
REMARK    4  A    between atoms: C4_13  and  C5_14 
REMARK    5  A    between atoms: C5_14  and  N5_15 
REMARK    6  A    between atoms: C7_17  and  C8_18 
REMARK    7  A    between atoms: C10_22  and  N7_23 
REMARK    8  A    between atoms: C11_28  and  N9_29 
REMARK    9  A    between atoms: C13_37  and  N12_38 
REMARK   10  A    between atoms: N12_38  and  C14_40 
REMARK   11  A    between atoms: C16_42  and  C17_43 
REMARK   12  A    between atoms: C17_43  and  N13_44 
ROOT
HETATM    1  C8  UNL     1    -131.353  30.712 127.501  1.00  0.00     0.107 A 
HETATM    2  N6  UNL     1    -131.128  29.346 127.396  1.00  0.00    -0.345 N 
ATOM      3  H6  UNL     1    -130.371  29.014 126.799  1.00  0.00     0.166 HD
HETATM    4  C9  UNL     1    -131.864  28.463 128.046  1.00  0.00     0.122 A 
HETATM    5  C10 UNL     1    -131.623  27.090 127.928  1.00  0.00     0.145 A 
HETATM    6  N8  UNL     1    -132.417  26.278 128.621  1.00  0.00    -0.175 N 
ATOM      7  H8  UNL     1    -132.257  25.274 128.548  1.00  0.00     0.186 HD
HETATM    8  C11 UNL     1    -133.417  26.703 129.412  1.00  0.00     0.679 A 
HETATM    9  N10 UNL     1    -133.626  28.024 129.508  1.00  0.00    -0.174 N 
ATOM     10  H10 UNL     1    -134.383  28.352 130.107  1.00  0.00     0.186 HD
HETATM   11  C12 UNL     1    -132.878  28.951 128.845  1.00  0.00     0.153 A 
HETATM   12  N11 UNL     1    -133.112  30.255 128.961  1.00  0.00    -0.325 N 
ATOM     13  H11 UNL     1    -133.871  30.575 129.562  1.00  0.00     0.169 HD
HETATM   14  C13 UNL     1    -132.345  31.188 128.283  1.00  0.00     0.132 A 
ENDROOT
BRANCH   1  15
HETATM   15  C7  UNL     1    -130.451  31.521 126.718  1.00  0.00     0.097 A 
HETATM   16  C6  UNL     1    -129.152  31.843 126.803  1.00  0.00     0.145 A 
HETATM   17  N5  UNL     1    -128.782  32.669 125.776  1.00  0.00    -0.285 N 
HETATM   18  N15 UNL     1    -129.859  32.857 125.055  1.00  0.00    -0.240 N 
HETATM   19  N14 UNL     1    -130.867  32.197 125.576  1.00  0.00    -0.283 N 
ATOM     20  H15 UNL     1    -129.908  33.430 124.213  1.00  0.00     0.208 HD
ATOM     21  H14 UNL     1    -131.814  32.182 125.200  1.00  0.00     0.188 HD
BRANCH  17  22
HETATM   22  C5  UNL     1    -127.453  33.195 125.583  1.00  0.00     0.169 C 
BRANCH  22  23
HETATM   23  C4  UNL     1    -126.683  32.323 124.580  1.00  0.00     0.143 C 
BRANCH  23  24
HETATM   24  N4  UNL     1    -127.015  32.605 123.248  1.00  0.00    -0.367 N 
HETATM   25  C3  UNL     1    -127.265  31.769 122.340  1.00  0.00     0.178 C 
HETATM   26  F1  UNL     1    -127.584  32.177 121.060  1.00  0.00    -0.190 F 
ATOM     27  H4  UNL     1    -127.058  33.590 122.987  1.00  0.00     0.161 HD
BRANCH  25  28
HETATM   28  C2  UNL     1    -127.235  30.312 122.588  1.00  0.00     0.211 C 
BRANCH  28  29
HETATM   29  N3  UNL     1    -128.037  29.589 121.604  1.00  0.00    -0.357 N 
HETATM   30  C1  UNL     1    -128.786  28.478 122.043  1.00  0.00     0.182 C 
HETATM   31  N1  UNL     1    -129.020  27.505 121.247  1.00  0.00    -0.374 N 
HETATM   32  N2  UNL     1    -129.275  28.441 123.362  1.00  0.00    -0.064 NA
ATOM     33  H12 UNL     1    -129.562  26.701 121.565  1.00  0.00     0.158 HD
ATOM     34  H11 UNL     1    -128.665  27.533 120.292  1.00  0.00     0.158 HD
ATOM     35  H3  UNL     1    -128.056  29.880 120.627  1.00  0.00     0.162 HD
ENDBRANCH  28  29
ENDBRANCH  25  28
ENDBRANCH  23  24
ENDBRANCH  22  23
ENDBRANCH  17  22
ENDBRANCH   1  15
BRANCH  14  36
HETATM   36  N12 UNL     1    -132.695  32.549 128.497  1.00  0.00    -0.369 N 
ATOM     37  H12 UNL     1    -133.481  32.969 128.001  1.00  0.00     0.161 HD
BRANCH  36  38
HETATM   38  C14 UNL     1    -131.895  33.341 129.455  1.00  0.00     0.089 A 
HETATM   39  C15 UNL     1    -132.421  34.722 129.728  1.00  0.00     0.033 A 
HETATM   40  C16 UNL     1    -132.563  33.700 130.774  1.00  0.00     0.036 A 
BRANCH  40  41
HETATM   41  C17 UNL     1    -131.698  33.868 131.997  1.00  0.00     0.236 C 
BRANCH  41  42
HETATM   42  N13 UNL     1    -131.727  35.250 132.472  1.00  0.00    -0.079 N 
ATOM     43 3H13 UNL     1    -132.647  35.505 132.831  1.00  0.00     0.274 HD
ATOM     44 2H13 UNL     1    -131.188  35.363 133.331  1.00  0.00     0.274 HD
ATOM     45 1H13 UNL     1    -131.415  35.893 131.745  1.00  0.00     0.274 HD
ENDBRANCH  41  42
ENDBRANCH  40  41
ENDBRANCH  36  38
ENDBRANCH  14  36
BRANCH   5  46
HETATM   46  N7  UNL     1    -130.663  26.669 127.169  1.00  0.00    -0.383 N 
ATOM     47  H72 UNL     1    -129.677  26.833 127.371  1.00  0.00     0.157 HD
ATOM     48  H71 UNL     1    -130.880  26.143 126.323  1.00  0.00     0.157 HD
ENDBRANCH   5  46
BRANCH   8  49
HETATM   49  N9  UNL     1    -134.166  25.851 130.071  1.00  0.00    -0.234 N 
ATOM     50  H92 UNL     1    -135.174  25.985 130.146  1.00  0.00     0.174 HD
ATOM     51  H91 UNL     1    -133.757  25.034 130.525  1.00  0.00     0.174 HD
ENDBRANCH   8  49
TORSDOF 12
ENDMDL
MODEL 5
REMARK VINA RESULT: -5.495089968      1.367      2.498
REMARK  12 active torsions:
REMARK  status: ('A' for Active; 'I' for Inactive)
REMARK       I    between atoms: C1_4  and  N3_6 
REMARK    1  A    between atoms: N3_6  and  C2_8 
REMARK    2  A    between atoms: C2_8  and  C3_9 
REMARK    3  A    between atoms: N4_11  and  C4_13 
REMARK    4  A    between atoms: C4_13  and  C5_14 
REMARK    5  A    between atoms: C5_14  and  N5_15 
REMARK    6  A    between atoms: C7_17  and  C8_18 
REMARK    7  A    between atoms: C10_22  and  N7_23 
REMARK    8  A    between atoms: C11_28  and  N9_29 
REMARK    9  A    between atoms: C13_37  and  N12_38 
REMARK   10  A    between atoms: N12_38  and  C14_40 
REMARK   11  A    between atoms: C16_42  and  C17_43 
REMARK   12  A    between atoms: C17_43  and  N13_44 
ROOT
HETATM    1  C8  UNL     1    -127.443  32.712 124.438  1.00  0.00     0.107 A 
HETATM    2  N6  UNL     1    -127.616  34.059 124.151  1.00  0.00    -0.345 N 
ATOM      3  H6  UNL     1    -127.551  34.738 124.909  1.00  0.00     0.166 HD
HETATM    4  C9  UNL     1    -127.862  34.487 122.927  1.00  0.00     0.122 A 
HETATM    5  C10 UNL     1    -128.033  35.849 122.656  1.00  0.00     0.145 A 
HETATM    6  N8  UNL     1    -128.276  36.186 121.392  1.00  0.00    -0.175 N 
ATOM      7  H8  UNL     1    -128.405  37.174 121.175  1.00  0.00     0.186 HD
HETATM    8  C11 UNL     1    -128.363  35.300 120.385  1.00  0.00     0.679 A 
HETATM    9  N10 UNL     1    -128.194  34.002 120.672  1.00  0.00    -0.174 N 
ATOM     10  H10 UNL     1    -128.258  33.325 119.910  1.00  0.00     0.186 HD
HETATM   11  C12 UNL     1    -127.941  33.538 121.928  1.00  0.00     0.153 A 
HETATM   12  N11 UNL     1    -127.778  32.243 122.180  1.00  0.00    -0.325 N 
ATOM     13  H11 UNL     1    -127.844  31.574 121.413  1.00  0.00     0.169 HD
HETATM   14  C13 UNL     1    -127.521  31.784 123.461  1.00  0.00     0.132 A 
ENDROOT
BRANCH   1  15
HETATM   15  C7  UNL     1    -127.185  32.432 125.830  1.00  0.00     0.097 A 
HETATM   16  C6  UNL     1    -127.940  32.064 126.876  1.00  0.00     0.145 A 
HETATM   17  N5  UNL     1    -127.180  31.931 128.007  1.00  0.00    -0.285 N 
HETATM   18  N15 UNL     1    -125.951  32.219 127.655  1.00  0.00    -0.240 N 
HETATM   19  N14 UNL     1    -125.911  32.521 126.379  1.00  0.00    -0.283 N 
ATOM     20  H15 UNL     1    -125.146  32.211 128.281  1.00  0.00     0.208 HD
ATOM     21  H14 UNL     1    -125.070  32.782 125.865  1.00  0.00     0.188 HD
BRANCH  17  22
HETATM   22  C5  UNL     1    -127.691  31.546 129.299  1.00  0.00     0.169 C 
BRANCH  22  23
HETATM   23  C4  UNL     1    -129.087  32.149 129.514  1.00  0.00     0.143 C 
BRANCH  23  24
HETATM   24  N4  UNL     1    -130.103  31.400 128.905  1.00  0.00    -0.367 N 
HETATM   25  C3  UNL     1    -131.315  31.723 128.792  1.00  0.00     0.178 C 
HETATM   26  F1  UNL     1    -132.221  30.893 128.164  1.00  0.00    -0.190 F 
ATOM     27  H4  UNL     1    -129.831  30.498 128.512  1.00  0.00     0.161 HD
BRANCH  25  28
HETATM   28  C2  UNL     1    -131.835  33.001 129.321  1.00  0.00     0.211 C 
BRANCH  28  29
HETATM   29  N3  UNL     1    -131.359  33.248 130.680  1.00  0.00    -0.357 N 
HETATM   30  C1  UNL     1    -132.023  34.223 131.451  1.00  0.00     0.182 C 
HETATM   31  N1  UNL     1    -131.385  34.884 132.340  1.00  0.00    -0.374 N 
HETATM   32  N2  UNL     1    -133.393  34.467 131.242  1.00  0.00    -0.064 NA
ATOM     33  H12 UNL     1    -131.865  35.590 132.898  1.00  0.00     0.158 HD
ATOM     34  H11 UNL     1    -130.392  34.707 132.491  1.00  0.00     0.158 HD
ATOM     35  H3  UNL     1    -130.568  32.729 131.061  1.00  0.00     0.162 HD
ENDBRANCH  28  29
ENDBRANCH  25  28
ENDBRANCH  23  24
ENDBRANCH  22  23
ENDBRANCH  17  22
ENDBRANCH   1  15
BRANCH  14  36
HETATM   36  N12 UNL     1    -127.363  30.377 123.593  1.00  0.00    -0.369 N 
ATOM     37  H12 UNL     1    -127.205  29.954 124.508  1.00  0.00     0.161 HD
BRANCH  36  38
HETATM   38  C14 UNL     1    -127.433  29.542 122.376  1.00  0.00     0.089 A 
HETATM   39  C15 UNL     1    -126.864  28.159 122.525  1.00  0.00     0.033 A 
HETATM   40  C16 UNL     1    -128.323  28.310 122.440  1.00  0.00     0.036 A 
BRANCH  40  41
HETATM   41  C17 UNL     1    -128.974  27.824 121.170  1.00  0.00     0.236 C 
BRANCH  41  42
HETATM   42  N13 UNL     1    -130.183  27.056 121.462  1.00  0.00    -0.079 N 
ATOM     43 3H13 UNL     1    -130.550  26.601 120.627  1.00  0.00     0.274 HD
ATOM     44 2H13 UNL     1    -129.975  26.224 122.014  1.00  0.00     0.274 HD
ATOM     45 1H13 UNL     1    -130.887  27.641 121.913  1.00  0.00     0.274 HD
ENDBRANCH  41  42
ENDBRANCH  40  41
ENDBRANCH  36  38
ENDBRANCH  14  36
BRANCH   5  46
HETATM   46  N7  UNL     1    -127.952  36.711 123.618  1.00  0.00    -0.383 N 
ATOM     47  H72 UNL     1    -127.097  37.218 123.845  1.00  0.00     0.157 HD
ATOM     48  H71 UNL     1    -128.772  36.911 124.191  1.00  0.00     0.157 HD
ENDBRANCH   5  46
BRANCH   8  49
HETATM   49  N9  UNL     1    -128.606  35.695 119.157  1.00  0.00    -0.234 N 
ATOM     50  H92 UNL     1    -128.202  36.559 118.793  1.00  0.00     0.174 HD
ATOM     51  H91 UNL     1    -129.204  35.149 118.537  1.00  0.00     0.174 HD
ENDBRANCH   8  49
TORSDOF 12
ENDMDL
