MODEL 1
REMARK VINA RESULT: -7.709008431      0.000      0.000
REMARK  14 active torsions:
REMARK  status: ('A' for Active; 'I' for Inactive)
REMARK    1  A    between atoms: C2_7  and  C3_8 
REMARK    2  A    between atoms: C3_8  and  N4_9 
REMARK    3  A    between atoms: C3_8  and  C11_27 
REMARK    4  A    between atoms: N4_9  and  C4_11 
REMARK    5  A    between atoms: C4_11  and  O1_12 
REMARK    6  A    between atoms: C4_11  and  C5_14 
REMARK    7  A    between atoms: C9_23  and  C10_24 
REMARK    8  A    between atoms: C11_27  and  O5_28 
REMARK    9  A    between atoms: C11_27  and  C12_30 
REMARK   10  A    between atoms: C12_30  and  O6_31 
REMARK   11  A    between atoms: C12_30  and  C13_33 
REMARK   12  A    between atoms: C13_33  and  C14_34 
REMARK   13  A    between atoms: C14_34  and  C15_35 
REMARK   14  A    between atoms: C15_35  and  N6_36 
ROOT
HETATM    1  C3  UNL     1    -129.918  31.585 127.420  1.00  0.00     0.086 C 
ENDROOT
BRANCH   1   2
HETATM    2  C2  UNL     1    -130.328  32.082 128.745  1.00  0.00     0.162 A 
HETATM    3  N3  UNL     1    -129.730  31.945 129.931  1.00  0.00    -0.267 N 
HETATM    4  N2  UNL     1    -130.425  32.561 130.843  1.00  0.00    -0.225 N 
ATOM      5  H3  UNL     1    -128.862  31.435 130.097  1.00  0.00     0.190 HD
HETATM    6  N1  UNL     1    -131.479  33.107 130.279  1.00  0.00    -0.223 N 
ATOM      7  H2  UNL     1    -130.190  32.612 131.834  1.00  0.00     0.210 HD
HETATM    8  C1  UNL     1    -132.510  33.885 130.957  1.00  0.00     0.202 C 
HETATM    9  N7  UNL     1    -131.446  32.831 128.997  1.00  0.00    -0.265 N 
ATOM     10  H7  UNL     1    -132.136  33.124 128.305  1.00  0.00     0.190 HD
ENDBRANCH   1   2
BRANCH   1  11
HETATM   11  N4  UNL     1    -129.437  32.620 126.553  1.00  0.00    -0.357 N 
ATOM     12  H4  UNL     1    -130.086  33.287 126.137  1.00  0.00     0.162 HD
BRANCH  11  13
HETATM   13  C4  UNL     1    -128.055  32.706 126.283  1.00  0.00     0.270 C 
BRANCH  13  14
HETATM   14  O1  UNL     1    -127.366  31.658 126.873  1.00  0.00    -0.371 OA
ATOM     15  H1  UNL     1    -127.892  30.867 126.883  1.00  0.00     0.212 HD
ENDBRANCH  13  14
BRANCH  13  16
HETATM   16  C5  UNL     1    -127.833  32.639 124.810  1.00  0.00     0.079 A 
HETATM   17  N5  UNL     1    -127.721  31.398 124.251  1.00  0.00    -0.321 N 
HETATM   18  C6  UNL     1    -127.625  31.181 122.934  1.00  0.00     0.269 A 
ATOM     19  H5  UNL     1    -127.709  30.590 124.873  1.00  0.00     0.169 HD
HETATM   20  O2  UNL     1    -127.524  30.018 122.452  1.00  0.00    -0.266 OA
HETATM   21  C7  UNL     1    -127.634  32.224 122.060  1.00  0.00     0.124 A 
HETATM   22 CL1  UNL     1    -127.514  32.002 120.325  1.00  0.00    -0.076 Cl
HETATM   23  C8  UNL     1    -127.740  33.492 122.562  1.00  0.00     0.080 A 
HETATM   24 CL2  UNL     1    -127.759  34.894 121.511  1.00  0.00    -0.081 Cl
HETATM   25  C9  UNL     1    -127.839  33.704 123.964  1.00  0.00     0.091 A 
BRANCH  25  26
HETATM   26  C10 UNL     1    -127.821  35.088 124.443  1.00  0.00     0.213 C 
HETATM   27  O3  UNL     1    -126.559  35.683 124.457  1.00  0.00    -0.644 OA
HETATM   28  O4  UNL     1    -128.877  35.900 124.183  1.00  0.00    -0.644 OA
ENDBRANCH  25  26
ENDBRANCH  13  16
ENDBRANCH  11  13
ENDBRANCH   1  11
BRANCH   1  29
HETATM   29  C11 UNL     1    -130.824  30.578 126.846  1.00  0.00     0.200 C 
BRANCH  29  30
HETATM   30  O5  UNL     1    -131.860  31.108 126.079  1.00  0.00    -0.387 OA
ATOM     31  H5  UNL     1    -132.649  30.577 126.066  1.00  0.00     0.210 HD
ENDBRANCH  29  30
BRANCH  29  32
HETATM   32  C12 UNL     1    -131.342  29.617 127.872  1.00  0.00     0.153 C 
BRANCH  32  33
HETATM   33  O6  UNL     1    -132.676  29.904 128.220  1.00  0.00    -0.393 OA
ATOM     34  H6  UNL     1    -132.724  30.599 128.866  1.00  0.00     0.210 HD
ENDBRANCH  32  33
BRANCH  32  35
HETATM   35  C13 UNL     1    -131.299  28.168 127.468  1.00  0.00     0.036 C 
BRANCH  35  36
HETATM   36  C14 UNL     1    -132.569  27.458 127.945  1.00  0.00     0.030 C 
BRANCH  36  37
HETATM   37  C15 UNL     1    -132.354  26.870 129.319  1.00  0.00     0.230 C 
BRANCH  37  38
HETATM   38  N6  UNL     1    -133.563  26.182 129.711  1.00  0.00    -0.079 N 
ATOM     39  H63 UNL     1    -134.043  26.641 130.484  1.00  0.00     0.274 HD
ATOM     40  H62 UNL     1    -134.305  26.267 129.017  1.00  0.00     0.274 HD
ATOM     41  H61 UNL     1    -133.325  25.211 129.915  1.00  0.00     0.274 HD
ENDBRANCH  37  38
ENDBRANCH  36  37
ENDBRANCH  35  36
ENDBRANCH  32  35
ENDBRANCH  29  32
ENDBRANCH   1  29
TORSDOF 14
ENDMDL
MODEL 2
REMARK VINA RESULT: -7.403948367      1.703      2.290
REMARK  14 active torsions:
REMARK  status: ('A' for Active; 'I' for Inactive)
REMARK    1  A    between atoms: C2_7  and  C3_8 
REMARK    2  A    between atoms: C3_8  and  N4_9 
REMARK    3  A    between atoms: C3_8  and  C11_27 
REMARK    4  A    between atoms: N4_9  and  C4_11 
REMARK    5  A    between atoms: C4_11  and  O1_12 
REMARK    6  A    between atoms: C4_11  and  C5_14 
REMARK    7  A    between atoms: C9_23  and  C10_24 
REMARK    8  A    between atoms: C11_27  and  O5_28 
REMARK    9  A    between atoms: C11_27  and  C12_30 
REMARK   10  A    between atoms: C12_30  and  O6_31 
REMARK   11  A    between atoms: C12_30  and  C13_33 
REMARK   12  A    between atoms: C13_33  and  C14_34 
REMARK   13  A    between atoms: C14_34  and  C15_35 
REMARK   14  A    between atoms: C15_35  and  N6_36 
ROOT
HETATM    1  C3  UNL     1    -130.757  30.562 126.502  1.00  0.00     0.086 C 
ENDROOT
BRANCH   1   2
HETATM    2  C2  UNL     1    -130.701  31.312 127.769  1.00  0.00     0.162 A 
HETATM    3  N3  UNL     1    -129.718  31.396 128.669  1.00  0.00    -0.267 N 
HETATM    4  N2  UNL     1    -130.080  32.188 129.636  1.00  0.00    -0.225 N 
ATOM      5  H3  UNL     1    -128.821  30.914 128.607  1.00  0.00     0.190 HD
HETATM    6  N1  UNL     1    -131.293  32.632 129.392  1.00  0.00    -0.223 N 
ATOM      7  H2  UNL     1    -129.515  32.424 130.451  1.00  0.00     0.210 HD
HETATM    8  C1  UNL     1    -132.059  33.543 130.234  1.00  0.00     0.202 C 
HETATM    9  N7  UNL     1    -131.698  32.113 128.257  1.00  0.00    -0.265 N 
ATOM     10  H7  UNL     1    -132.601  32.279 127.813  1.00  0.00     0.190 HD
ENDBRANCH   1   2
BRANCH   1  11
HETATM   11  N4  UNL     1    -130.224  31.292 125.390  1.00  0.00    -0.357 N 
ATOM     12  H4  UNL     1    -130.796  31.982 124.903  1.00  0.00     0.162 HD
BRANCH  11  13
HETATM   13  C4  UNL     1    -128.898  31.047 124.976  1.00  0.00     0.270 C 
BRANCH  13  14
HETATM   14  O1  UNL     1    -128.836  29.953 124.127  1.00  0.00    -0.371 OA
ATOM     15  H1  UNL     1    -128.078  30.007 123.556  1.00  0.00     0.212 HD
ENDBRANCH  13  14
BRANCH  13  16
HETATM   16  C5  UNL     1    -128.380  32.236 124.241  1.00  0.00     0.079 A 
HETATM   17  N5  UNL     1    -128.735  32.365 122.929  1.00  0.00    -0.321 N 
HETATM   18  C6  UNL     1    -128.433  33.429 122.176  1.00  0.00     0.269 A 
ATOM     19  H5  UNL     1    -129.262  31.605 122.498  1.00  0.00     0.169 HD
HETATM   20  O2  UNL     1    -128.780  33.514 120.965  1.00  0.00    -0.266 OA
HETATM   21  C7  UNL     1    -127.731  34.469 122.703  1.00  0.00     0.124 A 
HETATM   22 CL1  UNL     1    -127.308  35.891 121.767  1.00  0.00    -0.076 Cl
HETATM   23  C8  UNL     1    -127.344  34.396 124.013  1.00  0.00     0.080 A 
HETATM   24 CL2  UNL     1    -126.436  35.689 124.773  1.00  0.00    -0.081 Cl
HETATM   25  C9  UNL     1    -127.672  33.257 124.797  1.00  0.00     0.091 A 
BRANCH  25  26
HETATM   26  C10 UNL     1    -127.119  33.184 126.150  1.00  0.00     0.213 C 
HETATM   27  O3  UNL     1    -128.073  33.175 127.169  1.00  0.00    -0.644 OA
HETATM   28  O4  UNL     1    -125.981  32.478 126.372  1.00  0.00    -0.644 OA
ENDBRANCH  25  26
ENDBRANCH  13  16
ENDBRANCH  11  13
ENDBRANCH   1  11
BRANCH   1  29
HETATM   29  C11 UNL     1    -132.010  29.818 126.295  1.00  0.00     0.200 C 
BRANCH  29  30
HETATM   30  O5  UNL     1    -133.030  30.563 125.706  1.00  0.00    -0.387 OA
ATOM     31  H5  UNL     1    -133.862  30.108 125.644  1.00  0.00     0.210 HD
ENDBRANCH  29  30
BRANCH  29  32
HETATM   32  C12 UNL     1    -132.484  29.131 127.539  1.00  0.00     0.153 C 
BRANCH  32  33
HETATM   33  O6  UNL     1    -133.721  29.647 127.972  1.00  0.00    -0.393 OA
ATOM     34  H6  UNL     1    -134.117  29.090 128.632  1.00  0.00     0.210 HD
ENDBRANCH  32  33
BRANCH  32  35
HETATM   35  C13 UNL     1    -132.652  27.641 127.420  1.00  0.00     0.036 C 
BRANCH  35  36
HETATM   36  C14 UNL     1    -131.804  26.936 128.482  1.00  0.00     0.030 C 
BRANCH  36  37
HETATM   37  C15 UNL     1    -132.525  26.931 129.808  1.00  0.00     0.230 C 
BRANCH  37  38
HETATM   38  N6  UNL     1    -133.715  26.123 129.673  1.00  0.00    -0.079 N 
ATOM     39  H63 UNL     1    -134.562  26.621 129.944  1.00  0.00     0.274 HD
ATOM     40  H62 UNL     1    -133.963  25.949 128.699  1.00  0.00     0.274 HD
ATOM     41  H61 UNL     1    -133.578  25.262 130.203  1.00  0.00     0.274 HD
ENDBRANCH  37  38
ENDBRANCH  36  37
ENDBRANCH  35  36
ENDBRANCH  32  35
ENDBRANCH  29  32
ENDBRANCH   1  29
TORSDOF 14
ENDMDL
MODEL 3
REMARK VINA RESULT: -7.248547531      1.558      1.724
REMARK  14 active torsions:
REMARK  status: ('A' for Active; 'I' for Inactive)
REMARK    1  A    between atoms: C2_7  and  C3_8 
REMARK    2  A    between atoms: C3_8  and  N4_9 
REMARK    3  A    between atoms: C3_8  and  C11_27 
REMARK    4  A    between atoms: N4_9  and  C4_11 
REMARK    5  A    between atoms: C4_11  and  O1_12 
REMARK    6  A    between atoms: C4_11  and  C5_14 
REMARK    7  A    between atoms: C9_23  and  C10_24 
REMARK    8  A    between atoms: C11_27  and  O5_28 
REMARK    9  A    between atoms: C11_27  and  C12_30 
REMARK   10  A    between atoms: C12_30  and  O6_31 
REMARK   11  A    between atoms: C12_30  and  C13_33 
REMARK   12  A    between atoms: C13_33  and  C14_34 
REMARK   13  A    between atoms: C14_34  and  C15_35 
REMARK   14  A    between atoms: C15_35  and  N6_36 
ROOT
HETATM    1  C3  UNL     1    -128.994  31.969 126.663  1.00  0.00     0.086 C 
ENDROOT
BRANCH   1   2
HETATM    2  C2  UNL     1    -129.639  32.123 127.978  1.00  0.00     0.162 A 
HETATM    3  N3  UNL     1    -129.219  31.739 129.186  1.00  0.00    -0.267 N 
HETATM    4  N2  UNL     1    -130.093  32.092 130.083  1.00  0.00    -0.225 N 
ATOM      5  H3  UNL     1    -128.346  31.246 129.376  1.00  0.00     0.190 HD
HETATM    6  N1  UNL     1    -131.091  32.706 129.488  1.00  0.00    -0.223 N 
ATOM      7  H2  UNL     1    -130.016  31.920 131.085  1.00  0.00     0.210 HD
HETATM    8  C1  UNL     1    -132.273  33.255 130.141  1.00  0.00     0.202 C 
HETATM    9  N7  UNL     1    -130.841  32.739 128.201  1.00  0.00    -0.265 N 
ATOM     10  H7  UNL     1    -131.439  33.155 127.487  1.00  0.00     0.190 HD
ENDBRANCH   1   2
BRANCH   1  11
HETATM   11  N4  UNL     1    -128.142  33.069 126.320  1.00  0.00    -0.357 N 
ATOM     12  H4  UNL     1    -128.389  34.019 126.597  1.00  0.00     0.162 HD
BRANCH  11  13
HETATM   13  C4  UNL     1    -126.957  32.825 125.595  1.00  0.00     0.270 C 
BRANCH  13  14
HETATM   14  O1  UNL     1    -126.492  31.539 125.819  1.00  0.00    -0.371 OA
ATOM     15  H1  UNL     1    -126.613  31.286 126.727  1.00  0.00     0.212 HD
ENDBRANCH  13  14
BRANCH  13  16
HETATM   16  C5  UNL     1    -127.228  32.975 124.137  1.00  0.00     0.079 A 
HETATM   17  N5  UNL     1    -127.254  31.835 123.385  1.00  0.00    -0.321 N 
HETATM   18  C6  UNL     1    -127.587  31.805 122.090  1.00  0.00     0.269 A 
ATOM     19  H5  UNL     1    -127.006  30.956 123.838  1.00  0.00     0.169 HD
HETATM   20  O2  UNL     1    -127.602  30.731 121.426  1.00  0.00    -0.266 OA
HETATM   21  C7  UNL     1    -127.925  32.951 121.437  1.00  0.00     0.124 A 
HETATM   22 CL1  UNL     1    -128.373  32.974 119.741  1.00  0.00    -0.076 Cl
HETATM   23  C8  UNL     1    -127.913  34.126 122.138  1.00  0.00     0.080 A 
HETATM   24 CL2  UNL     1    -128.334  35.648 121.378  1.00  0.00    -0.081 Cl
HETATM   25  C9  UNL     1    -127.555  34.139 123.513  1.00  0.00     0.091 A 
BRANCH  25  26
HETATM   26  C10 UNL     1    -127.438  35.443 124.170  1.00  0.00     0.213 C 
HETATM   27  O3  UNL     1    -126.249  36.124 123.905  1.00  0.00    -0.644 OA
HETATM   28  O4  UNL     1    -128.548  36.201 124.356  1.00  0.00    -0.644 OA
ENDBRANCH  25  26
ENDBRANCH  13  16
ENDBRANCH  11  13
ENDBRANCH   1  11
BRANCH   1  29
HETATM   29  C11 UNL     1    -129.877  31.435 125.614  1.00  0.00     0.200 C 
BRANCH  29  30
HETATM   30  O5  UNL     1    -130.836  32.337 125.157  1.00  0.00    -0.387 OA
ATOM     31  H5  UNL     1    -130.670  33.241 125.398  1.00  0.00     0.210 HD
ENDBRANCH  29  30
BRANCH  29  32
HETATM   32  C12 UNL     1    -130.498  30.126 125.996  1.00  0.00     0.153 C 
BRANCH  32  33
HETATM   33  O6  UNL     1    -130.295  29.838 127.359  1.00  0.00    -0.393 OA
ATOM     34  H6  UNL     1    -130.534  28.942 127.564  1.00  0.00     0.210 HD
ENDBRANCH  32  33
BRANCH  32  35
HETATM   35  C13 UNL     1    -131.978  30.025 125.745  1.00  0.00     0.036 C 
BRANCH  35  36
HETATM   36  C14 UNL     1    -132.688  29.540 127.012  1.00  0.00     0.030 C 
BRANCH  36  37
HETATM   37  C15 UNL     1    -133.688  30.571 127.477  1.00  0.00     0.230 C 
BRANCH  37  38
HETATM   38  N6  UNL     1    -134.334  30.068 128.669  1.00  0.00    -0.079 N 
ATOM     39  H63 UNL     1    -134.585  29.083 128.593  1.00  0.00     0.274 HD
ATOM     40  H62 UNL     1    -133.694  29.988 129.458  1.00  0.00     0.274 HD
ATOM     41  H61 UNL     1    -135.136  30.665 128.872  1.00  0.00     0.274 HD
ENDBRANCH  37  38
ENDBRANCH  36  37
ENDBRANCH  35  36
ENDBRANCH  32  35
ENDBRANCH  29  32
ENDBRANCH   1  29
TORSDOF 14
ENDMDL
MODEL 4
REMARK VINA RESULT: -7.175694074      2.117      4.484
REMARK  14 active torsions:
REMARK  status: ('A' for Active; 'I' for Inactive)
REMARK    1  A    between atoms: C2_7  and  C3_8 
REMARK    2  A    between atoms: C3_8  and  N4_9 
REMARK    3  A    between atoms: C3_8  and  C11_27 
REMARK    4  A    between atoms: N4_9  and  C4_11 
REMARK    5  A    between atoms: C4_11  and  O1_12 
REMARK    6  A    between atoms: C4_11  and  C5_14 
REMARK    7  A    between atoms: C9_23  and  C10_24 
REMARK    8  A    between atoms: C11_27  and  O5_28 
REMARK    9  A    between atoms: C11_27  and  C12_30 
REMARK   10  A    between atoms: C12_30  and  O6_31 
REMARK   11  A    between atoms: C12_30  and  C13_33 
REMARK   12  A    between atoms: C13_33  and  C14_34 
REMARK   13  A    between atoms: C14_34  and  C15_35 
REMARK   14  A    between atoms: C15_35  and  N6_36 
ROOT
HETATM    1  C3  UNL     1    -129.278  31.917 127.164  1.00  0.00     0.086 C 
ENDROOT
BRANCH   1   2
HETATM    2  C2  UNL     1    -130.468  31.080 126.931  1.00  0.00     0.162 A 
HETATM    3  N3  UNL     1    -131.546  31.318 126.180  1.00  0.00    -0.267 N 
HETATM    4  N2  UNL     1    -132.353  30.298 126.240  1.00  0.00    -0.225 N 
ATOM      5  H3  UNL     1    -131.712  32.169 125.641  1.00  0.00     0.190 HD
HETATM    6  N1  UNL     1    -131.825  29.383 127.023  1.00  0.00    -0.223 N 
ATOM      7  H2  UNL     1    -133.248  30.221 125.759  1.00  0.00     0.210 HD
HETATM    8  C1  UNL     1    -132.415  28.091 127.352  1.00  0.00     0.202 C 
HETATM    9  N7  UNL     1    -130.672  29.834 127.459  1.00  0.00    -0.265 N 
ATOM     10  H7  UNL     1    -130.037  29.339 128.085  1.00  0.00     0.190 HD
ENDBRANCH   1   2
BRANCH   1  11
HETATM   11  N4  UNL     1    -128.154  31.537 126.360  1.00  0.00    -0.357 N 
ATOM     12  H4  UNL     1    -128.054  30.575 126.036  1.00  0.00     0.162 HD
BRANCH  11  13
HETATM   13  C4  UNL     1    -127.188  32.506 126.022  1.00  0.00     0.270 C 
BRANCH  13  14
HETATM   14  O1  UNL     1    -125.933  31.934 125.888  1.00  0.00    -0.371 OA
ATOM     15  H1  UNL     1    -125.694  31.846 124.973  1.00  0.00     0.212 HD
ENDBRANCH  13  14
BRANCH  13  16
HETATM   16  C5  UNL     1    -127.553  33.138 124.721  1.00  0.00     0.079 A 
HETATM   17  N5  UNL     1    -127.770  34.486 124.720  1.00  0.00    -0.321 N 
HETATM   18  C6  UNL     1    -128.001  35.202 123.614  1.00  0.00     0.269 A 
ATOM     19  H5  UNL     1    -127.757  34.975 125.615  1.00  0.00     0.169 HD
HETATM   20  O2  UNL     1    -128.197  36.449 123.651  1.00  0.00    -0.266 OA
HETATM   21  C7  UNL     1    -128.030  34.597 122.395  1.00  0.00     0.124 A 
HETATM   22 CL1  UNL     1    -128.325  35.484 120.910  1.00  0.00    -0.076 Cl
HETATM   23  C8  UNL     1    -127.823  33.247 122.333  1.00  0.00     0.080 A 
HETATM   24 CL2  UNL     1    -127.845  32.387 120.806  1.00  0.00    -0.081 Cl
HETATM   25  C9  UNL     1    -127.582  32.502 123.518  1.00  0.00     0.091 A 
BRANCH  25  26
HETATM   26  C10 UNL     1    -127.495  31.045 123.398  1.00  0.00     0.213 C 
HETATM   27  O3  UNL     1    -126.198  30.532 123.459  1.00  0.00    -0.644 OA
HETATM   28  O4  UNL     1    -128.483  30.271 123.912  1.00  0.00    -0.644 OA
ENDBRANCH  25  26
ENDBRANCH  13  16
ENDBRANCH  11  13
ENDBRANCH   1  11
BRANCH   1  29
HETATM   29  C11 UNL     1    -129.031  32.236 128.579  1.00  0.00     0.200 C 
BRANCH  29  30
HETATM   30  O5  UNL     1    -127.830  31.737 129.079  1.00  0.00    -0.387 OA
ATOM     31  H5  UNL     1    -127.691  31.906 130.004  1.00  0.00     0.210 HD
ENDBRANCH  29  30
BRANCH  29  32
HETATM   32  C12 UNL     1    -130.185  31.868 129.462  1.00  0.00     0.153 C 
BRANCH  32  33
HETATM   33  O6  UNL     1    -129.751  31.508 130.752  1.00  0.00    -0.393 OA
ATOM     34  H6  UNL     1    -130.062  32.122 131.407  1.00  0.00     0.210 HD
ENDBRANCH  32  33
BRANCH  32  35
HETATM   35  C13 UNL     1    -131.223  32.943 129.635  1.00  0.00     0.036 C 
BRANCH  35  36
HETATM   36  C14 UNL     1    -131.464  33.197 131.126  1.00  0.00     0.030 C 
BRANCH  36  37
HETATM   37  C15 UNL     1    -132.316  34.428 131.315  1.00  0.00     0.230 C 
BRANCH  37  38
HETATM   38  N6  UNL     1    -131.775  35.186 132.420  1.00  0.00    -0.079 N 
ATOM     39  H63 UNL     1    -132.034  34.799 133.327  1.00  0.00     0.274 HD
ATOM     40  H62 UNL     1    -130.765  35.083 132.510  1.00  0.00     0.274 HD
ATOM     41  H61 UNL     1    -132.063  36.159 132.311  1.00  0.00     0.274 HD
ENDBRANCH  37  38
ENDBRANCH  36  37
ENDBRANCH  35  36
ENDBRANCH  32  35
ENDBRANCH  29  32
ENDBRANCH   1  29
TORSDOF 14
ENDMDL
MODEL 5
REMARK VINA RESULT: -7.152623139      3.585      7.202
REMARK  14 active torsions:
REMARK  status: ('A' for Active; 'I' for Inactive)
REMARK    1  A    between atoms: C2_7  and  C3_8 
REMARK    2  A    between atoms: C3_8  and  N4_9 
REMARK    3  A    between atoms: C3_8  and  C11_27 
REMARK    4  A    between atoms: N4_9  and  C4_11 
REMARK    5  A    between atoms: C4_11  and  O1_12 
REMARK    6  A    between atoms: C4_11  and  C5_14 
REMARK    7  A    between atoms: C9_23  and  C10_24 
REMARK    8  A    between atoms: C11_27  and  O5_28 
REMARK    9  A    between atoms: C11_27  and  C12_30 
REMARK   10  A    between atoms: C12_30  and  O6_31 
REMARK   11  A    between atoms: C12_30  and  C13_33 
REMARK   12  A    between atoms: C13_33  and  C14_34 
REMARK   13  A    between atoms: C14_34  and  C15_35 
REMARK   14  A    between atoms: C15_35  and  N6_36 
ROOT
HETATM    1  C3  UNL     1    -128.607  32.507 124.213  1.00  0.00     0.086 C 
ENDROOT
BRANCH   1   2
HETATM    2  C2  UNL     1    -128.075  33.784 123.708  1.00  0.00     0.162 A 
HETATM    3  N3  UNL     1    -127.805  34.162 122.456  1.00  0.00    -0.267 N 
HETATM    4  N2  UNL     1    -127.367  35.388 122.455  1.00  0.00    -0.225 N 
ATOM      5  H3  UNL     1    -127.925  33.579 121.627  1.00  0.00     0.190 HD
HETATM    6  N1  UNL     1    -127.341  35.831 123.693  1.00  0.00    -0.223 N 
ATOM      7  H2  UNL     1    -127.088  35.918 121.630  1.00  0.00     0.210 HD
HETATM    8  C1  UNL     1    -126.911  37.157 124.120  1.00  0.00     0.202 C 
HETATM    9  N7  UNL     1    -127.769  34.873 124.479  1.00  0.00    -0.265 N 
ATOM     10  H7  UNL     1    -127.858  34.929 125.494  1.00  0.00     0.190 HD
ENDBRANCH   1   2
BRANCH   1  11
HETATM   11  N4  UNL     1    -129.395  32.653 125.401  1.00  0.00    -0.357 N 
ATOM     12  H4  UNL     1    -130.140  33.348 125.443  1.00  0.00     0.162 HD
BRANCH  11  13
HETATM   13  C4  UNL     1    -129.128  31.827 126.512  1.00  0.00     0.270 C 
BRANCH  13  14
HETATM   14  O1  UNL     1    -128.454  32.525 127.501  1.00  0.00    -0.371 OA
ATOM     15  H1  UNL     1    -127.922  31.940 128.029  1.00  0.00     0.212 HD
ENDBRANCH  13  14
BRANCH  13  16
HETATM   16  C5  UNL     1    -130.414  31.334 127.084  1.00  0.00     0.079 A 
HETATM   17  N5  UNL     1    -131.043  32.137 127.992  1.00  0.00    -0.321 N 
HETATM   18  C6  UNL     1    -132.249  31.875 128.507  1.00  0.00     0.269 A 
ATOM     19  H5  UNL     1    -130.565  32.985 128.294  1.00  0.00     0.169 HD
HETATM   20  O2  UNL     1    -132.802  32.642 129.344  1.00  0.00    -0.266 OA
HETATM   21  C7  UNL     1    -132.930  30.756 128.137  1.00  0.00     0.124 A 
HETATM   22 CL1  UNL     1    -134.515  30.361 128.776  1.00  0.00    -0.076 Cl
HETATM   23  C8  UNL     1    -132.348  29.910 127.233  1.00  0.00     0.080 A 
HETATM   24 CL2  UNL     1    -133.151  28.446 126.701  1.00  0.00    -0.081 Cl
HETATM   25  C9  UNL     1    -131.065  30.203 126.697  1.00  0.00     0.091 A 
BRANCH  25  26
HETATM   26  C10 UNL     1    -130.445  29.196 125.834  1.00  0.00     0.213 C 
HETATM   27  O3  UNL     1    -130.427  27.905 126.365  1.00  0.00    -0.644 OA
HETATM   28  O4  UNL     1    -130.568  29.301 124.487  1.00  0.00    -0.644 OA
ENDBRANCH  25  26
ENDBRANCH  13  16
ENDBRANCH  11  13
ENDBRANCH   1  11
BRANCH   1  29
HETATM   29  C11 UNL     1    -127.650  31.391 124.160  1.00  0.00     0.200 C 
BRANCH  29  30
HETATM   30  O5  UNL     1    -126.318  31.767 124.323  1.00  0.00    -0.387 OA
ATOM     31  H5  UNL     1    -125.785  31.672 123.542  1.00  0.00     0.210 HD
ENDBRANCH  29  30
BRANCH  29  32
HETATM   32  C12 UNL     1    -127.829  30.535 122.943  1.00  0.00     0.153 C 
BRANCH  32  33
HETATM   33  O6  UNL     1    -127.455  31.222 121.771  1.00  0.00    -0.393 OA
ATOM     34  H6  UNL     1    -128.167  31.248 121.142  1.00  0.00     0.210 HD
ENDBRANCH  32  33
BRANCH  32  35
HETATM   35  C13 UNL     1    -127.061  29.242 122.953  1.00  0.00     0.036 C 
BRANCH  35  36
HETATM   36  C14 UNL     1    -127.441  28.402 121.731  1.00  0.00     0.030 C 
BRANCH  36  37
HETATM   37  C15 UNL     1    -128.891  27.989 121.810  1.00  0.00     0.230 C 
BRANCH  37  38
HETATM   38  N6  UNL     1    -129.517  28.294 120.545  1.00  0.00    -0.079 N 
ATOM     39  H63 UNL     1    -129.224  29.195 120.168  1.00  0.00     0.274 HD
ATOM     40  H62 UNL     1    -129.174  27.708 119.785  1.00  0.00     0.274 HD
ATOM     41  H61 UNL     1    -130.529  28.229 120.665  1.00  0.00     0.274 HD
ENDBRANCH  37  38
ENDBRANCH  36  37
ENDBRANCH  35  36
ENDBRANCH  32  35
ENDBRANCH  29  32
ENDBRANCH   1  29
TORSDOF 14
ENDMDL
