MODEL 1
REMARK VINA RESULT: -9.535430228      0.000      0.000
REMARK  9 active torsions:
REMARK  status: ('A' for Active; 'I' for Inactive)
REMARK    1  A    between atoms: N1_1  and  C1_4 
REMARK    2  A    between atoms: C2_7  and  C3_8 
REMARK    3  A    between atoms: C3_8  and  C4_9 
REMARK    4  A    between atoms: C4_9  and  C5_11 
REMARK       I    between atoms: C5_11  and  N3_13 
REMARK    5  A    between atoms: N3_13  and  N4_15 
REMARK    6  A    between atoms: N4_15  and  N5_17 
REMARK    7  A    between atoms: N5_17  and  C6_19 
REMARK    8  A    between atoms: C7_21  and  N6_22 
REMARK    9  A    between atoms: C9_29  and  C10_30 
ROOT
HETATM    1  C5  UNL     1    -127.947  32.150 128.331  1.00  0.00     0.307 C 
HETATM    2  O2  UNL     1    -126.977  31.938 129.061  1.00  0.00    -0.263 OA
HETATM    3  N3  UNL     1    -127.844  32.594 126.992  1.00  0.00    -0.249 N 
ATOM      4  H3  UNL     1    -128.705  32.738 126.466  1.00  0.00     0.192 HD
ENDROOT
BRANCH   3   5
HETATM    5  N4  UNL     1    -126.657  32.840 126.364  1.00  0.00    -0.239 N 
ATOM      6  H4  UNL     1    -125.972  33.499 126.734  1.00  0.00     0.208 HD
BRANCH   5   7
HETATM    7  N5  UNL     1    -126.449  32.149 125.213  1.00  0.00    -0.278 N 
ATOM      8  H5  UNL     1    -126.056  31.208 125.214  1.00  0.00     0.189 HD
BRANCH   7   9
HETATM    9  C6  UNL     1    -126.817  32.824 123.986  1.00  0.00     0.114 A 
HETATM   10  S1  UNL     1    -126.808  34.513 123.796  1.00  0.00    -0.034 SA
HETATM   11  C7  UNL     1    -127.280  35.034 122.245  1.00  0.00     0.147 A 
HETATM   12  N7  UNL     1    -127.589  34.029 121.402  1.00  0.00    -0.303 N 
HETATM   13  C8  UNL     1    -127.555  32.737 121.675  1.00  0.00     0.265 A 
ATOM     14  H7  UNL     1    -127.879  34.292 120.460  1.00  0.00     0.171 HD
HETATM   15  O3  UNL     1    -127.894  31.960 120.708  1.00  0.00    -0.267 OA
HETATM   16  C9  UNL     1    -127.206  32.122 122.850  1.00  0.00     0.132 A 
BRANCH  11  17
HETATM   17  N6  UNL     1    -127.342  36.275 121.893  1.00  0.00    -0.380 N 
ATOM     18  H62 UNL     1    -128.043  36.915 122.267  1.00  0.00     0.158 HD
ATOM     19  H61 UNL     1    -126.706  36.707 121.224  1.00  0.00     0.158 HD
ENDBRANCH  11  17
BRANCH  16  20
HETATM   20  C10 UNL     1    -127.245  30.673 122.944  1.00  0.00     0.273 C 
HETATM   21  N8  UNL     1    -128.360  30.020 123.521  1.00  0.00    -0.057 NA
HETATM   22  O4  UNL     1    -126.300  29.996 122.517  1.00  0.00    -0.271 OA
ENDBRANCH  16  20
ENDBRANCH   7   9
ENDBRANCH   5   7
ENDBRANCH   3   5
BRANCH   1  23
HETATM   23  C4  UNL     1    -129.276  31.932 128.883  1.00  0.00     0.225 C 
HETATM   24  O1  UNL     1    -129.381  31.442 130.032  1.00  0.00    -0.287 OA
BRANCH  23  25
HETATM   25  C3  UNL     1    -130.471  32.282 128.098  1.00  0.00     0.166 C 
BRANCH  25  26
HETATM   26  C2  UNL     1    -131.056  31.002 127.578  1.00  0.00     0.107 A 
HETATM   27  N2  UNL     1    -131.729  30.985 126.411  1.00  0.00    -0.180 N 
HETATM   28  C1  UNL     1    -132.264  29.844 125.926  1.00  0.00     0.679 A 
ATOM     29  H2  UNL     1    -131.837  31.851 125.883  1.00  0.00     0.185 HD
HETATM   30  N10 UNL     1    -132.142  28.684 126.595  1.00  0.00    -0.166 N 
HETATM   31  C11 UNL     1    -131.472  28.698 127.758  1.00  0.00     0.191 A 
ATOM     32  H10 UNL     1    -132.546  27.821 126.230  1.00  0.00     0.186 HD
HETATM   33  N9  UNL     1    -130.933  29.846 128.249  1.00  0.00    -0.321 N 
HETATM   34  S2  UNL     1    -131.321  27.284 128.581  1.00  0.00    -0.040 SA
ATOM     35  H9  UNL     1    -130.430  29.828 129.137  1.00  0.00     0.169 HD
BRANCH  28  36
HETATM   36  N1  UNL     1    -132.887  29.915 124.799  1.00  0.00    -0.234 N 
ATOM     37  H12 UNL     1    -132.619  30.587 124.080  1.00  0.00     0.174 HD
ATOM     38  H11 UNL     1    -133.666  29.273 124.655  1.00  0.00     0.174 HD
ENDBRANCH  28  36
ENDBRANCH  25  26
ENDBRANCH  23  25
ENDBRANCH   1  23
TORSDOF 9
ENDMDL
MODEL 2
REMARK VINA RESULT: -9.245392075      1.630      2.628
REMARK  9 active torsions:
REMARK  status: ('A' for Active; 'I' for Inactive)
REMARK    1  A    between atoms: N1_1  and  C1_4 
REMARK    2  A    between atoms: C2_7  and  C3_8 
REMARK    3  A    between atoms: C3_8  and  C4_9 
REMARK    4  A    between atoms: C4_9  and  C5_11 
REMARK       I    between atoms: C5_11  and  N3_13 
REMARK    5  A    between atoms: N3_13  and  N4_15 
REMARK    6  A    between atoms: N4_15  and  N5_17 
REMARK    7  A    between atoms: N5_17  and  C6_19 
REMARK    8  A    between atoms: C7_21  and  N6_22 
REMARK    9  A    between atoms: C9_29  and  C10_30 
ROOT
HETATM    1  C5  UNL     1    -127.943  32.047 128.255  1.00  0.00     0.307 C 
HETATM    2  O2  UNL     1    -126.962  31.943 128.995  1.00  0.00    -0.263 OA
HETATM    3  N3  UNL     1    -127.859  32.298 126.865  1.00  0.00    -0.249 N 
ATOM      4  H3  UNL     1    -128.727  32.364 126.336  1.00  0.00     0.192 HD
ENDROOT
BRANCH   3   5
HETATM    5  N4  UNL     1    -126.682  32.458 126.194  1.00  0.00    -0.239 N 
ATOM      6  H4  UNL     1    -125.895  31.821 126.316  1.00  0.00     0.208 HD
BRANCH   5   7
HETATM    7  N5  UNL     1    -126.628  33.522 125.350  1.00  0.00    -0.278 N 
ATOM      8  H5  UNL     1    -126.410  34.461 125.682  1.00  0.00     0.189 HD
BRANCH   7   9
HETATM    9  C6  UNL     1    -126.898  33.247 123.954  1.00  0.00     0.114 A 
HETATM   10  S1  UNL     1    -126.784  31.702 123.256  1.00  0.00    -0.034 SA
HETATM   11  C7  UNL     1    -127.163  31.666 121.596  1.00  0.00     0.147 A 
HETATM   12  N7  UNL     1    -127.497  32.868 121.087  1.00  0.00    -0.303 N 
HETATM   13  C8  UNL     1    -127.549  34.013 121.745  1.00  0.00     0.265 A 
ATOM     14  H7  UNL     1    -127.732  32.898 120.095  1.00  0.00     0.171 HD
HETATM   15  O3  UNL     1    -127.894  35.035 121.047  1.00  0.00    -0.267 OA
HETATM   16  C9  UNL     1    -127.283  34.248 123.070  1.00  0.00     0.132 A 
BRANCH  11  17
HETATM   17  N6  UNL     1    -127.138  30.593 120.877  1.00  0.00    -0.380 N 
ATOM     18  H62 UNL     1    -127.656  29.753 121.131  1.00  0.00     0.158 HD
ATOM     19  H61 UNL     1    -126.606  30.504 120.012  1.00  0.00     0.158 HD
ENDBRANCH  11  17
BRANCH  16  20
HETATM   20  C10 UNL     1    -127.392  35.597 123.597  1.00  0.00     0.273 C 
HETATM   21  N8  UNL     1    -126.238  36.397 123.769  1.00  0.00    -0.057 NA
HETATM   22  O4  UNL     1    -128.501  36.059 123.901  1.00  0.00    -0.271 OA
ENDBRANCH  16  20
ENDBRANCH   7   9
ENDBRANCH   5   7
ENDBRANCH   3   5
BRANCH   1  23
HETATM   23  C4  UNL     1    -129.264  31.905 128.850  1.00  0.00     0.225 C 
HETATM   24  O1  UNL     1    -129.356  31.469 130.021  1.00  0.00    -0.287 OA
BRANCH  23  25
HETATM   25  C3  UNL     1    -130.466  32.265 128.081  1.00  0.00     0.166 C 
BRANCH  25  26
HETATM   26  C2  UNL     1    -131.068  30.992 127.565  1.00  0.00     0.107 A 
HETATM   27  N2  UNL     1    -131.756  30.983 126.406  1.00  0.00    -0.180 N 
HETATM   28  C1  UNL     1    -132.306  29.848 125.926  1.00  0.00     0.679 A 
ATOM     29  H2  UNL     1    -131.863  31.851 125.882  1.00  0.00     0.185 HD
HETATM   30  N10 UNL     1    -132.185  28.685 126.591  1.00  0.00    -0.166 N 
HETATM   31  C11 UNL     1    -131.500  28.691 127.745  1.00  0.00     0.191 A 
ATOM     32  H10 UNL     1    -132.600  27.826 126.229  1.00  0.00     0.186 HD
HETATM   33  N9  UNL     1    -130.945  29.833 128.232  1.00  0.00    -0.321 N 
HETATM   34  S2  UNL     1    -131.350  27.274 128.563  1.00  0.00    -0.040 SA
ATOM     35  H9  UNL     1    -130.431  29.809 129.113  1.00  0.00     0.169 HD
BRANCH  28  36
HETATM   36  N1  UNL     1    -132.943  29.926 124.808  1.00  0.00    -0.234 N 
ATOM     37  H12 UNL     1    -133.743  30.547 124.689  1.00  0.00     0.174 HD
ATOM     38  H11 UNL     1    -132.616  29.338 124.041  1.00  0.00     0.174 HD
ENDBRANCH  28  36
ENDBRANCH  25  26
ENDBRANCH  23  25
ENDBRANCH   1  23
TORSDOF 9
ENDMDL
MODEL 3
REMARK VINA RESULT: -8.609617729      1.088      1.612
REMARK  9 active torsions:
REMARK  status: ('A' for Active; 'I' for Inactive)
REMARK    1  A    between atoms: N1_1  and  C1_4 
REMARK    2  A    between atoms: C2_7  and  C3_8 
REMARK    3  A    between atoms: C3_8  and  C4_9 
REMARK    4  A    between atoms: C4_9  and  C5_11 
REMARK       I    between atoms: C5_11  and  N3_13 
REMARK    5  A    between atoms: N3_13  and  N4_15 
REMARK    6  A    between atoms: N4_15  and  N5_17 
REMARK    7  A    between atoms: N5_17  and  C6_19 
REMARK    8  A    between atoms: C7_21  and  N6_22 
REMARK    9  A    between atoms: C9_29  and  C10_30 
ROOT
HETATM    1  C5  UNL     1    -127.791  32.186 128.460  1.00  0.00     0.307 C 
HETATM    2  O2  UNL     1    -126.782  31.967 129.132  1.00  0.00    -0.263 OA
HETATM    3  N3  UNL     1    -127.763  32.625 127.115  1.00  0.00    -0.249 N 
ATOM      4  H3  UNL     1    -128.653  32.776 126.640  1.00  0.00     0.192 HD
ENDROOT
BRANCH   3   5
HETATM    5  N4  UNL     1    -126.614  32.859 126.418  1.00  0.00    -0.239 N 
ATOM      6  H4  UNL     1    -125.911  33.525 126.736  1.00  0.00     0.208 HD
BRANCH   5   7
HETATM    7  N5  UNL     1    -126.468  32.144 125.272  1.00  0.00    -0.278 N 
ATOM      8  H5  UNL     1    -126.133  31.180 125.277  1.00  0.00     0.189 HD
BRANCH   7   9
HETATM    9  C6  UNL     1    -126.815  32.826 124.043  1.00  0.00     0.114 A 
HETATM   10  S1  UNL     1    -126.778  34.516 123.857  1.00  0.00    -0.034 SA
HETATM   11  C7  UNL     1    -127.228  35.048 122.303  1.00  0.00     0.147 A 
HETATM   12  N7  UNL     1    -127.547  34.049 121.455  1.00  0.00    -0.303 N 
HETATM   13  C8  UNL     1    -127.535  32.756 121.726  1.00  0.00     0.265 A 
ATOM     14  H7  UNL     1    -127.824  34.318 120.511  1.00  0.00     0.171 HD
HETATM   15  O3  UNL     1    -127.878  31.986 120.755  1.00  0.00    -0.267 OA
HETATM   16  C9  UNL     1    -127.206  32.133 122.903  1.00  0.00     0.132 A 
BRANCH  11  17
HETATM   17  N6  UNL     1    -127.268  36.290 121.953  1.00  0.00    -0.380 N 
ATOM     18  H62 UNL     1    -127.337  37.047 122.633  1.00  0.00     0.158 HD
ATOM     19  H61 UNL     1    -127.233  36.608 120.985  1.00  0.00     0.158 HD
ENDBRANCH  11  17
BRANCH  16  20
HETATM   20  C10 UNL     1    -127.269  30.685 122.993  1.00  0.00     0.273 C 
HETATM   21  N8  UNL     1    -128.381  30.050 123.595  1.00  0.00    -0.057 NA
HETATM   22  O4  UNL     1    -126.347  29.992 122.541  1.00  0.00    -0.271 OA
ENDBRANCH  16  20
ENDBRANCH   7   9
ENDBRANCH   5   7
ENDBRANCH   3   5
BRANCH   1  23
HETATM   23  C4  UNL     1    -129.088  31.982 129.090  1.00  0.00     0.225 C 
HETATM   24  O1  UNL     1    -129.128  31.541 130.263  1.00  0.00    -0.287 OA
BRANCH  23  25
HETATM   25  C3  UNL     1    -130.325  32.286 128.354  1.00  0.00     0.166 C 
BRANCH  25  26
HETATM   26  C2  UNL     1    -130.803  31.008 127.730  1.00  0.00     0.107 A 
HETATM   27  N2  UNL     1    -130.572  29.826 128.335  1.00  0.00    -0.180 N 
HETATM   28  C1  UNL     1    -130.992  28.666 127.789  1.00  0.00     0.679 A 
ATOM     29  H2  UNL     1    -130.069  29.808 129.222  1.00  0.00     0.185 HD
HETATM   30  N10 UNL     1    -131.658  28.651 126.620  1.00  0.00    -0.166 N 
HETATM   31  C11 UNL     1    -131.889  29.827 126.016  1.00  0.00     0.191 A 
ATOM     32  H10 UNL     1    -131.976  27.775 126.206  1.00  0.00     0.186 HD
HETATM   33  N9  UNL     1    -131.466  30.998 126.563  1.00  0.00    -0.321 N 
HETATM   34  S2  UNL     1    -132.700  29.816 124.587  1.00  0.00    -0.040 SA
ATOM     35  H9  UNL     1    -131.655  31.877 126.081  1.00  0.00     0.169 HD
BRANCH  28  36
HETATM   36  N1  UNL     1    -130.735  27.581 128.436  1.00  0.00    -0.234 N 
ATOM     37  H12 UNL     1    -129.916  27.497 129.039  1.00  0.00     0.174 HD
ATOM     38  H11 UNL     1    -131.383  26.802 128.320  1.00  0.00     0.174 HD
ENDBRANCH  28  36
ENDBRANCH  25  26
ENDBRANCH  23  25
ENDBRANCH   1  23
TORSDOF 9
ENDMDL
MODEL 4
REMARK VINA RESULT: -8.428926571      1.704      1.911
REMARK  9 active torsions:
REMARK  status: ('A' for Active; 'I' for Inactive)
REMARK    1  A    between atoms: N1_1  and  C1_4 
REMARK    2  A    between atoms: C2_7  and  C3_8 
REMARK    3  A    between atoms: C3_8  and  C4_9 
REMARK    4  A    between atoms: C4_9  and  C5_11 
REMARK       I    between atoms: C5_11  and  N3_13 
REMARK    5  A    between atoms: N3_13  and  N4_15 
REMARK    6  A    between atoms: N4_15  and  N5_17 
REMARK    7  A    between atoms: N5_17  and  C6_19 
REMARK    8  A    between atoms: C7_21  and  N6_22 
REMARK    9  A    between atoms: C9_29  and  C10_30 
ROOT
HETATM    1  C5  UNL     1    -128.244  32.824 126.364  1.00  0.00     0.307 C 
HETATM    2  O2  UNL     1    -127.077  33.217 126.302  1.00  0.00    -0.263 OA
HETATM    3  N3  UNL     1    -129.252  33.199 125.445  1.00  0.00    -0.249 N 
ATOM      4  H3  UNL     1    -130.189  32.818 125.577  1.00  0.00     0.192 HD
ENDROOT
BRANCH   3   5
HETATM    5  N4  UNL     1    -129.043  34.041 124.391  1.00  0.00    -0.239 N 
ATOM      6  H4  UNL     1    -129.759  34.687 124.060  1.00  0.00     0.208 HD
BRANCH   5   7
HETATM    7  N5  UNL     1    -127.816  33.961 123.812  1.00  0.00    -0.278 N 
ATOM      8  H5  UNL     1    -126.961  34.152 124.335  1.00  0.00     0.189 HD
BRANCH   7   9
HETATM    9  C6  UNL     1    -127.791  33.591 122.413  1.00  0.00     0.114 A 
HETATM   10  S1  UNL     1    -128.251  34.634 121.151  1.00  0.00    -0.034 SA
HETATM   11  C7  UNL     1    -128.117  33.940 119.601  1.00  0.00     0.147 A 
HETATM   12  N7  UNL     1    -127.668  32.669 119.609  1.00  0.00    -0.303 N 
HETATM   13  C8  UNL     1    -127.339  31.959 120.674  1.00  0.00     0.265 A 
ATOM     14  H7  UNL     1    -127.571  32.210 118.703  1.00  0.00     0.171 HD
HETATM   15  O3  UNL     1    -126.934  30.763 120.435  1.00  0.00    -0.267 OA
HETATM   16  C9  UNL     1    -127.376  32.332 121.993  1.00  0.00     0.132 A 
BRANCH  11  17
HETATM   17  N6  UNL     1    -128.416  34.561 118.509  1.00  0.00    -0.380 N 
ATOM     18  H62 UNL     1    -128.772  35.516 118.503  1.00  0.00     0.158 HD
ATOM     19  H61 UNL     1    -128.322  34.151 117.580  1.00  0.00     0.158 HD
ENDBRANCH  11  17
BRANCH  16  20
HETATM   20  C10 UNL     1    -126.978  31.386 123.020  1.00  0.00     0.273 C 
HETATM   21  N8  UNL     1    -127.942  30.573 123.662  1.00  0.00    -0.057 NA
HETATM   22  O4  UNL     1    -125.786  31.283 123.343  1.00  0.00    -0.271 OA
ENDBRANCH  16  20
ENDBRANCH   7   9
ENDBRANCH   5   7
ENDBRANCH   3   5
BRANCH   1  23
HETATM   23  C4  UNL     1    -128.603  31.924 127.449  1.00  0.00     0.225 C 
HETATM   24  O1  UNL     1    -127.763  31.078 127.837  1.00  0.00    -0.287 OA
BRANCH  23  25
HETATM   25  C3  UNL     1    -129.933  32.009 128.074  1.00  0.00     0.166 C 
BRANCH  25  26
HETATM   26  C2  UNL     1    -130.734  30.839 127.585  1.00  0.00     0.107 A 
HETATM   27  N2  UNL     1    -131.504  30.952 126.484  1.00  0.00    -0.180 N 
HETATM   28  C1  UNL     1    -132.233  29.912 126.028  1.00  0.00     0.679 A 
ATOM     29  H2  UNL     1    -131.536  31.842 125.986  1.00  0.00     0.185 HD
HETATM   30  N10 UNL     1    -132.215  28.724 126.660  1.00  0.00    -0.166 N 
HETATM   31  C11 UNL     1    -131.450  28.609 127.756  1.00  0.00     0.191 A 
ATOM     32  H10 UNL     1    -132.766  27.937 126.317  1.00  0.00     0.186 HD
HETATM   33  N9  UNL     1    -130.714  29.656 128.219  1.00  0.00    -0.321 N 
HETATM   34  S2  UNL     1    -131.424  27.162 128.533  1.00  0.00    -0.040 SA
ATOM     35  H9  UNL     1    -130.142  29.540 129.055  1.00  0.00     0.169 HD
BRANCH  28  36
HETATM   36  N1  UNL     1    -132.937  30.104 124.965  1.00  0.00    -0.234 N 
ATOM     37  H12 UNL     1    -132.731  30.862 124.315  1.00  0.00     0.174 HD
ATOM     38  H11 UNL     1    -133.716  29.466 124.799  1.00  0.00     0.174 HD
ENDBRANCH  28  36
ENDBRANCH  25  26
ENDBRANCH  23  25
ENDBRANCH   1  23
TORSDOF 9
ENDMDL
MODEL 5
REMARK VINA RESULT: -8.241280705      1.945      3.081
REMARK  9 active torsions:
REMARK  status: ('A' for Active; 'I' for Inactive)
REMARK    1  A    between atoms: N1_1  and  C1_4 
REMARK    2  A    between atoms: C2_7  and  C3_8 
REMARK    3  A    between atoms: C3_8  and  C4_9 
REMARK    4  A    between atoms: C4_9  and  C5_11 
REMARK       I    between atoms: C5_11  and  N3_13 
REMARK    5  A    between atoms: N3_13  and  N4_15 
REMARK    6  A    between atoms: N4_15  and  N5_17 
REMARK    7  A    between atoms: N5_17  and  C6_19 
REMARK    8  A    between atoms: C7_21  and  N6_22 
REMARK    9  A    between atoms: C9_29  and  C10_30 
ROOT
HETATM    1  C5  UNL     1    -127.859  32.087 128.378  1.00  0.00     0.307 C 
HETATM    2  O2  UNL     1    -126.840  31.995 129.066  1.00  0.00    -0.263 OA
HETATM    3  N3  UNL     1    -127.850  32.315 126.982  1.00  0.00    -0.249 N 
ATOM      4  H3  UNL     1    -128.746  32.373 126.498  1.00  0.00     0.192 HD
ENDROOT
BRANCH   3   5
HETATM    5  N4  UNL     1    -126.711  32.462 126.245  1.00  0.00    -0.239 N 
ATOM      6  H4  UNL     1    -125.928  31.812 126.317  1.00  0.00     0.208 HD
BRANCH   5   7
HETATM    7  N5  UNL     1    -126.688  33.532 125.408  1.00  0.00    -0.278 N 
ATOM      8  H5  UNL     1    -126.509  34.477 125.747  1.00  0.00     0.189 HD
BRANCH   7   9
HETATM    9  C6  UNL     1    -126.931  33.255 124.008  1.00  0.00     0.114 A 
HETATM   10  S1  UNL     1    -126.809  31.707 123.315  1.00  0.00    -0.034 SA
HETATM   11  C7  UNL     1    -127.155  31.669 121.648  1.00  0.00     0.147 A 
HETATM   12  N7  UNL     1    -127.473  32.872 121.129  1.00  0.00    -0.303 N 
HETATM   13  C8  UNL     1    -127.534  34.018 121.784  1.00  0.00     0.265 A 
ATOM     14  H7  UNL     1    -127.688  32.901 120.133  1.00  0.00     0.171 HD
HETATM   15  O3  UNL     1    -127.861  35.040 121.077  1.00  0.00    -0.267 OA
HETATM   16  C9  UNL     1    -127.294  34.256 123.113  1.00  0.00     0.132 A 
BRANCH  11  17
HETATM   17  N6  UNL     1    -127.119  30.595 120.932  1.00  0.00    -0.380 N 
ATOM     18  H62 UNL     1    -127.566  30.534 120.017  1.00  0.00     0.158 HD
ATOM     19  H61 UNL     1    -126.649  29.738 121.219  1.00  0.00     0.158 HD
ENDBRANCH  11  17
BRANCH  16  20
HETATM   20  C10 UNL     1    -127.408  35.606 123.635  1.00  0.00     0.273 C 
HETATM   21  N8  UNL     1    -126.259  36.420 123.781  1.00  0.00    -0.057 NA
HETATM   22  O4  UNL     1    -128.516  36.058 123.958  1.00  0.00    -0.271 OA
ENDBRANCH  16  20
ENDBRANCH   7   9
ENDBRANCH   5   7
ENDBRANCH   3   5
BRANCH   1  23
HETATM   23  C4  UNL     1    -129.146  31.957 129.045  1.00  0.00     0.225 C 
HETATM   24  O1  UNL     1    -129.173  31.582 130.241  1.00  0.00    -0.287 OA
BRANCH  23  25
HETATM   25  C3  UNL     1    -130.391  32.258 128.320  1.00  0.00     0.166 C 
BRANCH  25  26
HETATM   26  C2  UNL     1    -130.875  30.977 127.707  1.00  0.00     0.107 A 
HETATM   27  N2  UNL     1    -130.613  29.796 128.301  1.00  0.00    -0.180 N 
HETATM   28  C1  UNL     1    -131.040  28.633 127.765  1.00  0.00     0.679 A 
ATOM     29  H2  UNL     1    -130.083  29.781 129.172  1.00  0.00     0.185 HD
HETATM   30  N10 UNL     1    -131.741  28.614 126.618  1.00  0.00    -0.166 N 
HETATM   31  C11 UNL     1    -132.003  29.790 126.025  1.00  0.00     0.191 A 
ATOM     32  H10 UNL     1    -132.063  27.736 126.211  1.00  0.00     0.186 HD
HETATM   33  N9  UNL     1    -131.574  30.964 126.561  1.00  0.00    -0.321 N 
HETATM   34  S2  UNL     1    -132.858  29.775 124.622  1.00  0.00    -0.040 SA
ATOM     35  H9  UNL     1    -131.787  31.842 126.088  1.00  0.00     0.169 HD
BRANCH  28  36
HETATM   36  N1  UNL     1    -130.751  27.548 128.400  1.00  0.00    -0.234 N 
ATOM     37  H12 UNL     1    -130.013  27.519 129.103  1.00  0.00     0.174 HD
ATOM     38  H11 UNL     1    -131.290  26.713 128.169  1.00  0.00     0.174 HD
ENDBRANCH  28  36
ENDBRANCH  25  26
ENDBRANCH  23  25
ENDBRANCH   1  23
TORSDOF 9
ENDMDL
