MODEL 1
REMARK VINA RESULT: -8.745585633      0.000      0.000
REMARK  13 active torsions:
REMARK  status: ('A' for Active; 'I' for Inactive)
REMARK    1  A    between atoms: C2_3  and  O1_4 
REMARK    2  A    between atoms: C4_9  and  C5_10 
REMARK    3  A    between atoms: C5_10  and  N3_11 
REMARK    4  A    between atoms: C5_10  and  N12_41 
REMARK    5  A    between atoms: N3_11  and  C6_13 
REMARK    6  A    between atoms: C6_13  and  C7_14 
REMARK    7  A    between atoms: C7_14  and  C8_15 
REMARK    8  A    between atoms: C8_15  and  O2_16 
REMARK    9  A    between atoms: C8_15  and  C9_18 
REMARK   10  A    between atoms: C9_18  and  C10_19 
REMARK   11  A    between atoms: C10_19  and  N4_20 
REMARK   12  A    between atoms: N4_20  and  C11_22 
REMARK   13  A    between atoms: C14_36  and  N10_37 
ROOT
HETATM    1  N12 UNL     1    -130.913  29.787 124.834  1.00  0.00    -0.276 N 
ATOM      2  H12 UNL     1    -131.807  29.891 124.353  1.00  0.00     0.179 HD
HETATM    3  C15 UNL     1    -129.798  29.324 124.136  1.00  0.00     0.183 C 
HETATM    4  N13 UNL     1    -128.855  28.940 123.548  1.00  0.00    -0.172 NA
ENDROOT
BRANCH   1   5
HETATM    5  C5  UNL     1    -130.808  30.113 126.210  1.00  0.00     0.155 C 
BRANCH   5   6
HETATM    6  C4  UNL     1    -131.258  29.189 127.228  1.00  0.00     0.154 A 
HETATM    7  N1  UNL     1    -132.425  29.243 127.924  1.00  0.00    -0.314 N 
HETATM    8  C1  UNL     1    -133.465  30.220 127.805  1.00  0.00     0.160 C 
HETATM    9  C2  UNL     1    -132.465  28.198 128.780  1.00  0.00     0.159 A 
HETATM   10  C3  UNL     1    -131.306  27.483 128.615  1.00  0.00     0.145 A 
HETATM   11  N2  UNL     1    -130.588  28.112 127.661  1.00  0.00    -0.345 N 
ATOM     12  H2  UNL     1    -129.674  27.813 127.321  1.00  0.00     0.167 HD
BRANCH   9  13
HETATM   13  O1  UNL     1    -133.522  27.922 129.669  1.00  0.00    -0.345 OA
ATOM     14  H1  UNL     1    -133.912  28.551 130.265  1.00  0.00     0.219 HD
ENDBRANCH   9  13
ENDBRANCH   5   6
BRANCH   5  15
HETATM   15  N3  UNL     1    -130.305  31.249 126.532  1.00  0.00    -0.373 N 
ATOM     16  H3  UNL     1    -130.126  31.940 125.804  1.00  0.00     0.161 HD
BRANCH  15  17
HETATM   17  C6  UNL     1    -129.980  31.574 127.930  1.00  0.00     0.123 C 
BRANCH  17  18
HETATM   18  C7  UNL     1    -128.833  32.550 127.977  1.00  0.00     0.051 C 
BRANCH  18  19
HETATM   19  C8  UNL     1    -127.488  31.912 127.873  1.00  0.00     0.121 C 
BRANCH  19  20
HETATM   20  O2  UNL     1    -126.764  32.040 129.064  1.00  0.00    -0.395 OA
ATOM     21  H2  UNL     1    -126.273  31.250 129.261  1.00  0.00     0.210 HD
ENDBRANCH  19  20
BRANCH  19  22
HETATM   22  C9  UNL     1    -126.692  32.579 126.790  1.00  0.00     0.052 C 
BRANCH  22  23
HETATM   23  C10 UNL     1    -127.279  32.276 125.424  1.00  0.00     0.140 C 
BRANCH  23  24
HETATM   24  N4  UNL     1    -126.275  32.305 124.381  1.00  0.00    -0.223 N 
ATOM     25  H4  UNL     1    -125.317  32.590 124.579  1.00  0.00     0.177 HD
BRANCH  24  26
HETATM   26  C11 UNL     1    -126.639  31.956 123.183  1.00  0.00     0.729 A 
HETATM   27  N5  UNL     1    -126.578  30.700 122.652  1.00  0.00    -0.116 N 
HETATM   28  N6  UNL     1    -127.042  30.785 121.418  1.00  0.00    -0.116 N 
ATOM     29  H5  UNL     1    -126.239  29.858 123.117  1.00  0.00     0.206 HD
HETATM   30  C12 UNL     1    -127.404  32.042 121.121  1.00  0.00     0.748 A 
ATOM     31  H6  UNL     1    -127.116  29.997 120.775  1.00  0.00     0.206 HD
HETATM   32  N7  UNL     1    -127.928  32.631 120.007  1.00  0.00    -0.019 N 
HETATM   33  N11 UNL     1    -127.152  32.771 122.223  1.00  0.00     0.202 N 
HETATM   34  C13 UNL     1    -128.208  33.946 119.971  1.00  0.00     0.705 A 
ATOM     35  H7  UNL     1    -128.112  32.061 119.181  1.00  0.00     0.203 HD
HETATM   36  N8  UNL     1    -128.708  34.514 118.913  1.00  0.00    -0.234 N 
HETATM   37  N9  UNL     1    -127.956  34.673 121.071  1.00  0.00    -0.021 N 
ATOM     38  H82 UNL     1    -128.900  33.961 118.077  1.00  0.00     0.174 HD
ATOM     39  H81 UNL     1    -128.920  35.511 118.885  1.00  0.00     0.174 HD
HETATM   40  C14 UNL     1    -127.432  34.076 122.180  1.00  0.00     0.727 A 
ATOM     41  H9  UNL     1    -128.157  35.674 121.079  1.00  0.00     0.203 HD
BRANCH  40  42
HETATM   42  N10 UNL     1    -127.199  34.804 123.231  1.00  0.00    -0.233 N 
ATOM     43 2H10 UNL     1    -127.150  34.353 124.144  1.00  0.00     0.174 HD
ATOM     44 1H10 UNL     1    -127.072  35.809 123.112  1.00  0.00     0.174 HD
ENDBRANCH  40  42
ENDBRANCH  24  26
ENDBRANCH  23  24
ENDBRANCH  22  23
ENDBRANCH  19  22
ENDBRANCH  18  19
ENDBRANCH  17  18
ENDBRANCH  15  17
ENDBRANCH   5  15
ENDBRANCH   1   5
TORSDOF 13
ENDMDL
MODEL 2
REMARK VINA RESULT: -8.337882436      0.835      1.863
REMARK  13 active torsions:
REMARK  status: ('A' for Active; 'I' for Inactive)
REMARK    1  A    between atoms: C2_3  and  O1_4 
REMARK    2  A    between atoms: C4_9  and  C5_10 
REMARK    3  A    between atoms: C5_10  and  N3_11 
REMARK    4  A    between atoms: C5_10  and  N12_41 
REMARK    5  A    between atoms: N3_11  and  C6_13 
REMARK    6  A    between atoms: C6_13  and  C7_14 
REMARK    7  A    between atoms: C7_14  and  C8_15 
REMARK    8  A    between atoms: C8_15  and  O2_16 
REMARK    9  A    between atoms: C8_15  and  C9_18 
REMARK   10  A    between atoms: C9_18  and  C10_19 
REMARK   11  A    between atoms: C10_19  and  N4_20 
REMARK   12  A    between atoms: N4_20  and  C11_22 
REMARK   13  A    between atoms: C14_36  and  N10_37 
ROOT
HETATM    1  N12 UNL     1    -130.894  30.195 124.957  1.00  0.00    -0.276 N 
ATOM      2  H12 UNL     1    -131.648  30.650 124.441  1.00  0.00     0.179 HD
HETATM    3  C15 UNL     1    -129.987  29.377 124.285  1.00  0.00     0.183 C 
HETATM    4  N13 UNL     1    -129.217  28.692 123.718  1.00  0.00    -0.172 NA
ENDROOT
BRANCH   1   5
HETATM    5  C5  UNL     1    -130.773  30.397 126.355  1.00  0.00     0.155 C 
BRANCH   5   6
HETATM    6  C4  UNL     1    -131.211  29.385 127.292  1.00  0.00     0.154 A 
HETATM    7  N1  UNL     1    -132.396  29.346 127.958  1.00  0.00    -0.314 N 
HETATM    8  C1  UNL     1    -133.469  30.291 127.883  1.00  0.00     0.160 C 
HETATM    9  C2  UNL     1    -132.417  28.241 128.735  1.00  0.00     0.159 A 
HETATM   10  C3  UNL     1    -131.228  27.581 128.550  1.00  0.00     0.145 A 
HETATM   11  N2  UNL     1    -130.511  28.304 127.663  1.00  0.00    -0.345 N 
ATOM     12  H2  UNL     1    -129.579  28.064 127.327  1.00  0.00     0.167 HD
BRANCH   9  13
HETATM   13  O1  UNL     1    -133.484  27.862 129.574  1.00  0.00    -0.345 OA
ATOM     14  H1  UNL     1    -133.729  28.305 130.377  1.00  0.00     0.219 HD
ENDBRANCH   9  13
ENDBRANCH   5   6
BRANCH   5  15
HETATM   15  N3  UNL     1    -130.264  31.498 126.772  1.00  0.00    -0.373 N 
ATOM     16  H3  UNL     1    -130.379  32.344 126.214  1.00  0.00     0.161 HD
BRANCH  15  17
HETATM   17  C6  UNL     1    -129.518  31.568 128.038  1.00  0.00     0.123 C 
BRANCH  17  18
HETATM   18  C7  UNL     1    -128.414  32.588 127.930  1.00  0.00     0.051 C 
BRANCH  18  19
HETATM   19  C8  UNL     1    -127.044  31.999 127.894  1.00  0.00     0.121 C 
BRANCH  19  20
HETATM   20  O2  UNL     1    -126.316  32.317 129.047  1.00  0.00    -0.395 OA
ATOM     21  H2  UNL     1    -125.391  32.128 128.940  1.00  0.00     0.210 HD
ENDBRANCH  19  20
BRANCH  19  22
HETATM   22  C9  UNL     1    -126.286  32.547 126.720  1.00  0.00     0.052 C 
BRANCH  22  23
HETATM   23  C10 UNL     1    -127.238  33.061 125.656  1.00  0.00     0.140 C 
BRANCH  23  24
HETATM   24  N4  UNL     1    -126.599  33.174 124.361  1.00  0.00    -0.223 N 
ATOM     25  H4  UNL     1    -125.934  32.472 124.039  1.00  0.00     0.177 HD
BRANCH  24  26
HETATM   26  C11 UNL     1    -126.903  34.200 123.625  1.00  0.00     0.729 A 
HETATM   27  N5  UNL     1    -126.830  35.512 123.994  1.00  0.00    -0.116 N 
HETATM   28  N6  UNL     1    -127.226  36.223 122.955  1.00  0.00    -0.116 N 
ATOM     29  H5  UNL     1    -126.528  35.874 124.899  1.00  0.00     0.206 HD
HETATM   30  C12 UNL     1    -127.554  35.433 121.922  1.00  0.00     0.748 A 
ATOM     31  H6  UNL     1    -127.276  37.243 122.939  1.00  0.00     0.206 HD
HETATM   32  N7  UNL     1    -128.007  35.677 120.657  1.00  0.00    -0.019 N 
HETATM   33  N11 UNL     1    -127.351  34.171 122.341  1.00  0.00     0.202 N 
HETATM   34  C13 UNL     1    -128.264  34.677 119.796  1.00  0.00     0.705 A 
ATOM     35  H7  UNL     1    -128.153  36.641 120.358  1.00  0.00     0.203 HD
HETATM   36  N8  UNL     1    -128.696  34.902 118.590  1.00  0.00    -0.234 N 
HETATM   37  N9  UNL     1    -128.062  33.417 120.216  1.00  0.00    -0.021 N 
ATOM     38  H82 UNL     1    -128.849  35.859 118.271  1.00  0.00     0.174 HD
ATOM     39  H81 UNL     1    -128.891  34.144 117.936  1.00  0.00     0.174 HD
HETATM   40  C14 UNL     1    -127.610  33.183 121.482  1.00  0.00     0.727 A 
ATOM     41  H9  UNL     1    -128.247  32.634 119.588  1.00  0.00     0.203 HD
BRANCH  40  42
HETATM   42  N10 UNL     1    -127.423  31.954 121.860  1.00  0.00    -0.233 N 
ATOM     43 2H10 UNL     1    -126.775  31.368 121.334  1.00  0.00     0.174 HD
ATOM     44 1H10 UNL     1    -127.932  31.610 122.674  1.00  0.00     0.174 HD
ENDBRANCH  40  42
ENDBRANCH  24  26
ENDBRANCH  23  24
ENDBRANCH  22  23
ENDBRANCH  19  22
ENDBRANCH  18  19
ENDBRANCH  17  18
ENDBRANCH  15  17
ENDBRANCH   5  15
ENDBRANCH   1   5
TORSDOF 13
ENDMDL
MODEL 3
REMARK VINA RESULT: -8.158759338      1.874      2.937
REMARK  13 active torsions:
REMARK  status: ('A' for Active; 'I' for Inactive)
REMARK    1  A    between atoms: C2_3  and  O1_4 
REMARK    2  A    between atoms: C4_9  and  C5_10 
REMARK    3  A    between atoms: C5_10  and  N3_11 
REMARK    4  A    between atoms: C5_10  and  N12_41 
REMARK    5  A    between atoms: N3_11  and  C6_13 
REMARK    6  A    between atoms: C6_13  and  C7_14 
REMARK    7  A    between atoms: C7_14  and  C8_15 
REMARK    8  A    between atoms: C8_15  and  O2_16 
REMARK    9  A    between atoms: C8_15  and  C9_18 
REMARK   10  A    between atoms: C9_18  and  C10_19 
REMARK   11  A    between atoms: C10_19  and  N4_20 
REMARK   12  A    between atoms: N4_20  and  C11_22 
REMARK   13  A    between atoms: C14_36  and  N10_37 
ROOT
HETATM    1  N12 UNL     1    -131.627  27.906 127.589  1.00  0.00    -0.276 N 
ATOM      2  H12 UNL     1    -132.386  27.385 127.150  1.00  0.00     0.179 HD
HETATM    3  C15 UNL     1    -131.106  27.479 128.810  1.00  0.00     0.183 C 
HETATM    4  N13 UNL     1    -130.663  27.116 129.837  1.00  0.00    -0.172 NA
ENDROOT
BRANCH   1   5
HETATM    5  C5  UNL     1    -131.103  29.061 126.956  1.00  0.00     0.155 C 
BRANCH   5   6
HETATM    6  C4  UNL     1    -131.040  30.326 127.656  1.00  0.00     0.154 A 
HETATM    7  N1  UNL     1    -132.058  31.209 127.844  1.00  0.00    -0.314 N 
HETATM    8  C1  UNL     1    -133.412  31.084 127.396  1.00  0.00     0.160 C 
HETATM    9  C2  UNL     1    -131.588  32.265 128.544  1.00  0.00     0.159 A 
HETATM   10  C3  UNL     1    -130.259  32.037 128.796  1.00  0.00     0.145 A 
HETATM   11  N2  UNL     1    -129.951  30.846 128.241  1.00  0.00    -0.345 N 
ATOM     12  H2  UNL     1    -129.031  30.407 128.263  1.00  0.00     0.167 HD
BRANCH   9  13
HETATM   13  O1  UNL     1    -132.352  33.383 128.930  1.00  0.00    -0.345 OA
ATOM     14  H1  UNL     1    -132.386  33.743 129.809  1.00  0.00     0.219 HD
ENDBRANCH   9  13
ENDBRANCH   5   6
BRANCH   5  15
HETATM   15  N3  UNL     1    -130.686  28.960 125.747  1.00  0.00    -0.373 N 
ATOM     16  H3  UNL     1    -130.279  28.080 125.431  1.00  0.00     0.161 HD
BRANCH  15  17
HETATM   17  C6  UNL     1    -130.783  30.087 124.806  1.00  0.00     0.123 C 
BRANCH  17  18
HETATM   18  C7  UNL     1    -129.511  30.895 124.839  1.00  0.00     0.051 C 
BRANCH  18  19
HETATM   19  C8  UNL     1    -129.717  32.340 125.147  1.00  0.00     0.121 C 
BRANCH  19  20
HETATM   20  O2  UNL     1    -130.073  33.065 124.004  1.00  0.00    -0.395 OA
ATOM     21  H2  UNL     1    -130.799  33.653 124.175  1.00  0.00     0.210 HD
ENDBRANCH  19  20
BRANCH  19  22
HETATM   22  C9  UNL     1    -128.443  32.933 125.675  1.00  0.00     0.052 C 
BRANCH  22  23
HETATM   23  C10 UNL     1    -127.271  32.000 125.431  1.00  0.00     0.140 C 
BRANCH  23  24
HETATM   24  N4  UNL     1    -126.414  32.469 124.362  1.00  0.00    -0.223 N 
ATOM     25  H4  UNL     1    -125.611  33.067 124.554  1.00  0.00     0.177 HD
BRANCH  24  26
HETATM   26  C11 UNL     1    -126.704  32.101 123.150  1.00  0.00     0.729 A 
HETATM   27  N5  UNL     1    -126.551  30.850 122.625  1.00  0.00    -0.116 N 
HETATM   28  N6  UNL     1    -126.963  30.911 121.372  1.00  0.00    -0.116 N 
ATOM     29  H5  UNL     1    -126.189  30.028 123.107  1.00  0.00     0.206 HD
HETATM   30  C12 UNL     1    -127.378  32.146 121.056  1.00  0.00     0.748 A 
ATOM     31  H6  UNL     1    -126.966  30.120 120.727  1.00  0.00     0.206 HD
HETATM   32  N7  UNL     1    -127.883  32.707 119.918  1.00  0.00    -0.019 N 
HETATM   33  N11 UNL     1    -127.216  32.887 122.166  1.00  0.00     0.202 N 
HETATM   34  C13 UNL     1    -128.231  34.005 119.867  1.00  0.00     0.705 A 
ATOM     35  H7  UNL     1    -127.999  32.127 119.086  1.00  0.00     0.203 HD
HETATM   36  N8  UNL     1    -128.713  34.545 118.786  1.00  0.00    -0.234 N 
HETATM   37  N9  UNL     1    -128.068  34.744 120.976  1.00  0.00    -0.021 N 
ATOM     38  H82 UNL     1    -128.836  33.983 117.943  1.00  0.00     0.174 HD
ATOM     39  H81 UNL     1    -128.976  35.530 118.747  1.00  0.00     0.174 HD
HETATM   40  C14 UNL     1    -127.563  34.175 122.108  1.00  0.00     0.727 A 
ATOM     41  H9  UNL     1    -128.323  35.732 120.972  1.00  0.00     0.203 HD
BRANCH  40  42
HETATM   42  N10 UNL     1    -127.417  34.915 123.167  1.00  0.00    -0.233 N 
ATOM     43 2H10 UNL     1    -126.515  35.358 123.339  1.00  0.00     0.174 HD
ATOM     44 1H10 UNL     1    -128.211  35.030 123.797  1.00  0.00     0.174 HD
ENDBRANCH  40  42
ENDBRANCH  24  26
ENDBRANCH  23  24
ENDBRANCH  22  23
ENDBRANCH  19  22
ENDBRANCH  18  19
ENDBRANCH  17  18
ENDBRANCH  15  17
ENDBRANCH   5  15
ENDBRANCH   1   5
TORSDOF 13
ENDMDL
MODEL 4
REMARK VINA RESULT: -7.917827203      1.810      3.065
REMARK  13 active torsions:
REMARK  status: ('A' for Active; 'I' for Inactive)
REMARK    1  A    between atoms: C2_3  and  O1_4 
REMARK    2  A    between atoms: C4_9  and  C5_10 
REMARK    3  A    between atoms: C5_10  and  N3_11 
REMARK    4  A    between atoms: C5_10  and  N12_41 
REMARK    5  A    between atoms: N3_11  and  C6_13 
REMARK    6  A    between atoms: C6_13  and  C7_14 
REMARK    7  A    between atoms: C7_14  and  C8_15 
REMARK    8  A    between atoms: C8_15  and  O2_16 
REMARK    9  A    between atoms: C8_15  and  C9_18 
REMARK   10  A    between atoms: C9_18  and  C10_19 
REMARK   11  A    between atoms: C10_19  and  N4_20 
REMARK   12  A    between atoms: N4_20  and  C11_22 
REMARK   13  A    between atoms: C14_36  and  N10_37 
ROOT
HETATM    1  N12 UNL     1    -131.703  33.003 128.954  1.00  0.00    -0.276 N 
ATOM      2  H12 UNL     1    -132.615  33.021 128.497  1.00  0.00     0.179 HD
HETATM    3  C15 UNL     1    -131.446  33.856 130.027  1.00  0.00     0.183 C 
HETATM    4  N13 UNL     1    -131.231  34.571 130.935  1.00  0.00    -0.172 NA
ENDROOT
BRANCH   1   5
HETATM    5  C5  UNL     1    -130.700  32.112 128.496  1.00  0.00     0.155 C 
BRANCH   5   6
HETATM    6  C4  UNL     1    -130.954  31.213 127.392  1.00  0.00     0.154 A 
HETATM    7  N1  UNL     1    -131.339  29.911 127.469  1.00  0.00    -0.314 N 
HETATM    8  C1  UNL     1    -131.578  29.143 128.653  1.00  0.00     0.160 C 
HETATM    9  C2  UNL     1    -131.468  29.424 126.215  1.00  0.00     0.159 A 
HETATM   10  C3  UNL     1    -131.159  30.438 125.344  1.00  0.00     0.145 A 
HETATM   11  N2  UNL     1    -130.849  31.519 126.091  1.00  0.00    -0.345 N 
ATOM     12  H2  UNL     1    -130.575  32.429 125.722  1.00  0.00     0.167 HD
BRANCH   9  13
HETATM   13  O1  UNL     1    -131.853  28.108 125.894  1.00  0.00    -0.345 OA
ATOM     14  H1  UNL     1    -132.527  27.875 125.267  1.00  0.00     0.219 HD
ENDBRANCH   9  13
ENDBRANCH   5   6
BRANCH   5  15
HETATM   15  N3  UNL     1    -129.560  32.121 129.084  1.00  0.00    -0.373 N 
ATOM     16  H3  UNL     1    -129.426  32.711 129.906  1.00  0.00     0.161 HD
BRANCH  15  17
HETATM   17  C6  UNL     1    -128.440  31.299 128.599  1.00  0.00     0.123 C 
BRANCH  17  18
HETATM   18  C7  UNL     1    -127.166  32.105 128.615  1.00  0.00     0.051 C 
BRANCH  18  19
HETATM   19  C8  UNL     1    -126.473  32.173 127.295  1.00  0.00     0.121 C 
BRANCH  19  20
HETATM   20  O2  UNL     1    -125.248  32.842 127.391  1.00  0.00    -0.395 OA
ATOM     21  H2  UNL     1    -125.262  33.502 128.074  1.00  0.00     0.210 HD
ENDBRANCH  19  20
BRANCH  19  22
HETATM   22  C9  UNL     1    -127.321  32.927 126.314  1.00  0.00     0.052 C 
BRANCH  22  23
HETATM   23  C10 UNL     1    -127.609  32.082 125.087  1.00  0.00     0.140 C 
BRANCH  23  24
HETATM   24  N4  UNL     1    -126.531  32.138 124.122  1.00  0.00    -0.223 N 
ATOM     25  H4  UNL     1    -125.580  32.369 124.406  1.00  0.00     0.177 HD
BRANCH  24  26
HETATM   26  C11 UNL     1    -126.818  31.882 122.880  1.00  0.00     0.729 A 
HETATM   27  N5  UNL     1    -126.715  30.672 122.258  1.00  0.00    -0.116 N 
HETATM   28  N6  UNL     1    -127.103  30.851 121.009  1.00  0.00    -0.116 N 
ATOM     29  H5  UNL     1    -126.400  29.797 122.677  1.00  0.00     0.206 HD
HETATM   30  C12 UNL     1    -127.455  32.127 120.788  1.00  0.00     0.748 A 
ATOM     31  H6  UNL     1    -127.132  30.115 120.303  1.00  0.00     0.206 HD
HETATM   32  N7  UNL     1    -127.914  32.800 119.693  1.00  0.00    -0.019 N 
HETATM   33  N11 UNL     1    -127.277  32.768 121.957  1.00  0.00     0.202 N 
HETATM   34  C13 UNL     1    -128.201  34.113 119.742  1.00  0.00     0.705 A 
ATOM     35  H7  UNL     1    -128.043  32.295 118.816  1.00  0.00     0.203 HD
HETATM   36  N8  UNL     1    -128.639  34.760 118.702  1.00  0.00    -0.234 N 
HETATM   37  N9  UNL     1    -128.022  34.753 120.909  1.00  0.00    -0.021 N 
ATOM     38  H82 UNL     1    -128.775  34.274 117.816  1.00  0.00     0.174 HD
ATOM     39  H81 UNL     1    -128.856  35.756 118.739  1.00  0.00     0.174 HD
HETATM   40  C14 UNL     1    -127.562  34.072 121.998  1.00  0.00     0.727 A 
ATOM     41  H9  UNL     1    -128.230  35.749 120.982  1.00  0.00     0.203 HD
BRANCH  40  42
HETATM   42  N10 UNL     1    -127.399  34.716 123.115  1.00  0.00    -0.233 N 
ATOM     43 2H10 UNL     1    -126.452  34.888 123.453  1.00  0.00     0.174 HD
ATOM     44 1H10 UNL     1    -128.225  35.032 123.623  1.00  0.00     0.174 HD
ENDBRANCH  40  42
ENDBRANCH  24  26
ENDBRANCH  23  24
ENDBRANCH  22  23
ENDBRANCH  19  22
ENDBRANCH  18  19
ENDBRANCH  17  18
ENDBRANCH  15  17
ENDBRANCH   5  15
ENDBRANCH   1   5
TORSDOF 13
ENDMDL
MODEL 5
REMARK VINA RESULT: -7.802192455      0.997      2.215
REMARK  13 active torsions:
REMARK  status: ('A' for Active; 'I' for Inactive)
REMARK    1  A    between atoms: C2_3  and  O1_4 
REMARK    2  A    between atoms: C4_9  and  C5_10 
REMARK    3  A    between atoms: C5_10  and  N3_11 
REMARK    4  A    between atoms: C5_10  and  N12_41 
REMARK    5  A    between atoms: N3_11  and  C6_13 
REMARK    6  A    between atoms: C6_13  and  C7_14 
REMARK    7  A    between atoms: C7_14  and  C8_15 
REMARK    8  A    between atoms: C8_15  and  O2_16 
REMARK    9  A    between atoms: C8_15  and  C9_18 
REMARK   10  A    between atoms: C9_18  and  C10_19 
REMARK   11  A    between atoms: C10_19  and  N4_20 
REMARK   12  A    between atoms: N4_20  and  C11_22 
REMARK   13  A    between atoms: C14_36  and  N10_37 
ROOT
HETATM    1  N12 UNL     1    -131.041  30.448 124.814  1.00  0.00    -0.276 N 
ATOM      2  H12 UNL     1    -131.749  30.819 124.180  1.00  0.00     0.179 HD
HETATM    3  C15 UNL     1    -130.093  29.540 124.342  1.00  0.00     0.183 C 
HETATM    4  N13 UNL     1    -129.290  28.780 123.944  1.00  0.00    -0.172 NA
ENDROOT
BRANCH   1   5
HETATM    5  C5  UNL     1    -131.023  30.855 126.172  1.00  0.00     0.155 C 
BRANCH   5   6
HETATM    6  C4  UNL     1    -131.981  30.326 127.118  1.00  0.00     0.154 A 
HETATM    7  N1  UNL     1    -131.918  29.131 127.764  1.00  0.00    -0.314 N 
HETATM    8  C1  UNL     1    -130.895  28.135 127.654  1.00  0.00     0.160 C 
HETATM    9  C2  UNL     1    -133.004  29.013 128.559  1.00  0.00     0.159 A 
HETATM   10  C3  UNL     1    -133.755  30.150 128.406  1.00  0.00     0.145 A 
HETATM   11  N2  UNL     1    -133.106  30.935 127.520  1.00  0.00    -0.345 N 
ATOM     12  H2  UNL     1    -133.423  31.851 127.203  1.00  0.00     0.167 HD
BRANCH   9  13
HETATM   13  O1  UNL     1    -133.285  27.906 129.384  1.00  0.00    -0.345 OA
ATOM     14  H1  UNL     1    -134.075  27.798 129.899  1.00  0.00     0.219 HD
ENDBRANCH   9  13
ENDBRANCH   5   6
BRANCH   5  15
HETATM   15  N3  UNL     1    -130.137  31.706 126.543  1.00  0.00    -0.373 N 
ATOM     16  H3  UNL     1    -129.945  32.516 125.953  1.00  0.00     0.161 HD
BRANCH  15  17
HETATM   17  C6  UNL     1    -129.393  31.539 127.801  1.00  0.00     0.123 C 
BRANCH  17  18
HETATM   18  C7  UNL     1    -128.317  32.589 127.906  1.00  0.00     0.051 C 
BRANCH  18  19
HETATM   19  C8  UNL     1    -126.930  32.040 127.910  1.00  0.00     0.121 C 
BRANCH  19  20
HETATM   20  O2  UNL     1    -126.216  32.454 129.041  1.00  0.00    -0.395 OA
ATOM     21  H2  UNL     1    -125.966  31.716 129.585  1.00  0.00     0.210 HD
ENDBRANCH  19  20
BRANCH  19  22
HETATM   22  C9  UNL     1    -126.185  32.533 126.705  1.00  0.00     0.052 C 
BRANCH  22  23
HETATM   23  C10 UNL     1    -127.143  33.102 125.673  1.00  0.00     0.140 C 
BRANCH  23  24
HETATM   24  N4  UNL     1    -126.539  33.192 124.360  1.00  0.00    -0.223 N 
ATOM     25  H4  UNL     1    -125.887  32.481 124.030  1.00  0.00     0.177 HD
BRANCH  24  26
HETATM   26  C11 UNL     1    -126.857  34.209 123.617  1.00  0.00     0.729 A 
HETATM   27  N5  UNL     1    -126.789  35.525 123.974  1.00  0.00    -0.116 N 
HETATM   28  N6  UNL     1    -127.200  36.224 122.932  1.00  0.00    -0.116 N 
ATOM     29  H5  UNL     1    -126.480  35.897 124.872  1.00  0.00     0.206 HD
HETATM   30  C12 UNL     1    -127.534  35.421 121.910  1.00  0.00     0.748 A 
ATOM     31  H6  UNL     1    -127.257  37.242 122.907  1.00  0.00     0.206 HD
HETATM   32  N7  UNL     1    -128.002  35.651 120.648  1.00  0.00    -0.019 N 
HETATM   33  N11 UNL     1    -127.319  34.165 122.339  1.00  0.00     0.202 N 
HETATM   34  C13 UNL     1    -128.262  34.640 119.799  1.00  0.00     0.705 A 
ATOM     35  H7  UNL     1    -128.159  36.611 120.342  1.00  0.00     0.203 HD
HETATM   36  N8  UNL     1    -128.708  34.852 118.596  1.00  0.00    -0.234 N 
HETATM   37  N9  UNL     1    -128.048  33.386 120.229  1.00  0.00    -0.021 N 
ATOM     38  H82 UNL     1    -128.872  35.804 118.270  1.00  0.00     0.174 HD
ATOM     39  H81 UNL     1    -128.906  34.085 117.952  1.00  0.00     0.174 HD
HETATM   40  C14 UNL     1    -127.580  33.167 121.492  1.00  0.00     0.727 A 
ATOM     41  H9  UNL     1    -128.235  32.596 119.611  1.00  0.00     0.203 HD
BRANCH  40  42
HETATM   42  N10 UNL     1    -127.381  31.943 121.880  1.00  0.00    -0.233 N 
ATOM     43 2H10 UNL     1    -127.854  31.185 121.388  1.00  0.00     0.174 HD
ATOM     44 1H10 UNL     1    -126.757  31.775 122.670  1.00  0.00     0.174 HD
ENDBRANCH  40  42
ENDBRANCH  24  26
ENDBRANCH  23  24
ENDBRANCH  22  23
ENDBRANCH  19  22
ENDBRANCH  18  19
ENDBRANCH  17  18
ENDBRANCH  15  17
ENDBRANCH   5  15
ENDBRANCH   1   5
TORSDOF 13
ENDMDL
