MODEL 1
REMARK VINA RESULT: -7.909342842      0.000      0.000
REMARK  16 active torsions:
REMARK  status: ('A' for Active; 'I' for Inactive)
REMARK    1  A    between atoms: C2_2  and  O1_3 
REMARK    2  A    between atoms: C2_2  and  C3_5 
REMARK    3  A    between atoms: C3_5  and  N1_6 
REMARK    4  A    between atoms: N1_6  and  C4_8 
REMARK    5  A    between atoms: C5_11  and  C6_12 
REMARK    6  A    between atoms: C6_12  and  O2_13 
REMARK    7  A    between atoms: C6_12  and  N3_15 
REMARK    8  A    between atoms: N3_15  and  O3_16 
REMARK    9  A    between atoms: C7_18  and  C8_19 
REMARK   10  A    between atoms: N4_20  and  C9_22 
REMARK   11  A    between atoms: C10_25  and  N6_26 
REMARK   12  A    between atoms: C11_31  and  N8_32 
REMARK   13  A    between atoms: N8_32  and  C12_34 
REMARK   14  A    between atoms: C12_34  and  C13_35 
REMARK   15  A    between atoms: C13_35  and  O4_36 
REMARK   16  A    between atoms: C14_40  and  O5_41 
ROOT
HETATM    1  C4  UNL     1    -130.614  30.119 127.572  1.00  0.00     0.680 A 
HETATM    2  N2  UNL     1    -129.555  30.864 127.925  1.00  0.00    -0.191 N 
ATOM      3  H2  UNL     1    -129.165  30.747 128.861  1.00  0.00     0.184 HD
HETATM    4  C5  UNL     1    -128.980  31.771 127.085  1.00  0.00     0.089 A 
HETATM    5  C7  UNL     1    -129.498  31.934 125.841  1.00  0.00     0.058 A 
HETATM    6  C14 UNL     1    -130.606  31.127 125.523  1.00  0.00     0.169 A 
HETATM    7  N10 UNL     1    -131.149  30.250 126.352  1.00  0.00    -0.170 N 
ATOM      8  H10 UNL     1    -131.953  29.690 126.068  1.00  0.00     0.186 HD
ENDROOT
BRANCH   5   9
HETATM    9  C8  UNL     1    -129.072  32.925 124.867  1.00  0.00     0.124 C 
HETATM   10  N4  UNL     1    -128.268  32.800 123.901  1.00  0.00    -0.200 N 
ATOM     11  H4  UNL     1    -127.826  31.896 123.737  1.00  0.00     0.183 HD
BRANCH  10  12
HETATM   12  C9  UNL     1    -127.964  33.891 123.035  1.00  0.00     0.711 A 
HETATM   13  N5  UNL     1    -127.386  35.018 123.474  1.00  0.00    -0.021 N 
HETATM   14  C10 UNL     1    -127.120  36.013 122.621  1.00  0.00     0.705 A 
ATOM     15  H5  UNL     1    -127.149  35.116 124.462  1.00  0.00     0.203 HD
HETATM   16  N7  UNL     1    -127.433  35.889 121.310  1.00  0.00    -0.022 N 
HETATM   17  C11 UNL     1    -128.012  34.779 120.823  1.00  0.00     0.707 A 
ATOM     18  H7  UNL     1    -127.223  36.659 120.675  1.00  0.00     0.203 HD
HETATM   19  N9  UNL     1    -128.264  33.803 121.709  1.00  0.00    -0.021 N 
ATOM     20  H9  UNL     1    -128.703  32.947 121.371  1.00  0.00     0.203 HD
BRANCH  14  21
HETATM   21  N6  UNL     1    -126.556  37.129 123.015  1.00  0.00    -0.234 N 
ATOM     22  H62 UNL     1    -127.164  37.884 123.333  1.00  0.00     0.174 HD
ATOM     23  H61 UNL     1    -125.544  37.252 123.010  1.00  0.00     0.174 HD
ENDBRANCH  14  21
BRANCH  17  24
HETATM   24  N8  UNL     1    -128.317  34.648 119.569  1.00  0.00    -0.223 N 
ATOM     25  H8  UNL     1    -128.342  33.727 119.132  1.00  0.00     0.177 HD
BRANCH  24  26
HETATM   26  C12 UNL     1    -128.619  35.838 118.808  1.00  0.00     0.164 C 
BRANCH  26  27
HETATM   27  C13 UNL     1    -128.925  35.542 117.369  1.00  0.00     0.184 C 
BRANCH  27  28
HETATM   28  O4  UNL     1    -128.578  36.605 116.540  1.00  0.00    -0.399 OA
ATOM     29  H4  UNL     1    -129.338  37.110 116.278  1.00  0.00     0.209 HD
ENDBRANCH  27  28
ENDBRANCH  26  27
ENDBRANCH  24  26
ENDBRANCH  17  24
ENDBRANCH  10  12
ENDBRANCH   5   9
BRANCH   4  30
HETATM   30  C6  UNL     1    -127.751  32.476 127.519  1.00  0.00     0.290 C 
BRANCH  30  31
HETATM   31  O2  UNL     1    -126.707  32.385 126.619  1.00  0.00    -0.372 OA
ATOM     32  H2  UNL     1    -126.554  31.505 126.296  1.00  0.00     0.212 HD
ENDBRANCH  30  31
BRANCH  30  33
HETATM   33  N3  UNL     1    -127.274  32.012 128.784  1.00  0.00    -0.065 NA
BRANCH  33  34
HETATM   34  O3  UNL     1    -126.115  32.553 129.171  1.00  0.00    -0.293 OA
ATOM     35  H3  UNL     1    -125.804  32.256 130.017  1.00  0.00     0.238 HD
ENDBRANCH  33  34
ENDBRANCH  30  33
ENDBRANCH   4  30
BRANCH   6  36
HETATM   36  O5  UNL     1    -131.187  31.248 124.244  1.00  0.00    -0.345 OA
ATOM     37  H5  UNL     1    -131.982  30.763 124.056  1.00  0.00     0.219 HD
ENDBRANCH   6  36
BRANCH   1  38
HETATM   38  N1  UNL     1    -131.137  29.264 128.395  1.00  0.00    -0.224 N 
ATOM     39  H1  UNL     1    -130.795  29.266 129.357  1.00  0.00     0.177 HD
BRANCH  38  40
HETATM   40  C3  UNL     1    -132.156  28.323 128.059  1.00  0.00     0.169 C 
BRANCH  40  41
HETATM   41  C2  UNL     1    -132.101  27.099 128.986  1.00  0.00     0.132 C 
HETATM   42  C1  UNL     1    -130.850  27.135 129.808  1.00  0.00     0.041 C 
BRANCH  41  43
HETATM   43  O1  UNL     1    -132.007  25.995 128.117  1.00  0.00    -0.394 OA
ATOM     44  H1  UNL     1    -132.248  26.293 127.248  1.00  0.00     0.210 HD
ENDBRANCH  41  43
ENDBRANCH  40  41
ENDBRANCH  38  40
ENDBRANCH   1  38
TORSDOF 16
ENDMDL
MODEL 2
REMARK VINA RESULT: -7.681213605      3.267      9.289
REMARK  16 active torsions:
REMARK  status: ('A' for Active; 'I' for Inactive)
REMARK    1  A    between atoms: C2_2  and  O1_3 
REMARK    2  A    between atoms: C2_2  and  C3_5 
REMARK    3  A    between atoms: C3_5  and  N1_6 
REMARK    4  A    between atoms: N1_6  and  C4_8 
REMARK    5  A    between atoms: C5_11  and  C6_12 
REMARK    6  A    between atoms: C6_12  and  O2_13 
REMARK    7  A    between atoms: C6_12  and  N3_15 
REMARK    8  A    between atoms: N3_15  and  O3_16 
REMARK    9  A    between atoms: C7_18  and  C8_19 
REMARK   10  A    between atoms: N4_20  and  C9_22 
REMARK   11  A    between atoms: C10_25  and  N6_26 
REMARK   12  A    between atoms: C11_31  and  N8_32 
REMARK   13  A    between atoms: N8_32  and  C12_34 
REMARK   14  A    between atoms: C12_34  and  C13_35 
REMARK   15  A    between atoms: C13_35  and  O4_36 
REMARK   16  A    between atoms: C14_40  and  O5_41 
ROOT
HETATM    1  C4  UNL     1    -127.822  35.241 120.614  1.00  0.00     0.680 A 
HETATM    2  N2  UNL     1    -127.720  33.914 120.789  1.00  0.00    -0.191 N 
ATOM      3  H2  UNL     1    -127.666  33.315 119.965  1.00  0.00     0.184 HD
HETATM    4  C5  UNL     1    -127.685  33.335 122.023  1.00  0.00     0.089 A 
HETATM    5  C7  UNL     1    -127.762  34.126 123.122  1.00  0.00     0.058 A 
HETATM    6  C14 UNL     1    -127.867  35.509 122.882  1.00  0.00     0.169 A 
HETATM    7  N10 UNL     1    -127.896  36.053 121.676  1.00  0.00    -0.170 N 
ATOM      8  H10 UNL     1    -127.973  37.064 121.559  1.00  0.00     0.186 HD
ENDROOT
BRANCH   5   9
HETATM    9  C8  UNL     1    -127.844  33.664 124.498  1.00  0.00     0.124 C 
HETATM   10  N4  UNL     1    -128.763  33.011 125.066  1.00  0.00    -0.200 N 
ATOM     11  H4  UNL     1    -129.588  32.744 124.529  1.00  0.00     0.183 HD
BRANCH  10  12
HETATM   12  C9  UNL     1    -128.676  32.636 126.440  1.00  0.00     0.711 A 
HETATM   13  N5  UNL     1    -127.517  32.295 127.019  1.00  0.00    -0.021 N 
HETATM   14  C10 UNL     1    -127.487  31.952 128.311  1.00  0.00     0.705 A 
ATOM     15  H5  UNL     1    -126.655  32.297 126.473  1.00  0.00     0.203 HD
HETATM   16  N7  UNL     1    -128.628  31.946 129.041  1.00  0.00    -0.022 N 
HETATM   17  C11 UNL     1    -129.813  32.280 128.505  1.00  0.00     0.707 A 
ATOM     18  H7  UNL     1    -128.585  31.680 130.025  1.00  0.00     0.203 HD
HETATM   19  N9  UNL     1    -129.802  32.619 127.206  1.00  0.00    -0.021 N 
ATOM     20  H9  UNL     1    -130.686  32.878 126.769  1.00  0.00     0.203 HD
BRANCH  14  21
HETATM   21  N6  UNL     1    -126.372  31.612 128.911  1.00  0.00    -0.234 N 
ATOM     22  H62 UNL     1    -125.492  31.867 128.463  1.00  0.00     0.174 HD
ATOM     23  H61 UNL     1    -126.370  31.109 129.798  1.00  0.00     0.174 HD
ENDBRANCH  14  21
BRANCH  17  24
HETATM   24  N8  UNL     1    -130.912  32.278 129.193  1.00  0.00    -0.223 N 
ATOM     25  H8  UNL     1    -131.309  31.406 129.540  1.00  0.00     0.177 HD
BRANCH  24  26
HETATM   26  C12 UNL     1    -131.559  33.543 129.457  1.00  0.00     0.164 C 
BRANCH  26  27
HETATM   27  C13 UNL     1    -131.602  33.877 130.919  1.00  0.00     0.184 C 
BRANCH  27  28
HETATM   28  O4  UNL     1    -130.689  34.876 131.246  1.00  0.00    -0.399 OA
ATOM     29  H4  UNL     1    -131.124  35.662 131.556  1.00  0.00     0.209 HD
ENDBRANCH  27  28
ENDBRANCH  26  27
ENDBRANCH  24  26
ENDBRANCH  17  24
ENDBRANCH  10  12
ENDBRANCH   5   9
BRANCH   4  30
HETATM   30  C6  UNL     1    -127.467  31.872 122.125  1.00  0.00     0.290 C 
BRANCH  30  31
HETATM   31  O2  UNL     1    -126.244  31.527 122.669  1.00  0.00    -0.372 OA
ATOM     32  H2  UNL     1    -125.655  31.107 122.053  1.00  0.00     0.212 HD
ENDBRANCH  30  31
BRANCH  30  33
HETATM   33  N3  UNL     1    -127.580  31.214 120.861  1.00  0.00    -0.065 NA
BRANCH  33  34
HETATM   34  O3  UNL     1    -126.867  30.089 120.758  1.00  0.00    -0.293 OA
ATOM     35  H3  UNL     1    -126.973  29.488 121.486  1.00  0.00     0.238 HD
ENDBRANCH  33  34
ENDBRANCH  30  33
ENDBRANCH   4  30
BRANCH   6  36
HETATM   36  O5  UNL     1    -127.947  36.384 123.984  1.00  0.00    -0.345 OA
ATOM     37  H5  UNL     1    -128.764  36.440 124.465  1.00  0.00     0.219 HD
ENDBRANCH   6  36
BRANCH   1  38
HETATM   38  N1  UNL     1    -127.852  35.761 119.426  1.00  0.00    -0.224 N 
ATOM     39  H1  UNL     1    -127.077  36.368 119.157  1.00  0.00     0.177 HD
BRANCH  38  40
HETATM   40  C3  UNL     1    -128.887  35.548 118.467  1.00  0.00     0.169 C 
BRANCH  40  41
HETATM   41  C2  UNL     1    -128.367  35.771 117.038  1.00  0.00     0.132 C 
HETATM   42  C1  UNL     1    -129.471  35.555 116.051  1.00  0.00     0.041 C 
BRANCH  41  43
HETATM   43  O1  UNL     1    -127.415  34.752 116.841  1.00  0.00    -0.394 OA
ATOM     44  H1  UNL     1    -127.284  34.317 117.675  1.00  0.00     0.210 HD
ENDBRANCH  41  43
ENDBRANCH  40  41
ENDBRANCH  38  40
ENDBRANCH   1  38
TORSDOF 16
ENDMDL
MODEL 3
REMARK VINA RESULT: -7.623711476      1.830      2.150
REMARK  16 active torsions:
REMARK  status: ('A' for Active; 'I' for Inactive)
REMARK    1  A    between atoms: C2_2  and  O1_3 
REMARK    2  A    between atoms: C2_2  and  C3_5 
REMARK    3  A    between atoms: C3_5  and  N1_6 
REMARK    4  A    between atoms: N1_6  and  C4_8 
REMARK    5  A    between atoms: C5_11  and  C6_12 
REMARK    6  A    between atoms: C6_12  and  O2_13 
REMARK    7  A    between atoms: C6_12  and  N3_15 
REMARK    8  A    between atoms: N3_15  and  O3_16 
REMARK    9  A    between atoms: C7_18  and  C8_19 
REMARK   10  A    between atoms: N4_20  and  C9_22 
REMARK   11  A    between atoms: C10_25  and  N6_26 
REMARK   12  A    between atoms: C11_31  and  N8_32 
REMARK   13  A    between atoms: N8_32  and  C12_34 
REMARK   14  A    between atoms: C12_34  and  C13_35 
REMARK   15  A    between atoms: C13_35  and  O4_36 
REMARK   16  A    between atoms: C14_40  and  O5_41 
ROOT
HETATM    1  C4  UNL     1    -131.908  29.276 127.591  1.00  0.00     0.680 A 
HETATM    2  N2  UNL     1    -131.372  30.386 128.125  1.00  0.00    -0.191 N 
ATOM      3  H2  UNL     1    -131.551  30.591 129.108  1.00  0.00     0.184 HD
HETATM    4  C5  UNL     1    -130.600  31.249 127.405  1.00  0.00     0.089 A 
HETATM    5  C7  UNL     1    -130.364  30.983 126.096  1.00  0.00     0.058 A 
HETATM    6  C14 UNL     1    -130.948  29.808 125.588  1.00  0.00     0.169 A 
HETATM    7  N10 UNL     1    -131.693  28.980 126.304  1.00  0.00    -0.170 N 
ATOM      8  H10 UNL     1    -132.092  28.140 125.885  1.00  0.00     0.186 HD
ENDROOT
BRANCH   5   9
HETATM    9  C8  UNL     1    -129.655  31.849 125.168  1.00  0.00     0.124 C 
HETATM   10  N4  UNL     1    -128.449  32.223 125.189  1.00  0.00    -0.200 N 
ATOM     11  H4  UNL     1    -127.843  31.902 125.944  1.00  0.00     0.183 HD
BRANCH  10  12
HETATM   12  C9  UNL     1    -127.914  33.083 124.185  1.00  0.00     0.711 A 
HETATM   13  N5  UNL     1    -127.364  34.270 124.475  1.00  0.00    -0.021 N 
HETATM   14  C10 UNL     1    -126.875  35.040 123.497  1.00  0.00     0.705 A 
ATOM     15  H5  UNL     1    -127.317  34.586 125.444  1.00  0.00     0.203 HD
HETATM   16  N7  UNL     1    -126.934  34.626 122.209  1.00  0.00    -0.022 N 
HETATM   17  C11 UNL     1    -127.476  33.445 121.870  1.00  0.00     0.707 A 
ATOM     18  H7  UNL     1    -126.557  35.228 121.477  1.00  0.00     0.203 HD
HETATM   19  N9  UNL     1    -127.955  32.700 122.878  1.00  0.00    -0.021 N 
ATOM     20  H9  UNL     1    -128.374  31.798 122.654  1.00  0.00     0.203 HD
BRANCH  14  21
HETATM   21  N6  UNL     1    -126.330  36.207 123.743  1.00  0.00    -0.234 N 
ATOM     22  H62 UNL     1    -126.931  37.030 123.715  1.00  0.00     0.174 HD
ATOM     23  H61 UNL     1    -125.337  36.303 123.957  1.00  0.00     0.174 HD
ENDBRANCH  14  21
BRANCH  17  24
HETATM   24  N8  UNL     1    -127.539  33.037 120.641  1.00  0.00    -0.223 N 
ATOM     25  H8  UNL     1    -126.770  32.513 120.224  1.00  0.00     0.177 HD
BRANCH  24  26
HETATM   26  C12 UNL     1    -128.724  33.345 119.875  1.00  0.00     0.164 C 
BRANCH  26  27
HETATM   27  C13 UNL     1    -128.511  34.468 118.903  1.00  0.00     0.184 C 
BRANCH  27  28
HETATM   28  O4  UNL     1    -128.329  35.685 119.554  1.00  0.00    -0.399 OA
ATOM     29  H4  UNL     1    -128.861  36.372 119.170  1.00  0.00     0.209 HD
ENDBRANCH  27  28
ENDBRANCH  26  27
ENDBRANCH  24  26
ENDBRANCH  17  24
ENDBRANCH  10  12
ENDBRANCH   5   9
BRANCH   4  30
HETATM   30  C6  UNL     1    -129.965  32.394 128.098  1.00  0.00     0.290 C 
BRANCH  30  31
HETATM   31  O2  UNL     1    -128.644  32.175 128.442  1.00  0.00    -0.372 OA
ATOM     32  H2  UNL     1    -128.408  32.519 129.296  1.00  0.00     0.212 HD
ENDBRANCH  30  31
BRANCH  30  33
HETATM   33  N3  UNL     1    -130.664  32.770 129.286  1.00  0.00    -0.065 NA
BRANCH  33  34
HETATM   34  O3  UNL     1    -131.964  33.025 129.106  1.00  0.00    -0.293 OA
ATOM     35  H3  UNL     1    -132.371  33.511 129.814  1.00  0.00     0.238 HD
ENDBRANCH  33  34
ENDBRANCH  30  33
ENDBRANCH   4  30
BRANCH   6  36
HETATM   36  O5  UNL     1    -130.736  29.475 124.235  1.00  0.00    -0.345 OA
ATOM     37  H5  UNL     1    -131.438  29.053 123.753  1.00  0.00     0.219 HD
ENDBRANCH   6  36
BRANCH   1  38
HETATM   38  N1  UNL     1    -132.638  28.475 128.304  1.00  0.00    -0.224 N 
ATOM     39  H1  UNL     1    -133.475  28.862 128.740  1.00  0.00     0.177 HD
BRANCH  38  40
HETATM   40  C3  UNL     1    -132.359  27.092 128.523  1.00  0.00     0.169 C 
BRANCH  40  41
HETATM   41  C2  UNL     1    -130.947  26.901 129.098  1.00  0.00     0.132 C 
HETATM   42  C1  UNL     1    -130.849  27.552 130.443  1.00  0.00     0.041 C 
BRANCH  41  43
HETATM   43  O1  UNL     1    -130.104  27.608 128.221  1.00  0.00    -0.394 OA
ATOM     44  H1  UNL     1    -130.018  27.093 127.428  1.00  0.00     0.210 HD
ENDBRANCH  41  43
ENDBRANCH  40  41
ENDBRANCH  38  40
ENDBRANCH   1  38
TORSDOF 16
ENDMDL
MODEL 4
REMARK VINA RESULT: -7.520183073      2.540      9.100
REMARK  16 active torsions:
REMARK  status: ('A' for Active; 'I' for Inactive)
REMARK    1  A    between atoms: C2_2  and  O1_3 
REMARK    2  A    between atoms: C2_2  and  C3_5 
REMARK    3  A    between atoms: C3_5  and  N1_6 
REMARK    4  A    between atoms: N1_6  and  C4_8 
REMARK    5  A    between atoms: C5_11  and  C6_12 
REMARK    6  A    between atoms: C6_12  and  O2_13 
REMARK    7  A    between atoms: C6_12  and  N3_15 
REMARK    8  A    between atoms: N3_15  and  O3_16 
REMARK    9  A    between atoms: C7_18  and  C8_19 
REMARK   10  A    between atoms: N4_20  and  C9_22 
REMARK   11  A    between atoms: C10_25  and  N6_26 
REMARK   12  A    between atoms: C11_31  and  N8_32 
REMARK   13  A    between atoms: N8_32  and  C12_34 
REMARK   14  A    between atoms: C12_34  and  C13_35 
REMARK   15  A    between atoms: C13_35  and  O4_36 
REMARK   16  A    between atoms: C14_40  and  O5_41 
ROOT
HETATM    1  C4  UNL     1    -127.791  35.242 120.557  1.00  0.00     0.680 A 
HETATM    2  N2  UNL     1    -127.668  33.916 120.725  1.00  0.00    -0.191 N 
ATOM      3  H2  UNL     1    -127.547  33.327 119.901  1.00  0.00     0.184 HD
HETATM    4  C5  UNL     1    -127.697  33.324 121.953  1.00  0.00     0.089 A 
HETATM    5  C7  UNL     1    -127.862  34.102 123.053  1.00  0.00     0.058 A 
HETATM    6  C14 UNL     1    -127.985  35.484 122.820  1.00  0.00     0.169 A 
HETATM    7  N10 UNL     1    -127.951  36.040 121.619  1.00  0.00    -0.170 N 
ATOM      8  H10 UNL     1    -128.045  37.050 121.507  1.00  0.00     0.186 HD
ENDROOT
BRANCH   5   9
HETATM    9  C8  UNL     1    -128.020  33.623 124.417  1.00  0.00     0.124 C 
HETATM   10  N4  UNL     1    -128.934  32.905 124.909  1.00  0.00    -0.200 N 
ATOM     11  H4  UNL     1    -129.695  32.588 124.308  1.00  0.00     0.183 HD
BRANCH  10  12
HETATM   12  C9  UNL     1    -128.929  32.525 126.284  1.00  0.00     0.711 A 
HETATM   13  N5  UNL     1    -127.808  32.496 127.017  1.00  0.00    -0.021 N 
HETATM   14  C10 UNL     1    -127.855  32.133 128.303  1.00  0.00     0.705 A 
ATOM     15  H5  UNL     1    -126.916  32.752 126.593  1.00  0.00     0.203 HD
HETATM   16  N7  UNL     1    -129.036  31.791 128.872  1.00  0.00    -0.022 N 
HETATM   17  C11 UNL     1    -130.186  31.805 128.177  1.00  0.00     0.707 A 
ATOM     18  H7  UNL     1    -129.052  31.516 129.854  1.00  0.00     0.203 HD
HETATM   19  N9  UNL     1    -130.098  32.175 126.890  1.00  0.00    -0.021 N 
ATOM     20  H9  UNL     1    -130.953  32.195 126.336  1.00  0.00     0.203 HD
BRANCH  14  21
HETATM   21  N6  UNL     1    -126.779  32.093 129.051  1.00  0.00    -0.234 N 
ATOM     22  H62 UNL     1    -126.836  32.484 129.991  1.00  0.00     0.174 HD
ATOM     23  H61 UNL     1    -125.907  31.685 128.716  1.00  0.00     0.174 HD
ENDBRANCH  14  21
BRANCH  17  24
HETATM   24  N8  UNL     1    -131.322  31.480 128.710  1.00  0.00    -0.223 N 
ATOM     25  H8  UNL     1    -131.374  31.169 129.680  1.00  0.00     0.177 HD
BRANCH  24  26
HETATM   26  C12 UNL     1    -132.513  31.569 127.897  1.00  0.00     0.164 C 
BRANCH  26  27
HETATM   27  C13 UNL     1    -133.130  30.229 127.625  1.00  0.00     0.184 C 
BRANCH  27  28
HETATM   28  O4  UNL     1    -134.310  30.343 126.896  1.00  0.00    -0.399 OA
ATOM     29  H4  UNL     1    -134.167  30.193 125.969  1.00  0.00     0.209 HD
ENDBRANCH  27  28
ENDBRANCH  26  27
ENDBRANCH  24  26
ENDBRANCH  17  24
ENDBRANCH  10  12
ENDBRANCH   5   9
BRANCH   4  30
HETATM   30  C6  UNL     1    -127.450  31.866 122.056  1.00  0.00     0.290 C 
BRANCH  30  31
HETATM   31  O2  UNL     1    -126.256  31.544 122.672  1.00  0.00    -0.372 OA
ATOM     32  H2  UNL     1    -125.554  32.159 122.494  1.00  0.00     0.212 HD
ENDBRANCH  30  31
BRANCH  30  33
HETATM   33  N3  UNL     1    -127.468  31.219 120.782  1.00  0.00    -0.065 NA
BRANCH  33  34
HETATM   34  O3  UNL     1    -127.770  29.918 120.826  1.00  0.00    -0.293 OA
ATOM     35  H3  UNL     1    -127.837  29.559 121.703  1.00  0.00     0.238 HD
ENDBRANCH  33  34
ENDBRANCH  30  33
ENDBRANCH   4  30
BRANCH   6  36
HETATM   36  O5  UNL     1    -128.155  36.345 123.922  1.00  0.00    -0.345 OA
ATOM     37  H5  UNL     1    -129.018  36.704 124.093  1.00  0.00     0.219 HD
ENDBRANCH   6  36
BRANCH   1  38
HETATM   38  N1  UNL     1    -127.758  35.774 119.374  1.00  0.00    -0.224 N 
ATOM     39  H1  UNL     1    -126.861  36.130 119.042  1.00  0.00     0.177 HD
BRANCH  38  40
HETATM   40  C3  UNL     1    -128.882  35.898 118.503  1.00  0.00     0.169 C 
BRANCH  40  41
HETATM   41  C2  UNL     1    -128.439  35.894 117.031  1.00  0.00     0.132 C 
HETATM   42  C1  UNL     1    -129.607  35.589 116.146  1.00  0.00     0.041 C 
BRANCH  41  43
HETATM   43  O1  UNL     1    -127.537  34.818 116.932  1.00  0.00    -0.394 OA
ATOM     44  H1  UNL     1    -126.717  35.094 117.323  1.00  0.00     0.210 HD
ENDBRANCH  41  43
ENDBRANCH  40  41
ENDBRANCH  38  40
ENDBRANCH   1  38
TORSDOF 16
ENDMDL
MODEL 5
REMARK VINA RESULT: -7.480145433      2.264      9.171
REMARK  16 active torsions:
REMARK  status: ('A' for Active; 'I' for Inactive)
REMARK    1  A    between atoms: C2_2  and  O1_3 
REMARK    2  A    between atoms: C2_2  and  C3_5 
REMARK    3  A    between atoms: C3_5  and  N1_6 
REMARK    4  A    between atoms: N1_6  and  C4_8 
REMARK    5  A    between atoms: C5_11  and  C6_12 
REMARK    6  A    between atoms: C6_12  and  O2_13 
REMARK    7  A    between atoms: C6_12  and  N3_15 
REMARK    8  A    between atoms: N3_15  and  O3_16 
REMARK    9  A    between atoms: C7_18  and  C8_19 
REMARK   10  A    between atoms: N4_20  and  C9_22 
REMARK   11  A    between atoms: C10_25  and  N6_26 
REMARK   12  A    between atoms: C11_31  and  N8_32 
REMARK   13  A    between atoms: N8_32  and  C12_34 
REMARK   14  A    between atoms: C12_34  and  C13_35 
REMARK   15  A    between atoms: C13_35  and  O4_36 
REMARK   16  A    between atoms: C14_40  and  O5_41 
ROOT
HETATM    1  C4  UNL     1    -127.954  34.018 119.591  1.00  0.00     0.680 A 
HETATM    2  N2  UNL     1    -127.714  32.734 119.900  1.00  0.00    -0.191 N 
ATOM      3  H2  UNL     1    -127.613  32.059 119.141  1.00  0.00     0.184 HD
HETATM    4  C5  UNL     1    -127.600  32.295 121.186  1.00  0.00     0.089 A 
HETATM    5  C7  UNL     1    -127.739  33.188 122.198  1.00  0.00     0.058 A 
HETATM    6  C14 UNL     1    -127.989  34.519 121.819  1.00  0.00     0.169 A 
HETATM    7  N10 UNL     1    -128.093  34.926 120.564  1.00  0.00    -0.170 N 
ATOM      8  H10 UNL     1    -128.274  35.906 120.345  1.00  0.00     0.186 HD
ENDROOT
BRANCH   5   9
HETATM    9  C8  UNL     1    -127.751  32.868 123.617  1.00  0.00     0.124 C 
HETATM   10  N4  UNL     1    -128.732  32.786 124.407  1.00  0.00    -0.200 N 
ATOM     11  H4  UNL     1    -129.672  32.958 124.052  1.00  0.00     0.183 HD
BRANCH  10  12
HETATM   12  C9  UNL     1    -128.558  32.457 125.785  1.00  0.00     0.711 A 
HETATM   13  N5  UNL     1    -127.464  32.810 126.475  1.00  0.00    -0.021 N 
HETATM   14  C10 UNL     1    -127.349  32.478 127.765  1.00  0.00     0.705 A 
ATOM     15  H5  UNL     1    -126.719  33.333 126.015  1.00  0.00     0.203 HD
HETATM   16  N7  UNL     1    -128.334  31.783 128.381  1.00  0.00    -0.022 N 
HETATM   17  C11 UNL     1    -129.448  31.407 127.731  1.00  0.00     0.707 A 
ATOM     18  H7  UNL     1    -128.227  31.538 129.365  1.00  0.00     0.203 HD
HETATM   19  N9  UNL     1    -129.528  31.759 126.438  1.00  0.00    -0.021 N 
ATOM     20  H9  UNL     1    -130.361  31.488 125.916  1.00  0.00     0.203 HD
BRANCH  14  21
HETATM   21  N6  UNL     1    -126.294  32.805 128.471  1.00  0.00    -0.234 N 
ATOM     22  H62 UNL     1    -126.207  33.774 128.778  1.00  0.00     0.174 HD
ATOM     23  H61 UNL     1    -125.577  32.123 128.715  1.00  0.00     0.174 HD
ENDBRANCH  14  21
BRANCH  17  24
HETATM   24  N8  UNL     1    -130.398  30.741 128.310  1.00  0.00    -0.223 N 
ATOM     25  H8  UNL     1    -130.485  30.732 129.326  1.00  0.00     0.177 HD
BRANCH  24  26
HETATM   26  C12 UNL     1    -131.330  30.013 127.480  1.00  0.00     0.164 C 
BRANCH  26  27
HETATM   27  C13 UNL     1    -131.349  28.544 127.783  1.00  0.00     0.184 C 
BRANCH  27  28
HETATM   28  O4  UNL     1    -130.068  28.001 127.785  1.00  0.00    -0.399 OA
ATOM     29  H4  UNL     1    -129.640  28.112 128.626  1.00  0.00     0.209 HD
ENDBRANCH  27  28
ENDBRANCH  26  27
ENDBRANCH  24  26
ENDBRANCH  17  24
ENDBRANCH  10  12
ENDBRANCH   5   9
BRANCH   4  30
HETATM   30  C6  UNL     1    -127.232  30.881 121.434  1.00  0.00     0.290 C 
BRANCH  30  31
HETATM   31  O2  UNL     1    -127.985  29.974 120.713  1.00  0.00    -0.372 OA
ATOM     32  H2  UNL     1    -128.690  29.578 121.211  1.00  0.00     0.212 HD
ENDBRANCH  30  31
BRANCH  30  33
HETATM   33  N3  UNL     1    -127.332  30.525 122.814  1.00  0.00    -0.065 NA
BRANCH  33  34
HETATM   34  O3  UNL     1    -128.346  29.704 123.102  1.00  0.00    -0.293 OA
ATOM     35  H3  UNL     1    -128.808  29.915 123.905  1.00  0.00     0.238 HD
ENDBRANCH  33  34
ENDBRANCH  30  33
ENDBRANCH   4  30
BRANCH   6  36
HETATM   36  O5  UNL     1    -128.139  35.495 122.825  1.00  0.00    -0.345 OA
ATOM     37  H5  UNL     1    -127.959  36.403 122.612  1.00  0.00     0.219 HD
ENDBRANCH   6  36
BRANCH   1  38
HETATM   38  N1  UNL     1    -128.057  34.403 118.357  1.00  0.00    -0.224 N 
ATOM     39  H1  UNL     1    -127.554  33.863 117.651  1.00  0.00     0.177 HD
BRANCH  38  40
HETATM   40  C3  UNL     1    -128.818  35.524 117.910  1.00  0.00     0.169 C 
BRANCH  40  41
HETATM   41  C2  UNL     1    -128.882  35.570 116.376  1.00  0.00     0.132 C 
HETATM   42  C1  UNL     1    -128.229  36.820 115.873  1.00  0.00     0.041 C 
BRANCH  41  43
HETATM   43  O1  UNL     1    -130.254  35.657 116.077  1.00  0.00    -0.394 OA
ATOM     44  H1  UNL     1    -130.645  34.814 116.272  1.00  0.00     0.210 HD
ENDBRANCH  41  43
ENDBRANCH  40  41
ENDBRANCH  38  40
ENDBRANCH   1  38
TORSDOF 16
ENDMDL
