MODEL 1
REMARK VINA RESULT: -6.466755532      0.000      0.000
REMARK  2 active torsions:
REMARK  status: ('A' for Active; 'I' for Inactive)
REMARK    1  A    between atoms: C2_2  and  C3_3 
REMARK    2  A    between atoms: C6_6  and  C7_7 
REMARK       I    between atoms: C7_7  and  N1_9 
ROOT
HETATM    1  C7  UNL     1      12.856 -20.551   5.680  1.00  0.00     0.228 C 
HETATM    2  O1  UNL     1      13.649 -20.610   4.705  1.00  0.00    -0.273 OA
HETATM    3  N1  UNL     1      12.967 -21.427   6.777  1.00  0.00    -0.303 N 
ATOM      4  H1  UNL     1      13.084 -21.000   7.696  1.00  0.00     0.171 HD
HETATM    5  C8  UNL     1      12.936 -22.686   6.739  1.00  0.00     0.203 C 
HETATM    6  N2  UNL     1      13.061 -23.436   7.931  1.00  0.00    -0.066 NA
HETATM    7  N3  UNL     1      12.779 -23.373   5.511  1.00  0.00    -0.066 NA
ENDROOT
BRANCH   1   8
HETATM    8  C6  UNL     1      11.757 -19.550   5.726  1.00  0.00     0.086 C 
HETATM    9  C3  UNL     1      11.390 -18.945   4.391  1.00  0.00     0.020 C 
HETATM   10  C4  UNL     1       9.933 -19.224   4.765  1.00  0.00     0.010 C 
HETATM   11  C5  UNL     1      10.414 -20.294   5.759  1.00  0.00     0.015 C 
BRANCH   9  12
HETATM   12  C2  UNL     1      11.690 -17.503   4.263  1.00  0.00    -0.031 C 
HETATM   13  C1  UNL     1      12.931 -17.117   4.008  1.00  0.00     0.007 C 
ENDBRANCH   9  12
ENDBRANCH   1   8
TORSDOF 2
ENDMDL
MODEL 2
REMARK VINA RESULT: -4.951228326      2.791      4.552
REMARK  2 active torsions:
REMARK  status: ('A' for Active; 'I' for Inactive)
REMARK    1  A    between atoms: C2_2  and  C3_3 
REMARK    2  A    between atoms: C6_6  and  C7_7 
REMARK       I    between atoms: C7_7  and  N1_9 
ROOT
HETATM    1  C7  UNL     1      12.965 -19.527   4.596  1.00  0.00     0.228 C 
HETATM    2  O1  UNL     1      14.108 -19.679   4.092  1.00  0.00    -0.273 OA
HETATM    3  N1  UNL     1      12.033 -18.620   4.054  1.00  0.00    -0.303 N 
ATOM      4  H1  UNL     1      11.132 -19.004   3.769  1.00  0.00     0.171 HD
HETATM    5  C8  UNL     1      12.200 -17.383   3.886  1.00  0.00     0.203 C 
HETATM    6  N2  UNL     1      11.166 -16.597   3.327  1.00  0.00    -0.066 NA
HETATM    7  N3  UNL     1      13.417 -16.757   4.249  1.00  0.00    -0.066 NA
ENDROOT
BRANCH   1   8
HETATM    8  C6  UNL     1      12.536 -20.299   5.792  1.00  0.00     0.086 C 
HETATM    9  C3  UNL     1      11.295 -21.140   5.596  1.00  0.00     0.020 C 
HETATM   10  C4  UNL     1      12.070 -22.280   6.257  1.00  0.00     0.010 C 
HETATM   11  C5  UNL     1      13.386 -21.575   5.885  1.00  0.00     0.015 C 
BRANCH   9  12
HETATM   12  C2  UNL     1      10.123 -20.702   6.383  1.00  0.00    -0.031 C 
HETATM   13  C1  UNL     1       9.339 -19.747   5.906  1.00  0.00     0.007 C 
ENDBRANCH   9  12
ENDBRANCH   1   8
TORSDOF 2
ENDMDL
MODEL 3
REMARK VINA RESULT: -4.716983460      2.885      4.790
REMARK  2 active torsions:
REMARK  status: ('A' for Active; 'I' for Inactive)
REMARK    1  A    between atoms: C2_2  and  C3_3 
REMARK    2  A    between atoms: C6_6  and  C7_7 
REMARK       I    between atoms: C7_7  and  N1_9 
ROOT
HETATM    1  C7  UNL     1      12.645 -19.480   4.436  1.00  0.00     0.228 C 
HETATM    2  O1  UNL     1      13.889 -19.441   4.621  1.00  0.00    -0.273 OA
HETATM    3  N1  UNL     1      11.962 -18.437   3.779  1.00  0.00    -0.303 N 
ATOM      4  H1  UNL     1      11.427 -18.692   2.948  1.00  0.00     0.171 HD
HETATM    5  C8  UNL     1      11.945 -17.222   4.112  1.00  0.00     0.203 C 
HETATM    6  N2  UNL     1      11.211 -16.287   3.349  1.00  0.00    -0.066 NA
HETATM    7  N3  UNL     1      12.657 -16.771   5.249  1.00  0.00    -0.066 NA
ENDROOT
BRANCH   1   8
HETATM    8  C6  UNL     1      11.826 -20.630   4.903  1.00  0.00     0.086 C 
HETATM    9  C3  UNL     1      12.205 -21.170   6.264  1.00  0.00     0.020 C 
HETATM   10  C4  UNL     1      10.712 -21.138   6.594  1.00  0.00     0.010 C 
HETATM   11  C5  UNL     1      10.509 -20.094   5.483  1.00  0.00     0.015 C 
BRANCH   9  12
HETATM   12  C2  UNL     1      12.766 -22.538   6.250  1.00  0.00    -0.031 C 
HETATM   13  C1  UNL     1      13.334 -23.019   7.346  1.00  0.00     0.007 C 
ENDBRANCH   9  12
ENDBRANCH   1   8
TORSDOF 2
ENDMDL
MODEL 4
REMARK VINA RESULT: -4.676582635      3.228      4.618
REMARK  2 active torsions:
REMARK  status: ('A' for Active; 'I' for Inactive)
REMARK    1  A    between atoms: C2_2  and  C3_3 
REMARK    2  A    between atoms: C6_6  and  C7_7 
REMARK       I    between atoms: C7_7  and  N1_9 
ROOT
HETATM    1  C7  UNL     1      11.152 -18.289   4.281  1.00  0.00     0.228 C 
HETATM    2  O1  UNL     1      10.669 -17.861   3.200  1.00  0.00    -0.273 OA
HETATM    3  N1  UNL     1      11.797 -17.431   5.193  1.00  0.00    -0.303 N 
ATOM      4  H1  UNL     1      11.419 -17.401   6.141  1.00  0.00     0.171 HD
HETATM    5  C8  UNL     1      12.794 -16.697   4.958  1.00  0.00     0.203 C 
HETATM    6  N2  UNL     1      13.334 -15.885   5.982  1.00  0.00    -0.066 NA
HETATM    7  N3  UNL     1      13.388 -16.668   3.674  1.00  0.00    -0.066 NA
ENDROOT
BRANCH   1   8
HETATM    8  C6  UNL     1      11.066 -19.725   4.653  1.00  0.00     0.086 C 
HETATM    9  C3  UNL     1      11.741 -20.087   5.957  1.00  0.00     0.020 C 
HETATM   10  C4  UNL     1      10.463 -20.852   6.305  1.00  0.00     0.010 C 
HETATM   11  C5  UNL     1       9.694 -19.988   5.292  1.00  0.00     0.015 C 
BRANCH   9  12
HETATM   12  C2  UNL     1      12.922 -20.965   5.817  1.00  0.00    -0.031 C 
HETATM   13  C1  UNL     1      12.906 -22.170   6.366  1.00  0.00     0.007 C 
ENDBRANCH   9  12
ENDBRANCH   1   8
TORSDOF 2
ENDMDL
MODEL 5
REMARK VINA RESULT: -4.670315428      6.820      9.139
REMARK  2 active torsions:
REMARK  status: ('A' for Active; 'I' for Inactive)
REMARK    1  A    between atoms: C2_2  and  C3_3 
REMARK    2  A    between atoms: C6_6  and  C7_7 
REMARK       I    between atoms: C7_7  and  N1_9 
ROOT
HETATM    1  C7  UNL     1      10.671 -26.904  10.004  1.00  0.00     0.228 C 
HETATM    2  O1  UNL     1      11.093 -27.432  11.065  1.00  0.00    -0.273 OA
HETATM    3  N1  UNL     1      11.494 -26.083   9.209  1.00  0.00    -0.303 N 
ATOM      4  H1  UNL     1      11.623 -26.365   8.237  1.00  0.00     0.171 HD
HETATM    5  C8  UNL     1      12.088 -25.034   9.577  1.00  0.00     0.203 C 
HETATM    6  N2  UNL     1      12.885 -24.311   8.660  1.00  0.00    -0.066 NA
HETATM    7  N3  UNL     1      11.973 -24.562  10.906  1.00  0.00    -0.066 NA
ENDROOT
BRANCH   1   8
HETATM    8  C6  UNL     1       9.279 -27.121   9.530  1.00  0.00     0.086 C 
HETATM    9  C3  UNL     1       8.726 -28.504   9.788  1.00  0.00     0.020 C 
HETATM   10  C4  UNL     1       7.474 -27.807  10.324  1.00  0.00     0.010 C 
HETATM   11  C5  UNL     1       8.309 -26.539  10.569  1.00  0.00     0.015 C 
BRANCH   9  12
HETATM   12  C2  UNL     1       8.468 -29.302   8.571  1.00  0.00    -0.031 C 
HETATM   13  C1  UNL     1       7.353 -30.013   8.483  1.00  0.00     0.007 C 
ENDBRANCH   9  12
ENDBRANCH   1   8
TORSDOF 2
ENDMDL
