MODEL 1
REMARK VINA RESULT: -5.845915214      0.000      0.000
REMARK  3 active torsions:
REMARK  status: ('A' for Active; 'I' for Inactive)
REMARK    1  A    between atoms: C2_2  and  C3_10 
REMARK    2  A    between atoms: N1_3  and  N2_5 
REMARK    3  A    between atoms: N2_5  and  N3_7 
ROOT
HETATM    1  C1  UNL     1       9.913 -18.074   3.458  1.00  0.00     0.065 C 
HETATM    2  C2  UNL     1      11.165 -18.045   4.312  1.00  0.00     0.005 C 
HETATM    3  N1  UNL     1      11.944 -17.099   4.099  1.00  0.00    -0.295 N 
ATOM      4  H1  UNL     1      11.611 -16.475   3.365  1.00  0.00     0.187 HD
ENDROOT
BRANCH   2   5
HETATM    5  C3  UNL     1      11.316 -19.113   5.279  1.00  0.00     0.032 C 
HETATM    6  C4  UNL     1      10.216 -20.110   5.350  1.00  0.00     0.010 C 
HETATM    7  C5  UNL     1      10.572 -21.044   6.529  1.00  0.00     0.001 C 
HETATM    8  C6  UNL     1      11.744 -21.867   6.052  1.00  0.00     0.000 C 
HETATM    9  C7  UNL     1      12.935 -20.899   6.015  1.00  0.00     0.001 C 
HETATM   10  C8  UNL     1      12.655 -19.800   5.051  1.00  0.00     0.010 C 
ENDBRANCH   2   5
BRANCH   3  11
HETATM   11  N2  UNL     1      13.136 -16.704   4.617  1.00  0.00    -0.249 N 
ATOM     12  H2  UNL     1      13.976 -16.856   4.059  1.00  0.00     0.207 HD
BRANCH  11  13
HETATM   13  N3  UNL     1      13.267 -16.148   5.770  1.00  0.00    -0.331 N 
ATOM     14  H32 UNL     1      12.753 -15.281   5.927  1.00  0.00     0.178 HD
ATOM     15  H31 UNL     1      13.849 -16.523   6.519  1.00  0.00     0.178 HD
ENDBRANCH  11  13
ENDBRANCH   3  11
TORSDOF 3
ENDMDL
MODEL 2
REMARK VINA RESULT: -5.705883175      3.133      4.338
REMARK  3 active torsions:
REMARK  status: ('A' for Active; 'I' for Inactive)
REMARK    1  A    between atoms: C2_2  and  C3_10 
REMARK    2  A    between atoms: N1_3  and  N2_5 
REMARK    3  A    between atoms: N2_5  and  N3_7 
ROOT
HETATM    1  C1  UNL     1       9.488 -20.365   5.804  1.00  0.00     0.065 C 
HETATM    2  C2  UNL     1      11.000 -20.419   5.909  1.00  0.00     0.005 C 
HETATM    3  N1  UNL     1      11.471 -21.454   6.414  1.00  0.00    -0.295 N 
ATOM      4  H1  UNL     1      10.749 -22.120   6.685  1.00  0.00     0.187 HD
ENDROOT
BRANCH   2   5
HETATM    5  C3  UNL     1      11.726 -19.268   5.411  1.00  0.00     0.032 C 
HETATM    6  C4  UNL     1      12.961 -19.544   4.634  1.00  0.00     0.010 C 
HETATM    7  C5  UNL     1      13.590 -18.163   4.341  1.00  0.00     0.001 C 
HETATM    8  C6  UNL     1      12.686 -17.516   3.321  1.00  0.00     0.000 C 
HETATM    9  C7  UNL     1      11.405 -17.151   4.084  1.00  0.00     0.001 C 
HETATM   10  C8  UNL     1      10.772 -18.387   4.618  1.00  0.00     0.010 C 
ENDBRANCH   2   5
BRANCH   3  11
HETATM   11  N2  UNL     1      12.723 -21.901   6.688  1.00  0.00    -0.249 N 
ATOM     12  H2  UNL     1      13.346 -21.292   7.219  1.00  0.00     0.207 HD
BRANCH  11  13
HETATM   13  N3  UNL     1      13.170 -23.050   6.318  1.00  0.00    -0.331 N 
ATOM     14  H32 UNL     1      12.480 -23.759   6.073  1.00  0.00     0.178 HD
ATOM     15  H31 UNL     1      14.162 -23.281   6.260  1.00  0.00     0.178 HD
ENDBRANCH  11  13
ENDBRANCH   3  11
TORSDOF 3
ENDMDL
MODEL 3
REMARK VINA RESULT: -5.630365567      3.174      4.227
REMARK  3 active torsions:
REMARK  status: ('A' for Active; 'I' for Inactive)
REMARK    1  A    between atoms: C2_2  and  C3_10 
REMARK    2  A    between atoms: N1_3  and  N2_5 
REMARK    3  A    between atoms: N2_5  and  N3_7 
ROOT
HETATM    1  C1  UNL     1       9.766 -20.472   6.523  1.00  0.00     0.065 C 
HETATM    2  C2  UNL     1      11.117 -20.628   5.854  1.00  0.00     0.005 C 
HETATM    3  N1  UNL     1      11.789 -21.611   6.214  1.00  0.00    -0.295 N 
ATOM      4  H1  UNL     1      11.314 -22.173   6.920  1.00  0.00     0.187 HD
ENDROOT
BRANCH   2   5
HETATM    5  C3  UNL     1      11.476 -19.624   4.873  1.00  0.00     0.032 C 
HETATM    6  C4  UNL     1      10.429 -18.630   4.522  1.00  0.00     0.010 C 
HETATM    7  C5  UNL     1      11.028 -17.774   3.383  1.00  0.00     0.001 C 
HETATM    8  C6  UNL     1      12.094 -16.927   4.034  1.00  0.00     0.000 C 
HETATM    9  C7  UNL     1      13.238 -17.895   4.368  1.00  0.00     0.001 C 
HETATM   10  C8  UNL     1      12.753 -18.929   5.322  1.00  0.00     0.010 C 
ENDBRANCH   2   5
BRANCH   3  11
HETATM   11  N2  UNL     1      13.008 -22.111   5.885  1.00  0.00    -0.249 N 
ATOM     12  H2  UNL     1      13.637 -21.522   5.337  1.00  0.00     0.207 HD
BRANCH  11  13
HETATM   13  N3  UNL     1      13.417 -23.283   6.222  1.00  0.00    -0.331 N 
ATOM     14  H32 UNL     1      12.704 -23.975   6.452  1.00  0.00     0.178 HD
ATOM     15  H31 UNL     1      14.401 -23.550   6.271  1.00  0.00     0.178 HD
ENDBRANCH  11  13
ENDBRANCH   3  11
TORSDOF 3
ENDMDL
MODEL 4
REMARK VINA RESULT: -5.428804696      7.563      8.550
REMARK  3 active torsions:
REMARK  status: ('A' for Active; 'I' for Inactive)
REMARK    1  A    between atoms: C2_2  and  C3_10 
REMARK    2  A    between atoms: N1_3  and  N2_5 
REMARK    3  A    between atoms: N2_5  and  N3_7 
ROOT
HETATM    1  C1  UNL     1      11.525 -24.211  12.482  1.00  0.00     0.065 C 
HETATM    2  C2  UNL     1      11.527 -24.445  10.984  1.00  0.00     0.005 C 
HETATM    3  N1  UNL     1      12.540 -24.054  10.377  1.00  0.00    -0.295 N 
ATOM      4  H1  UNL     1      13.228 -23.627  10.996  1.00  0.00     0.187 HD
ENDROOT
BRANCH   2   5
HETATM    5  C3  UNL     1      10.358 -25.096  10.428  1.00  0.00     0.032 C 
HETATM    6  C4  UNL     1      10.479 -26.547  10.134  1.00  0.00     0.010 C 
HETATM    7  C5  UNL     1       9.155 -26.947   9.444  1.00  0.00     0.001 C 
HETATM    8  C6  UNL     1       8.107 -26.907  10.529  1.00  0.00     0.000 C 
HETATM    9  C7  UNL     1       7.893 -25.418  10.836  1.00  0.00     0.001 C 
HETATM   10  C8  UNL     1       9.164 -24.823  11.331  1.00  0.00     0.010 C 
ENDBRANCH   2   5
BRANCH   3  11
HETATM   11  N2  UNL     1      12.942 -24.063   9.080  1.00  0.00    -0.249 N 
ATOM     12  H2  UNL     1      12.640 -24.838   8.489  1.00  0.00     0.207 HD
BRANCH  11  13
HETATM   13  N3  UNL     1      13.683 -23.153   8.552  1.00  0.00    -0.331 N 
ATOM     14  H32 UNL     1      13.337 -22.710   7.701  1.00  0.00     0.178 HD
ATOM     15  H31 UNL     1      14.581 -22.858   8.936  1.00  0.00     0.178 HD
ENDBRANCH  11  13
ENDBRANCH   3  11
TORSDOF 3
ENDMDL
MODEL 5
REMARK VINA RESULT: -5.312072400      1.552      2.126
REMARK  3 active torsions:
REMARK  status: ('A' for Active; 'I' for Inactive)
REMARK    1  A    between atoms: C2_2  and  C3_10 
REMARK    2  A    between atoms: N1_3  and  N2_5 
REMARK    3  A    between atoms: N2_5  and  N3_7 
ROOT
HETATM    1  C1  UNL     1      12.803 -17.674   3.701  1.00  0.00     0.065 C 
HETATM    2  C2  UNL     1      11.491 -18.084   4.340  1.00  0.00     0.005 C 
HETATM    3  N1  UNL     1      10.488 -17.445   3.973  1.00  0.00    -0.295 N 
ATOM      4  H1  UNL     1      10.711 -16.729   3.283  1.00  0.00     0.187 HD
ENDROOT
BRANCH   2   5
HETATM    5  C3  UNL     1      11.546 -19.168   5.299  1.00  0.00     0.032 C 
HETATM    6  C4  UNL     1      10.417 -20.133   5.281  1.00  0.00     0.010 C 
HETATM    7  C5  UNL     1      10.665 -21.092   6.468  1.00  0.00     0.001 C 
HETATM    8  C6  UNL     1      11.843 -21.942   6.059  1.00  0.00     0.000 C 
HETATM    9  C7  UNL     1      13.061 -21.009   6.116  1.00  0.00     0.001 C 
HETATM   10  C8  UNL     1      12.877 -19.890   5.152  1.00  0.00     0.010 C 
ENDBRANCH   2   5
BRANCH   3  11
HETATM   11  N2  UNL     1       9.165 -17.481   4.278  1.00  0.00    -0.249 N 
ATOM     12  H2  UNL     1       8.530 -17.920   3.610  1.00  0.00     0.207 HD
BRANCH  11  13
HETATM   13  N3  UNL     1       8.665 -16.994   5.359  1.00  0.00    -0.331 N 
ATOM     14  H32 UNL     1       8.688 -17.587   6.188  1.00  0.00     0.178 HD
ATOM     15  H31 UNL     1       8.255 -16.062   5.425  1.00  0.00     0.178 HD
ENDBRANCH  11  13
ENDBRANCH   3  11
TORSDOF 3
ENDMDL
