MODEL 1
REMARK VINA RESULT: -5.042496427      0.000      0.000
REMARK  2 active torsions:
REMARK  status: ('A' for Active; 'I' for Inactive)
REMARK    1  A    between atoms: N1_1  and  C1_5 
REMARK    2  A    between atoms: C1_5  and  C2_6 
ROOT
HETATM    1  C2  UNL     1      12.203 -20.274   5.919  1.00  0.00     0.215 C 
HETATM    2  C3  UNL     1      10.881 -21.051   5.998  1.00  0.00     0.037 C 
HETATM    3  C4  UNL     1       9.908 -19.891   5.754  1.00  0.00     0.030 C 
HETATM    4  C5  UNL     1      10.603 -19.208   4.597  1.00  0.00     0.238 C 
HETATM    5  N2  UNL     1      11.983 -19.197   5.026  1.00  0.00    -0.061 N 
HETATM    6  C6  UNL     1      12.253 -17.939   5.727  1.00  0.00     0.238 C 
HETATM    7  C7  UNL     1      12.337 -16.939   4.601  1.00  0.00     0.029 C 
HETATM    8  C8  UNL     1      13.060 -17.696   3.537  1.00  0.00     0.029 C 
HETATM    9  C9  UNL     1      12.793 -19.158   3.849  1.00  0.00     0.238 C 
ENDROOT
BRANCH   1  10
HETATM   10  C1  UNL     1      13.252 -21.258   5.508  1.00  0.00     0.263 C 
BRANCH  10  11
HETATM   11  N1  UNL     1      12.900 -22.607   5.894  1.00  0.00    -0.077 N 
ATOM     12  H13 UNL     1      13.667 -23.067   6.384  1.00  0.00     0.274 HD
ATOM     13  H12 UNL     1      12.207 -22.612   6.642  1.00  0.00     0.274 HD
ATOM     14  H11 UNL     1      12.586 -23.158   5.094  1.00  0.00     0.274 HD
ENDBRANCH  10  11
ENDBRANCH   1  10
TORSDOF 2
ENDMDL
MODEL 2
REMARK VINA RESULT: -4.058956998      8.049      9.814
REMARK  2 active torsions:
REMARK  status: ('A' for Active; 'I' for Inactive)
REMARK    1  A    between atoms: N1_1  and  C1_5 
REMARK    2  A    between atoms: C1_5  and  C2_6 
ROOT
HETATM    1  C2  UNL     1      13.024 -27.818  10.713  1.00  0.00     0.215 C 
HETATM    2  C3  UNL     1      13.946 -27.952  11.935  1.00  0.00     0.037 C 
HETATM    3  C4  UNL     1      13.901 -26.500  12.427  1.00  0.00     0.030 C 
HETATM    4  C5  UNL     1      12.416 -26.234  12.315  1.00  0.00     0.238 C 
HETATM    5  N2  UNL     1      12.096 -26.792  11.022  1.00  0.00    -0.061 N 
HETATM    6  C6  UNL     1      12.203 -25.739  10.009  1.00  0.00     0.238 C 
HETATM    7  C7  UNL     1      10.955 -24.924  10.240  1.00  0.00     0.029 C 
HETATM    8  C8  UNL     1       9.927 -25.966  10.532  1.00  0.00     0.029 C 
HETATM    9  C9  UNL     1      10.715 -27.158  11.047  1.00  0.00     0.238 C 
ENDROOT
BRANCH   1  10
HETATM   10  C1  UNL     1      12.440 -29.173  10.469  1.00  0.00     0.263 C 
BRANCH  10  11
HETATM   11  N1  UNL     1      13.117 -29.859   9.389  1.00  0.00    -0.077 N 
ATOM     12  H13 UNL     1      13.195 -29.266   8.562  1.00  0.00     0.274 HD
ATOM     13  H12 UNL     1      14.109 -29.984   9.591  1.00  0.00     0.274 HD
ATOM     14  H11 UNL     1      12.667 -30.747   9.167  1.00  0.00     0.274 HD
ENDBRANCH  10  11
ENDBRANCH   1  10
TORSDOF 2
ENDMDL
MODEL 3
REMARK VINA RESULT: -3.946282860      8.067      9.879
REMARK  2 active torsions:
REMARK  status: ('A' for Active; 'I' for Inactive)
REMARK    1  A    between atoms: N1_1  and  C1_5 
REMARK    2  A    between atoms: C1_5  and  C2_6 
ROOT
HETATM    1  C2  UNL     1      10.657 -27.290  10.850  1.00  0.00     0.215 C 
HETATM    2  C3  UNL     1      10.200 -26.391   9.692  1.00  0.00     0.037 C 
HETATM    3  C4  UNL     1      11.167 -25.220   9.902  1.00  0.00     0.030 C 
HETATM    4  C5  UNL     1      12.453 -25.983  10.133  1.00  0.00     0.238 C 
HETATM    5  N2  UNL     1      12.037 -27.026  11.041  1.00  0.00    -0.061 N 
HETATM    6  C6  UNL     1      12.244 -26.570  12.418  1.00  0.00     0.238 C 
HETATM    7  C7  UNL     1      13.739 -26.679  12.586  1.00  0.00     0.029 C 
HETATM    8  C8  UNL     1      14.062 -27.945  11.866  1.00  0.00     0.029 C 
HETATM    9  C9  UNL     1      12.934 -28.125  10.865  1.00  0.00     0.238 C 
ENDROOT
BRANCH   1  10
HETATM   10  C1  UNL     1      10.309 -28.692  10.466  1.00  0.00     0.263 C 
BRANCH  10  11
HETATM   11  N1  UNL     1       9.977 -28.794   9.061  1.00  0.00    -0.077 N 
ATOM     12  H13 UNL     1       9.315 -28.070   8.782  1.00  0.00     0.274 HD
ATOM     13  H12 UNL     1      10.765 -28.526   8.472  1.00  0.00     0.274 HD
ATOM     14  H11 UNL     1       9.632 -29.724   8.822  1.00  0.00     0.274 HD
ENDBRANCH  10  11
ENDBRANCH   1  10
TORSDOF 2
ENDMDL
MODEL 4
REMARK VINA RESULT: -3.897480740      7.243      9.013
REMARK  2 active torsions:
REMARK  status: ('A' for Active; 'I' for Inactive)
REMARK    1  A    between atoms: N1_1  and  C1_5 
REMARK    2  A    between atoms: C1_5  and  C2_6 
ROOT
HETATM    1  C2  UNL     1      12.273 -25.240  10.929  1.00  0.00     0.215 C 
HETATM    2  C3  UNL     1      13.123 -26.442  11.369  1.00  0.00     0.037 C 
HETATM    3  C4  UNL     1      12.426 -26.752  12.700  1.00  0.00     0.030 C 
HETATM    4  C5  UNL     1      10.980 -26.650  12.266  1.00  0.00     0.238 C 
HETATM    5  N2  UNL     1      10.979 -25.446  11.469  1.00  0.00    -0.061 N 
HETATM    6  C6  UNL     1      10.639 -24.307  12.326  1.00  0.00     0.238 C 
HETATM    7  C7  UNL     1       9.153 -24.471  12.526  1.00  0.00     0.029 C 
HETATM    8  C8  UNL     1       8.683 -24.919  11.182  1.00  0.00     0.029 C 
HETATM    9  C9  UNL     1       9.901 -25.555  10.536  1.00  0.00     0.238 C 
ENDROOT
BRANCH   1  10
HETATM   10  C1  UNL     1      12.356 -25.182   9.437  1.00  0.00     0.263 C 
BRANCH  10  11
HETATM   11  N1  UNL     1      13.056 -23.998   8.987  1.00  0.00    -0.077 N 
ATOM     12  H13 UNL     1      13.954 -24.235   8.564  1.00  0.00     0.274 HD
ATOM     13  H12 UNL     1      12.601 -23.583   8.174  1.00  0.00     0.274 HD
ATOM     14  H11 UNL     1      13.168 -23.318   9.739  1.00  0.00     0.274 HD
ENDBRANCH  10  11
ENDBRANCH   1  10
TORSDOF 2
ENDMDL
MODEL 5
REMARK VINA RESULT: -3.891454530      8.220      9.556
REMARK  2 active torsions:
REMARK  status: ('A' for Active; 'I' for Inactive)
REMARK    1  A    between atoms: N1_1  and  C1_5 
REMARK    2  A    between atoms: C1_5  and  C2_6 
ROOT
HETATM    1  C2  UNL     1      11.137 -24.703  11.254  1.00  0.00     0.215 C 
HETATM    2  C3  UNL     1       9.622 -24.615  11.020  1.00  0.00     0.037 C 
HETATM    3  C4  UNL     1       9.393 -26.006  10.417  1.00  0.00     0.030 C 
HETATM    4  C5  UNL     1      10.214 -26.842  11.374  1.00  0.00     0.238 C 
HETATM    5  N2  UNL     1      11.426 -26.068  11.502  1.00  0.00    -0.061 N 
HETATM    6  C6  UNL     1      12.397 -26.533  10.509  1.00  0.00     0.238 C 
HETATM    7  C7  UNL     1      12.876 -27.838  11.094  1.00  0.00     0.029 C 
HETATM    8  C8  UNL     1      12.967 -27.535  12.552  1.00  0.00     0.029 C 
HETATM    9  C9  UNL     1      12.000 -26.385  12.773  1.00  0.00     0.238 C 
ENDROOT
BRANCH   1  10
HETATM   10  C1  UNL     1      11.453 -23.756  12.368  1.00  0.00     0.263 C 
BRANCH  10  11
HETATM   11  N1  UNL     1      12.492 -22.820  11.995  1.00  0.00    -0.077 N 
ATOM     12  H13 UNL     1      12.745 -22.214  12.775  1.00  0.00     0.274 HD
ATOM     13  H12 UNL     1      13.387 -23.291  11.862  1.00  0.00     0.274 HD
ATOM     14  H11 UNL     1      12.232 -22.277  11.172  1.00  0.00     0.274 HD
ENDBRANCH  10  11
ENDBRANCH   1  10
TORSDOF 2
ENDMDL
