MODEL 1
REMARK VINA RESULT: -4.937442193      0.000      0.000
REMARK  3 active torsions:
REMARK  status: ('A' for Active; 'I' for Inactive)
REMARK    1  A    between atoms: N1_1  and  C1_5 
REMARK    2  A    between atoms: N2_9  and  C5_10 
REMARK    3  A    between atoms: C5_10  and  C6_11 
ROOT
HETATM    1  C1  UNL     1      10.957 -18.883   4.342  1.00  0.00     0.389 C 
HETATM    2  C2  UNL     1      11.595 -17.621   3.736  1.00  0.00     0.047 C 
HETATM    3  C3  UNL     1      12.045 -16.922   4.977  1.00  0.00     0.036 C 
HETATM    4  C4  UNL     1      12.612 -18.105   5.772  1.00  0.00     0.240 C 
HETATM    5  N2  UNL     1      12.169 -19.306   5.059  1.00  0.00    -0.038 N 
HETATM    6  C9  UNL     1      13.071 -19.510   3.971  1.00  0.00     0.240 C 
HETATM    7  C10 UNL     1      12.836 -18.261   3.113  1.00  0.00     0.036 C 
ENDROOT
BRANCH   1   8
HETATM    8  N1  UNL     1       9.876 -18.581   5.214  1.00  0.00    -0.049 N 
ATOM      9  H13 UNL     1      10.206 -18.112   6.057  1.00  0.00     0.276 HD
ATOM     10  H12 UNL     1       9.291 -17.839   4.831  1.00  0.00     0.276 HD
ATOM     11  H11 UNL     1       9.320 -19.404   5.446  1.00  0.00     0.276 HD
ENDBRANCH   1   8
BRANCH   5  12
HETATM   12  C5  UNL     1      11.984 -20.354   5.955  1.00  0.00     0.244 C 
BRANCH  12  13
HETATM   13  C6  UNL     1      12.952 -21.482   5.904  1.00  0.00     0.012 A 
HETATM   14  C7  UNL     1      13.121 -22.198   7.259  1.00  0.00     0.007 A 
HETATM   15  C8  UNL     1      12.580 -22.887   6.046  1.00  0.00     0.007 A 
ENDBRANCH  12  13
ENDBRANCH   5  12
TORSDOF 3
ENDMDL
MODEL 2
REMARK VINA RESULT: -4.912416700      0.916      1.834
REMARK  3 active torsions:
REMARK  status: ('A' for Active; 'I' for Inactive)
REMARK    1  A    between atoms: N1_1  and  C1_5 
REMARK    2  A    between atoms: N2_9  and  C5_10 
REMARK    3  A    between atoms: C5_10  and  C6_11 
ROOT
HETATM    1  C1  UNL     1      11.723 -17.712   5.403  1.00  0.00     0.389 C 
HETATM    2  C2  UNL     1      11.486 -17.263   3.951  1.00  0.00     0.047 C 
HETATM    3  C3  UNL     1      12.607 -17.972   3.262  1.00  0.00     0.036 C 
HETATM    4  C4  UNL     1      12.545 -19.335   3.961  1.00  0.00     0.240 C 
HETATM    5  N2  UNL     1      11.648 -19.151   5.105  1.00  0.00    -0.038 N 
HETATM    6  C9  UNL     1      10.311 -19.257   4.617  1.00  0.00     0.240 C 
HETATM    7  C10 UNL     1      10.215 -18.061   3.662  1.00  0.00     0.036 C 
ENDROOT
BRANCH   1   8
HETATM    8  N1  UNL     1      12.996 -17.316   5.895  1.00  0.00    -0.049 N 
ATOM      9  H13 UNL     1      13.741 -17.873   5.477  1.00  0.00     0.276 HD
ATOM     10  H12 UNL     1      13.258 -16.397   5.537  1.00  0.00     0.276 HD
ATOM     11  H11 UNL     1      13.047 -17.340   6.913  1.00  0.00     0.276 HD
ENDBRANCH   1   8
BRANCH   5  12
HETATM   12  C5  UNL     1      12.027 -19.986   6.151  1.00  0.00     0.244 C 
BRANCH  12  13
HETATM   13  C6  UNL     1      12.865 -21.168   5.817  1.00  0.00     0.012 A 
HETATM   14  C7  UNL     1      13.186 -22.048   7.042  1.00  0.00     0.007 A 
HETATM   15  C8  UNL     1      12.393 -22.549   5.877  1.00  0.00     0.007 A 
ENDBRANCH  12  13
ENDBRANCH   5  12
TORSDOF 3
ENDMDL
MODEL 3
REMARK VINA RESULT: -4.365771304     10.257     11.121
REMARK  3 active torsions:
REMARK  status: ('A' for Active; 'I' for Inactive)
REMARK    1  A    between atoms: N1_1  and  C1_5 
REMARK    2  A    between atoms: N2_9  and  C5_10 
REMARK    3  A    between atoms: C5_10  and  C6_11 
ROOT
HETATM    1  C1  UNL     1       9.209 -28.139   9.051  1.00  0.00     0.389 C 
HETATM    2  C2  UNL     1       7.799 -28.511   9.540  1.00  0.00     0.047 C 
HETATM    3  C3  UNL     1       8.078 -29.824  10.197  1.00  0.00     0.036 C 
HETATM    4  C4  UNL     1       9.387 -29.498  10.925  1.00  0.00     0.240 C 
HETATM    5  N2  UNL     1       9.829 -28.210  10.383  1.00  0.00    -0.038 N 
HETATM    6  C9  UNL     1       9.106 -27.190  11.073  1.00  0.00     0.240 C 
HETATM    7  C10 UNL     1       7.657 -27.478  10.658  1.00  0.00     0.036 C 
ENDROOT
BRANCH   1   8
HETATM    8  N1  UNL     1       9.741 -29.095   8.143  1.00  0.00    -0.049 N 
ATOM      9  H13 UNL     1      10.738 -29.236   8.302  1.00  0.00     0.276 HD
ATOM     10  H12 UNL     1       9.405 -30.033   8.360  1.00  0.00     0.276 HD
ATOM     11  H11 UNL     1       9.555 -28.855   7.170  1.00  0.00     0.276 HD
ENDBRANCH   1   8
BRANCH   5  12
HETATM   12  C5  UNL     1      11.218 -28.138  10.388  1.00  0.00     0.244 C 
BRANCH  12  13
HETATM   13  C6  UNL     1      11.959 -29.212  11.102  1.00  0.00     0.012 A 
HETATM   14  C7  UNL     1      13.250 -29.642  10.378  1.00  0.00     0.007 A 
HETATM   15  C8  UNL     1      13.259 -29.024  11.740  1.00  0.00     0.007 A 
ENDBRANCH  12  13
ENDBRANCH   5  12
TORSDOF 3
ENDMDL
MODEL 4
REMARK VINA RESULT: -4.232415016      9.593     10.593
REMARK  3 active torsions:
REMARK  status: ('A' for Active; 'I' for Inactive)
REMARK    1  A    between atoms: N1_1  and  C1_5 
REMARK    2  A    between atoms: N2_9  and  C5_10 
REMARK    3  A    between atoms: C5_10  and  C6_11 
ROOT
HETATM    1  C1  UNL     1       9.849 -27.779   9.380  1.00  0.00     0.389 C 
HETATM    2  C2  UNL     1       8.569 -26.951   9.585  1.00  0.00     0.047 C 
HETATM    3  C3  UNL     1       7.717 -27.944  10.306  1.00  0.00     0.036 C 
HETATM    4  C4  UNL     1       8.745 -28.541  11.275  1.00  0.00     0.240 C 
HETATM    5  N2  UNL     1      10.049 -28.060  10.810  1.00  0.00    -0.038 N 
HETATM    6  C9  UNL     1      10.222 -26.740  11.325  1.00  0.00     0.240 C 
HETATM    7  C10 UNL     1       9.089 -25.969  10.635  1.00  0.00     0.036 C 
ENDROOT
BRANCH   1   8
HETATM    8  N1  UNL     1       9.621 -28.954   8.613  1.00  0.00    -0.049 N 
ATOM      9  H13 UNL     1       8.631 -29.197   8.600  1.00  0.00     0.276 HD
ATOM     10  H12 UNL     1       9.759 -28.775   7.618  1.00  0.00     0.276 HD
ATOM     11  H11 UNL     1      10.188 -29.741   8.926  1.00  0.00     0.276 HD
ENDBRANCH   1   8
BRANCH   5  12
HETATM   12  C5  UNL     1      11.035 -29.001  11.090  1.00  0.00     0.244 C 
BRANCH  12  13
HETATM   13  C6  UNL     1      12.421 -28.699  10.644  1.00  0.00     0.012 A 
HETATM   14  C7  UNL     1      13.487 -29.044  11.703  1.00  0.00     0.007 A 
HETATM   15  C8  UNL     1      13.432 -29.715  10.368  1.00  0.00     0.007 A 
ENDBRANCH  12  13
ENDBRANCH   5  12
TORSDOF 3
ENDMDL
MODEL 5
REMARK VINA RESULT: -4.183585057      9.803     11.184
REMARK  3 active torsions:
REMARK  status: ('A' for Active; 'I' for Inactive)
REMARK    1  A    between atoms: N1_1  and  C1_5 
REMARK    2  A    between atoms: N2_9  and  C5_10 
REMARK    3  A    between atoms: C5_10  and  C6_11 
ROOT
HETATM    1  C1  UNL     1      12.239 -29.178  11.049  1.00  0.00     0.389 C 
HETATM    2  C2  UNL     1      13.290 -29.185  12.172  1.00  0.00     0.047 C 
HETATM    3  C3  UNL     1      14.125 -28.013  11.769  1.00  0.00     0.036 C 
HETATM    4  C4  UNL     1      13.030 -27.018  11.364  1.00  0.00     0.240 C 
HETATM    5  N2  UNL     1      11.792 -27.799  11.302  1.00  0.00    -0.038 N 
HETATM    6  C9  UNL     1      11.296 -27.915  12.636  1.00  0.00     0.240 C 
HETATM    7  C10 UNL     1      12.403 -28.720  13.328  1.00  0.00     0.036 C 
ENDROOT
BRANCH   1   8
HETATM    8  N1  UNL     1      12.816 -29.344   9.761  1.00  0.00    -0.049 N 
ATOM      9  H13 UNL     1      13.600 -28.706   9.626  1.00  0.00     0.276 HD
ATOM     10  H12 UNL     1      13.313 -30.232   9.694  1.00  0.00     0.276 HD
ATOM     11  H11 UNL     1      12.132 -29.248   9.011  1.00  0.00     0.276 HD
ENDBRANCH   1   8
BRANCH   5  12
HETATM   12  C5  UNL     1      10.941 -27.272  10.336  1.00  0.00     0.244 C 
BRANCH  12  13
HETATM   13  C6  UNL     1       9.590 -27.880  10.205  1.00  0.00     0.012 A 
HETATM   14  C7  UNL     1       8.543 -26.909   9.622  1.00  0.00     0.007 A 
HETATM   15  C8  UNL     1       8.944 -28.172   8.928  1.00  0.00     0.007 A 
ENDBRANCH  12  13
ENDBRANCH   5  12
TORSDOF 3
ENDMDL
