MODEL 1
REMARK VINA RESULT: -10.147979556      0.000      0.000
REMARK  10 active torsions:
REMARK  status: ('A' for Active; 'I' for Inactive)
REMARK    1  A    between atoms: C2_2  and  C3_3 
REMARK       I    between atoms: C3_3  and  N1_5 
REMARK    2  A    between atoms: C12_15  and  C13_16 
REMARK    3  A    between atoms: C13_16  and  C14_17 
REMARK       I    between atoms: C14_17  and  N3_19 
REMARK    4  A    between atoms: N3_19  and  C15_21 
REMARK    5  A    between atoms: C15_21  and  C16_22 
REMARK    6  A    between atoms: C16_22  and  C17_23 
REMARK    7  A    between atoms: C17_23  and  N4_24 
REMARK    8  A    between atoms: N4_24  and  C18_25 
REMARK    9  A    between atoms: N5_34  and  C26_35 
REMARK   10  A    between atoms: C26_35  and  C27_36 
ROOT
HETATM    1  C3  UNL     1       6.836 -17.101 -17.093  1.00  0.00     0.219 C 
HETATM    2  O1  UNL     1       6.473 -17.002 -18.311  1.00  0.00    -0.273 OA
HETATM    3  N1  UNL     1       8.138 -17.545 -16.823  1.00  0.00    -0.352 N 
HETATM    4  C4  UNL     1       8.675 -17.702 -15.492  1.00  0.00     0.128 C 
HETATM    5  C5  UNL     1       9.656 -18.848 -15.551  1.00  0.00     0.053 C 
HETATM    6  C6  UNL     1      10.956 -18.411 -16.295  1.00  0.00     0.068 C 
HETATM    7  C7  UNL     1      10.453 -17.468 -17.341  1.00  0.00     0.053 C 
HETATM    8  C8  UNL     1       9.081 -17.888 -17.901  1.00  0.00     0.128 C 
HETATM    9  C9  UNL     1      11.702 -17.611 -15.246  1.00  0.00     0.303 C 
HETATM   10  N2  UNL     1      11.739 -18.345 -14.027  1.00  0.00     0.087 N 
HETATM   11  C10 UNL     1      11.587 -17.536 -12.843  1.00  0.00     0.310 C 
HETATM   12  C11 UNL     1      12.934 -19.169 -13.981  1.00  0.00     0.286 C 
HETATM   13  C12 UNL     1      12.487 -20.546 -14.401  1.00  0.00     0.115 C 
HETATM   14  C25 UNL     1      12.096 -20.599 -15.821  1.00  0.00     0.230 C 
HETATM   15  O3  UNL     1      12.184 -21.781 -16.295  1.00  0.00    -0.273 OA
HETATM   16  N5  UNL     1      11.641 -19.568 -16.750  1.00  0.00    -0.319 N 
ENDROOT
BRANCH  13  17
HETATM   17  C13 UNL     1      13.427 -21.643 -14.045  1.00  0.00     0.118 C 
BRANCH  17  18
HETATM   18  C14 UNL     1      14.701 -21.642 -14.751  1.00  0.00     0.218 C 
HETATM   19  O2  UNL     1      15.430 -20.628 -14.751  1.00  0.00    -0.274 OA
HETATM   20  N3  UNL     1      15.170 -22.798 -15.470  1.00  0.00    -0.361 N 
ATOM     21  H3  UNL     1      14.597 -23.642 -15.490  1.00  0.00     0.162 HD
BRANCH  20  22
HETATM   22  C15 UNL     1      16.435 -22.784 -16.162  1.00  0.00     0.124 C 
BRANCH  22  23
HETATM   23  C16 UNL     1      16.186 -22.787 -17.654  1.00  0.00     0.048 C 
BRANCH  23  24
HETATM   24  C17 UNL     1      17.167 -23.700 -18.305  1.00  0.00     0.239 C 
BRANCH  24  25
HETATM   25  N4  UNL     1      16.600 -24.647 -19.234  1.00  0.00    -0.067 N 
HETATM   26  C20 UNL     1      17.172 -24.574 -20.542  1.00  0.00     0.237 C 
HETATM   27  C21 UNL     1      16.340 -25.303 -21.571  1.00  0.00     0.028 C 
HETATM   28  C22 UNL     1      14.939 -24.795 -21.676  1.00  0.00     0.003 C 
HETATM   29  C23 UNL     1      14.682 -23.830 -20.548  1.00  0.00     0.028 C 
HETATM   30  C24 UNL     1      15.166 -24.504 -19.265  1.00  0.00     0.237 C 
BRANCH  25  31
HETATM   31  C18 UNL     1      16.875 -25.973 -18.676  1.00  0.00     0.233 C 
HETATM   32  C19 UNL     1      18.343 -26.222 -18.539  1.00  0.00     0.035 C 
ENDBRANCH  25  31
ENDBRANCH  24  25
ENDBRANCH  23  24
ENDBRANCH  22  23
ENDBRANCH  20  22
ENDBRANCH  17  18
ENDBRANCH  13  17
BRANCH  16  33
HETATM   33  C26 UNL     1      11.912 -19.963 -18.073  1.00  0.00     0.072 C 
BRANCH  33  34
HETATM   34  C27 UNL     1      10.809 -20.296 -19.003  1.00  0.00     0.024 C 
HETATM   35  C28 UNL     1      11.219 -20.134 -20.460  1.00  0.00     0.010 C 
HETATM   36  C29 UNL     1      12.036 -21.269 -20.984  1.00  0.00     0.001 C 
HETATM   37  C30 UNL     1      11.061 -22.459 -21.040  1.00  0.00     0.000 C 
HETATM   38  C31 UNL     1      10.542 -22.744 -19.675  1.00  0.00     0.001 C 
HETATM   39  C32 UNL     1      10.084 -21.578 -18.867  1.00  0.00     0.010 C 
ENDBRANCH  33  34
ENDBRANCH  16  33
BRANCH   1  40
HETATM   40  C2  UNL     1       5.854 -16.737 -16.054  1.00  0.00     0.098 C 
HETATM   41  C1  UNL     1       5.513 -15.257 -16.212  1.00  0.00     0.014 C 
ENDBRANCH   1  40
TORSDOF 10
ENDMDL
MODEL 2
REMARK VINA RESULT: -9.898052260      2.141      9.105
REMARK  10 active torsions:
REMARK  status: ('A' for Active; 'I' for Inactive)
REMARK    1  A    between atoms: C2_2  and  C3_3 
REMARK       I    between atoms: C3_3  and  N1_5 
REMARK    2  A    between atoms: C12_15  and  C13_16 
REMARK    3  A    between atoms: C13_16  and  C14_17 
REMARK       I    between atoms: C14_17  and  N3_19 
REMARK    4  A    between atoms: N3_19  and  C15_21 
REMARK    5  A    between atoms: C15_21  and  C16_22 
REMARK    6  A    between atoms: C16_22  and  C17_23 
REMARK    7  A    between atoms: C17_23  and  N4_24 
REMARK    8  A    between atoms: N4_24  and  C18_25 
REMARK    9  A    between atoms: N5_34  and  C26_35 
REMARK   10  A    between atoms: C26_35  and  C27_36 
ROOT
HETATM    1  C3  UNL     1      16.731 -24.265 -19.955  1.00  0.00     0.219 C 
HETATM    2  O1  UNL     1      16.589 -24.548 -21.189  1.00  0.00    -0.273 OA
HETATM    3  N1  UNL     1      15.723 -23.520 -19.325  1.00  0.00    -0.352 N 
HETATM    4  C4  UNL     1      15.759 -23.131 -17.936  1.00  0.00     0.128 C 
HETATM    5  C5  UNL     1      15.044 -21.805 -17.837  1.00  0.00     0.053 C 
HETATM    6  C6  UNL     1      13.506 -22.005 -18.001  1.00  0.00     0.068 C 
HETATM    7  C7  UNL     1      13.408 -23.124 -18.988  1.00  0.00     0.053 C 
HETATM    8  C8  UNL     1      14.522 -23.071 -20.049  1.00  0.00     0.128 C 
HETATM    9  C9  UNL     1      13.077 -22.523 -16.643  1.00  0.00     0.303 C 
HETATM   10  N2  UNL     1      13.628 -21.695 -15.624  1.00  0.00     0.087 N 
HETATM   11  C10 UNL     1      14.066 -22.410 -14.451  1.00  0.00     0.310 C 
HETATM   12  C11 UNL     1      12.701 -20.625 -15.301  1.00  0.00     0.286 C 
HETATM   13  C12 UNL     1      13.192 -19.424 -16.068  1.00  0.00     0.115 C 
HETATM   14  C25 UNL     1      13.028 -19.585 -17.524  1.00  0.00     0.230 C 
HETATM   15  O3  UNL     1      12.977 -18.459 -18.124  1.00  0.00    -0.273 OA
HETATM   16  N5  UNL     1      12.915 -20.768 -18.372  1.00  0.00    -0.319 N 
ENDROOT
BRANCH  13  17
HETATM   17  C13 UNL     1      12.661 -18.118 -15.592  1.00  0.00     0.118 C 
BRANCH  17  18
HETATM   18  C14 UNL     1      11.503 -18.187 -14.713  1.00  0.00     0.218 C 
HETATM   19  O2  UNL     1      11.608 -17.926 -13.497  1.00  0.00    -0.274 OA
HETATM   20  N3  UNL     1      10.199 -18.554 -15.205  1.00  0.00    -0.361 N 
ATOM     21  H3  UNL     1      10.080 -18.774 -16.193  1.00  0.00     0.162 HD
BRANCH  20  22
HETATM   22  C15 UNL     1       9.059 -18.614 -14.323  1.00  0.00     0.124 C 
BRANCH  22  23
HETATM   23  C16 UNL     1       7.817 -18.218 -15.089  1.00  0.00     0.048 C 
BRANCH  23  24
HETATM   24  C17 UNL     1       8.146 -17.065 -15.975  1.00  0.00     0.239 C 
BRANCH  24  25
HETATM   25  N4  UNL     1       7.017 -16.262 -16.379  1.00  0.00    -0.067 N 
HETATM   26  C20 UNL     1       5.780 -16.687 -15.802  1.00  0.00     0.237 C 
HETATM   27  C21 UNL     1       4.586 -16.079 -16.500  1.00  0.00     0.028 C 
HETATM   28  C22 UNL     1       4.520 -16.394 -17.958  1.00  0.00     0.003 C 
HETATM   29  C23 UNL     1       5.808 -17.056 -18.375  1.00  0.00     0.028 C 
HETATM   30  C24 UNL     1       6.948 -16.204 -17.818  1.00  0.00     0.237 C 
BRANCH  25  31
HETATM   31  C18 UNL     1       7.305 -14.901 -15.920  1.00  0.00     0.233 C 
HETATM   32  C19 UNL     1       8.533 -14.853 -15.068  1.00  0.00     0.035 C 
ENDBRANCH  25  31
ENDBRANCH  24  25
ENDBRANCH  23  24
ENDBRANCH  22  23
ENDBRANCH  20  22
ENDBRANCH  17  18
ENDBRANCH  13  17
BRANCH  16  33
HETATM   33  C26 UNL     1      12.243 -20.441 -19.564  1.00  0.00     0.072 C 
BRANCH  33  34
HETATM   34  C27 UNL     1      10.828 -20.829 -19.766  1.00  0.00     0.024 C 
HETATM   35  C28 UNL     1       9.925 -20.292 -18.664  1.00  0.00     0.010 C 
HETATM   36  C29 UNL     1       9.577 -18.849 -18.822  1.00  0.00     0.001 C 
HETATM   37  C30 UNL     1       8.662 -18.801 -20.060  1.00  0.00     0.000 C 
HETATM   38  C31 UNL     1       9.398 -19.318 -21.245  1.00  0.00     0.001 C 
HETATM   39  C32 UNL     1      10.169 -20.582 -21.066  1.00  0.00     0.010 C 
ENDBRANCH  33  34
ENDBRANCH  16  33
BRANCH   1  40
HETATM   40  C2  UNL     1      17.950 -24.746 -19.276  1.00  0.00     0.098 C 
HETATM   41  C1  UNL     1      17.726 -26.197 -18.858  1.00  0.00     0.014 C 
ENDBRANCH   1  40
TORSDOF 10
ENDMDL
MODEL 3
REMARK VINA RESULT: -9.879221398      2.166      9.344
REMARK  10 active torsions:
REMARK  status: ('A' for Active; 'I' for Inactive)
REMARK    1  A    between atoms: C2_2  and  C3_3 
REMARK       I    between atoms: C3_3  and  N1_5 
REMARK    2  A    between atoms: C12_15  and  C13_16 
REMARK    3  A    between atoms: C13_16  and  C14_17 
REMARK       I    between atoms: C14_17  and  N3_19 
REMARK    4  A    between atoms: N3_19  and  C15_21 
REMARK    5  A    between atoms: C15_21  and  C16_22 
REMARK    6  A    between atoms: C16_22  and  C17_23 
REMARK    7  A    between atoms: C17_23  and  N4_24 
REMARK    8  A    between atoms: N4_24  and  C18_25 
REMARK    9  A    between atoms: N5_34  and  C26_35 
REMARK   10  A    between atoms: C26_35  and  C27_36 
ROOT
HETATM    1  C3  UNL     1      16.947 -23.693 -18.879  1.00  0.00     0.219 C 
HETATM    2  O1  UNL     1      16.980 -24.075 -20.095  1.00  0.00    -0.273 OA
HETATM    3  N1  UNL     1      15.820 -22.989 -18.434  1.00  0.00    -0.352 N 
HETATM    4  C4  UNL     1      15.656 -22.500 -17.086  1.00  0.00     0.128 C 
HETATM    5  C5  UNL     1      14.841 -21.233 -17.178  1.00  0.00     0.053 C 
HETATM    6  C6  UNL     1      13.353 -21.568 -17.505  1.00  0.00     0.068 C 
HETATM    7  C7  UNL     1      13.458 -22.759 -18.403  1.00  0.00     0.053 C 
HETATM    8  C8  UNL     1      14.687 -22.692 -19.327  1.00  0.00     0.128 C 
HETATM    9  C9  UNL     1      12.798 -22.021 -16.169  1.00  0.00     0.303 C 
HETATM   10  N2  UNL     1      13.159 -21.081 -15.163  1.00  0.00     0.087 N 
HETATM   11  C10 UNL     1      13.500 -21.673 -13.893  1.00  0.00     0.310 C 
HETATM   12  C11 UNL     1      12.125 -20.069 -15.038  1.00  0.00     0.286 C 
HETATM   13  C12 UNL     1      12.620 -18.890 -15.836  1.00  0.00     0.115 C 
HETATM   14  C25 UNL     1      12.648 -19.166 -17.284  1.00  0.00     0.230 C 
HETATM   15  O3  UNL     1      12.591 -18.094 -17.974  1.00  0.00    -0.273 OA
HETATM   16  N5  UNL     1      12.725 -20.413 -18.041  1.00  0.00    -0.319 N 
ENDROOT
BRANCH  13  17
HETATM   17  C13 UNL     1      11.942 -17.601 -15.533  1.00  0.00     0.118 C 
BRANCH  17  18
HETATM   18  C14 UNL     1      10.717 -17.696 -14.752  1.00  0.00     0.218 C 
HETATM   19  O2  UNL     1      10.687 -17.322 -13.562  1.00  0.00    -0.274 OA
HETATM   20  N3  UNL     1       9.499 -18.221 -15.315  1.00  0.00    -0.361 N 
ATOM     21  H3  UNL     1       9.490 -18.536 -16.285  1.00  0.00     0.162 HD
BRANCH  20  22
HETATM   22  C15 UNL     1       8.291 -18.307 -14.531  1.00  0.00     0.124 C 
BRANCH  22  23
HETATM   23  C16 UNL     1       7.350 -17.197 -14.945  1.00  0.00     0.048 C 
BRANCH  23  24
HETATM   24  C17 UNL     1       6.983 -17.386 -16.377  1.00  0.00     0.239 C 
BRANCH  24  25
HETATM   25  N4  UNL     1       5.945 -16.511 -16.864  1.00  0.00    -0.067 N 
HETATM   26  C20 UNL     1       5.813 -15.307 -16.104  1.00  0.00     0.237 C 
HETATM   27  C21 UNL     1       4.517 -14.587 -16.397  1.00  0.00     0.028 C 
HETATM   28  C22 UNL     1       3.300 -15.411 -16.129  1.00  0.00     0.003 C 
HETATM   29  C23 UNL     1       3.722 -16.831 -15.850  1.00  0.00     0.028 C 
HETATM   30  C24 UNL     1       4.700 -17.231 -16.953  1.00  0.00     0.237 C 
BRANCH  25  31
HETATM   31  C18 UNL     1       6.324 -16.160 -18.235  1.00  0.00     0.233 C 
HETATM   32  C19 UNL     1       7.722 -15.635 -18.305  1.00  0.00     0.035 C 
ENDBRANCH  25  31
ENDBRANCH  24  25
ENDBRANCH  23  24
ENDBRANCH  22  23
ENDBRANCH  20  22
ENDBRANCH  17  18
ENDBRANCH  13  17
BRANCH  16  33
HETATM   33  C26 UNL     1      12.183 -20.227 -19.326  1.00  0.00     0.072 C 
BRANCH  33  34
HETATM   34  C27 UNL     1      10.833 -20.737 -19.659  1.00  0.00     0.024 C 
HETATM   35  C28 UNL     1       9.796 -20.331 -18.622  1.00  0.00     0.010 C 
HETATM   36  C29 UNL     1       9.325 -18.922 -18.764  1.00  0.00     0.001 C 
HETATM   37  C30 UNL     1       8.513 -18.911 -20.073  1.00  0.00     0.000 C 
HETATM   38  C31 UNL     1       9.390 -19.310 -21.207  1.00  0.00     0.001 C 
HETATM   39  C32 UNL     1      10.262 -20.502 -21.002  1.00  0.00     0.010 C 
ENDBRANCH  33  34
ENDBRANCH  16  33
BRANCH   1  40
HETATM   40  C2  UNL     1      18.105 -24.024 -18.025  1.00  0.00     0.098 C 
HETATM   41  C1  UNL     1      18.103 -25.531 -17.778  1.00  0.00     0.014 C 
ENDBRANCH   1  40
TORSDOF 10
ENDMDL
MODEL 4
REMARK VINA RESULT: -9.618591400      1.105      2.018
REMARK  10 active torsions:
REMARK  status: ('A' for Active; 'I' for Inactive)
REMARK    1  A    between atoms: C2_2  and  C3_3 
REMARK       I    between atoms: C3_3  and  N1_5 
REMARK    2  A    between atoms: C12_15  and  C13_16 
REMARK    3  A    between atoms: C13_16  and  C14_17 
REMARK       I    between atoms: C14_17  and  N3_19 
REMARK    4  A    between atoms: N3_19  and  C15_21 
REMARK    5  A    between atoms: C15_21  and  C16_22 
REMARK    6  A    between atoms: C16_22  and  C17_23 
REMARK    7  A    between atoms: C17_23  and  N4_24 
REMARK    8  A    between atoms: N4_24  and  C18_25 
REMARK    9  A    between atoms: N5_34  and  C26_35 
REMARK   10  A    between atoms: C26_35  and  C27_36 
ROOT
HETATM    1  C3  UNL     1       5.892 -16.993 -16.989  1.00  0.00     0.219 C 
HETATM    2  O1  UNL     1       5.194 -17.240 -18.027  1.00  0.00    -0.273 OA
HETATM    3  N1  UNL     1       7.208 -17.474 -16.945  1.00  0.00    -0.352 N 
HETATM    4  C4  UNL     1       8.104 -17.266 -15.832  1.00  0.00     0.128 C 
HETATM    5  C5  UNL     1       9.005 -18.476 -15.767  1.00  0.00     0.053 C 
HETATM    6  C6  UNL     1      10.042 -18.443 -16.932  1.00  0.00     0.068 C 
HETATM    7  C7  UNL     1       9.275 -17.825 -18.057  1.00  0.00     0.053 C 
HETATM    8  C8  UNL     1       7.793 -18.241 -18.058  1.00  0.00     0.128 C 
HETATM    9  C9  UNL     1      11.074 -17.445 -16.449  1.00  0.00     0.303 C 
HETATM   10  N2  UNL     1      11.449 -17.760 -15.112  1.00  0.00     0.087 N 
HETATM   11  C10 UNL     1      11.661 -16.609 -14.269  1.00  0.00     0.310 C 
HETATM   12  C11 UNL     1      12.591 -18.657 -15.115  1.00  0.00     0.286 C 
HETATM   13  C12 UNL     1      12.016 -20.037 -14.919  1.00  0.00     0.115 C 
HETATM   14  C25 UNL     1      11.230 -20.487 -16.081  1.00  0.00     0.230 C 
HETATM   15  O3  UNL     1      11.155 -21.760 -16.141  1.00  0.00    -0.273 OA
HETATM   16  N5  UNL     1      10.544 -19.754 -17.142  1.00  0.00    -0.319 N 
ENDROOT
BRANCH  13  17
HETATM   17  C13 UNL     1      12.998 -21.066 -14.484  1.00  0.00     0.118 C 
BRANCH  17  18
HETATM   18  C14 UNL     1      14.132 -21.278 -15.373  1.00  0.00     0.218 C 
HETATM   19  O2  UNL     1      15.201 -20.656 -15.205  1.00  0.00    -0.274 OA
HETATM   20  N3  UNL     1      14.068 -22.206 -16.473  1.00  0.00    -0.361 N 
ATOM     21  H3  UNL     1      13.208 -22.729 -16.638  1.00  0.00     0.162 HD
BRANCH  20  22
HETATM   22  C15 UNL     1      15.199 -22.409 -17.345  1.00  0.00     0.124 C 
BRANCH  22  23
HETATM   23  C16 UNL     1      15.005 -23.693 -18.120  1.00  0.00     0.048 C 
BRANCH  23  24
HETATM   24  C17 UNL     1      15.909 -23.682 -19.304  1.00  0.00     0.239 C 
BRANCH  24  25
HETATM   25  N4  UNL     1      16.986 -24.641 -19.262  1.00  0.00    -0.067 N 
HETATM   26  C20 UNL     1      16.576 -25.939 -18.823  1.00  0.00     0.237 C 
HETATM   27  C21 UNL     1      17.751 -26.812 -18.446  1.00  0.00     0.028 C 
HETATM   28  C22 UNL     1      18.605 -26.233 -17.366  1.00  0.00     0.003 C 
HETATM   29  C23 UNL     1      18.172 -24.812 -17.107  1.00  0.00     0.028 C 
HETATM   30  C24 UNL     1      18.071 -24.122 -18.467  1.00  0.00     0.237 C 
BRANCH  25  31
HETATM   31  C18 UNL     1      17.487 -24.747 -20.634  1.00  0.00     0.233 C 
HETATM   32  C19 UNL     1      16.485 -25.388 -21.540  1.00  0.00     0.035 C 
ENDBRANCH  25  31
ENDBRANCH  24  25
ENDBRANCH  23  24
ENDBRANCH  22  23
ENDBRANCH  20  22
ENDBRANCH  17  18
ENDBRANCH  13  17
BRANCH  16  33
HETATM   33  C26 UNL     1      10.413 -20.571 -18.281  1.00  0.00     0.072 C 
BRANCH  33  34
HETATM   34  C27 UNL     1      11.238 -20.326 -19.486  1.00  0.00     0.024 C 
HETATM   35  C28 UNL     1      12.522 -21.143 -19.478  1.00  0.00     0.010 C 
HETATM   36  C29 UNL     1      12.328 -22.570 -19.871  1.00  0.00     0.001 C 
HETATM   37  C30 UNL     1      11.973 -22.518 -21.369  1.00  0.00     0.000 C 
HETATM   38  C31 UNL     1      10.729 -21.725 -21.559  1.00  0.00     0.001 C 
HETATM   39  C32 UNL     1      10.634 -20.427 -20.832  1.00  0.00     0.010 C 
ENDBRANCH  33  34
ENDBRANCH  16  33
BRANCH   1  40
HETATM   40  C2  UNL     1       5.260 -16.214 -15.907  1.00  0.00     0.098 C 
HETATM   41  C1  UNL     1       5.003 -14.799 -16.421  1.00  0.00     0.014 C 
ENDBRANCH   1  40
TORSDOF 10
ENDMDL
MODEL 5
REMARK VINA RESULT: -9.578118390      2.091      9.954
REMARK  10 active torsions:
REMARK  status: ('A' for Active; 'I' for Inactive)
REMARK    1  A    between atoms: C2_2  and  C3_3 
REMARK       I    between atoms: C3_3  and  N1_5 
REMARK    2  A    between atoms: C12_15  and  C13_16 
REMARK    3  A    between atoms: C13_16  and  C14_17 
REMARK       I    between atoms: C14_17  and  N3_19 
REMARK    4  A    between atoms: N3_19  and  C15_21 
REMARK    5  A    between atoms: C15_21  and  C16_22 
REMARK    6  A    between atoms: C16_22  and  C17_23 
REMARK    7  A    between atoms: C17_23  and  N4_24 
REMARK    8  A    between atoms: N4_24  and  C18_25 
REMARK    9  A    between atoms: N5_34  and  C26_35 
REMARK   10  A    between atoms: C26_35  and  C27_36 
ROOT
HETATM    1  C3  UNL     1      17.687 -24.853 -17.841  1.00  0.00     0.219 C 
HETATM    2  O1  UNL     1      18.377 -24.906 -16.771  1.00  0.00    -0.273 OA
HETATM    3  N1  UNL     1      16.604 -23.963 -17.889  1.00  0.00    -0.352 N 
HETATM    4  C4  UNL     1      15.742 -23.805 -19.036  1.00  0.00     0.128 C 
HETATM    5  C5  UNL     1      14.373 -23.452 -18.506  1.00  0.00     0.053 C 
HETATM    6  C6  UNL     1      14.358 -21.984 -17.979  1.00  0.00     0.068 C 
HETATM    7  C7  UNL     1      15.729 -21.811 -17.406  1.00  0.00     0.053 C 
HETATM    8  C8  UNL     1      16.259 -23.097 -16.749  1.00  0.00     0.128 C 
HETATM    9  C9  UNL     1      14.259 -21.161 -19.247  1.00  0.00     0.303 C 
HETATM   10  N2  UNL     1      13.219 -21.680 -20.069  1.00  0.00     0.087 N 
HETATM   11  C10 UNL     1      13.515 -21.663 -21.481  1.00  0.00     0.310 C 
HETATM   12  C11 UNL     1      11.966 -21.014 -19.762  1.00  0.00     0.286 C 
HETATM   13  C12 UNL     1      11.233 -21.949 -18.832  1.00  0.00     0.115 C 
HETATM   14  C25 UNL     1      11.889 -22.058 -17.517  1.00  0.00     0.230 C 
HETATM   15  O3  UNL     1      11.073 -22.427 -16.608  1.00  0.00    -0.273 OA
HETATM   16  N5  UNL     1      13.265 -21.824 -17.087  1.00  0.00    -0.319 N 
ENDROOT
BRANCH  13  17
HETATM   17  C13 UNL     1       9.775 -21.685 -18.703  1.00  0.00     0.118 C 
BRANCH  17  18
HETATM   18  C14 UNL     1       9.285 -20.487 -19.370  1.00  0.00     0.218 C 
HETATM   19  O2  UNL     1       9.694 -20.176 -20.508  1.00  0.00    -0.274 OA
HETATM   20  N3  UNL     1       8.317 -19.618 -18.751  1.00  0.00    -0.361 N 
ATOM     21  H3  UNL     1       7.963 -19.843 -17.821  1.00  0.00     0.162 HD
BRANCH  20  22
HETATM   22  C15 UNL     1       7.837 -18.436 -19.424  1.00  0.00     0.124 C 
BRANCH  22  23
HETATM   23  C16 UNL     1       8.119 -17.226 -18.563  1.00  0.00     0.048 C 
BRANCH  23  24
HETATM   24  C17 UNL     1       6.861 -16.822 -17.873  1.00  0.00     0.239 C 
BRANCH  24  25
HETATM   25  N4  UNL     1       7.044 -16.130 -16.620  1.00  0.00    -0.067 N 
HETATM   26  C20 UNL     1       8.340 -15.543 -16.478  1.00  0.00     0.237 C 
HETATM   27  C21 UNL     1       8.634 -15.144 -15.051  1.00  0.00     0.028 C 
HETATM   28  C22 UNL     1       8.559 -16.281 -14.084  1.00  0.00     0.003 C 
HETATM   29  C23 UNL     1       7.982 -17.484 -14.786  1.00  0.00     0.028 C 
HETATM   30  C24 UNL     1       6.730 -17.012 -15.524  1.00  0.00     0.237 C 
BRANCH  25  31
HETATM   31  C18 UNL     1       6.042 -15.063 -16.598  1.00  0.00     0.233 C 
HETATM   32  C19 UNL     1       4.778 -15.504 -15.934  1.00  0.00     0.035 C 
ENDBRANCH  25  31
ENDBRANCH  24  25
ENDBRANCH  23  24
ENDBRANCH  22  23
ENDBRANCH  20  22
ENDBRANCH  17  18
ENDBRANCH  13  17
BRANCH  16  33
HETATM   33  C26 UNL     1      13.293 -21.525 -15.712  1.00  0.00     0.072 C 
BRANCH  33  34
HETATM   34  C27 UNL     1      13.663 -20.171 -15.239  1.00  0.00     0.024 C 
HETATM   35  C28 UNL     1      13.069 -19.077 -16.116  1.00  0.00     0.010 C 
HETATM   36  C29 UNL     1      11.628 -18.805 -15.842  1.00  0.00     0.001 C 
HETATM   37  C30 UNL     1      11.610 -18.161 -14.443  1.00  0.00     0.000 C 
HETATM   38  C31 UNL     1      12.184 -19.109 -13.451  1.00  0.00     0.001 C 
HETATM   39  C32 UNL     1      13.454 -19.796 -13.825  1.00  0.00     0.010 C 
ENDBRANCH  33  34
ENDBRANCH  16  33
BRANCH   1  40
HETATM   40  C2  UNL     1      18.081 -25.735 -18.956  1.00  0.00     0.098 C 
HETATM   41  C1  UNL     1      18.587 -27.052 -18.370  1.00  0.00     0.014 C 
ENDBRANCH   1  40
TORSDOF 10
ENDMDL
