MODEL 1
REMARK VINA RESULT: -9.659651652      0.000      0.000
REMARK  13 active torsions:
REMARK  status: ('A' for Active; 'I' for Inactive)
REMARK    1  A    between atoms: N1_2  and  C2_3 
REMARK    2  A    between atoms: N1_2  and  C20_28 
REMARK    3  A    between atoms: C2_3  and  C3_4 
REMARK    4  A    between atoms: C3_4  and  C4_5 
REMARK    5  A    between atoms: C4_5  and  C5_6 
REMARK    6  A    between atoms: C5_6  and  N2_7 
REMARK       I    between atoms: N2_7  and  C6_8 
REMARK    7  A    between atoms: C6_8  and  C7_10 
REMARK    8  A    between atoms: N4_19  and  C15_20 
REMARK    9  A    between atoms: C15_20  and  O2_21 
REMARK   10  A    between atoms: C15_20  and  N5_23 
REMARK   11  A    between atoms: C20_28  and  C21_29 
REMARK   12  A    between atoms: C21_29  and  N6_30 
REMARK   13  A    between atoms: N6_30  and  C23_32 
ROOT
HETATM    1  N2  UNL     1      13.918 -22.841 -20.332  1.00  0.00    -0.386 NA
HETATM    2  C6  UNL     1      14.324 -23.065 -19.041  1.00  0.00     0.316 C 
HETATM    3  O1  UNL     1      13.667 -23.623 -18.146  1.00  0.00    -0.255 OA
ENDROOT
BRANCH   1   4
HETATM    4  C5  UNL     1      13.502 -22.619 -21.636  1.00  0.00     0.159 C 
BRANCH   4   5
HETATM    5  C4  UNL     1      12.141 -23.056 -22.108  1.00  0.00     0.061 C 
BRANCH   5   6
HETATM    6  C3  UNL     1      11.147 -22.662 -21.087  1.00  0.00     0.036 C 
BRANCH   6   7
HETATM    7  C2  UNL     1      10.907 -21.200 -20.915  1.00  0.00     0.272 C 
BRANCH   7   8
HETATM    8  N1  UNL     1      10.865 -20.879 -19.511  1.00  0.00     0.086 N 
HETATM    9  C1  UNL     1      10.516 -22.131 -18.828  1.00  0.00     0.309 C 
BRANCH   8  10
HETATM   10  C20 UNL     1      11.940 -20.234 -18.942  1.00  0.00     0.302 C 
BRANCH  10  11
HETATM   11  C21 UNL     1      11.840 -19.927 -17.479  1.00  0.00     0.303 C 
BRANCH  11  12
HETATM   12  N6  UNL     1      12.084 -18.585 -17.097  1.00  0.00     0.095 N 
HETATM   13  C22 UNL     1      12.005 -17.729 -18.279  1.00  0.00     0.310 C 
BRANCH  12  14
HETATM   14  C23 UNL     1      11.034 -18.139 -16.150  1.00  0.00     0.160 C 
HETATM   15  C24 UNL     1      11.649 -17.349 -15.004  1.00  0.00     0.046 C 
HETATM   16  C25 UNL     1      10.526 -16.761 -14.175  1.00  0.00    -0.011 C 
HETATM   17  C26 UNL     1       9.604 -15.868 -14.950  1.00  0.00     0.009 C 
HETATM   18  C30 UNL     1       9.711 -17.893 -13.621  1.00  0.00     0.009 C 
HETATM   19  C27 UNL     1       8.986 -16.667 -16.048  1.00  0.00    -0.011 C 
HETATM   20  C28 UNL     1       8.190 -17.848 -15.532  1.00  0.00     0.009 C 
HETATM   21  C32 UNL     1      10.101 -17.230 -16.922  1.00  0.00     0.046 C 
HETATM   22  C29 UNL     1       9.130 -18.717 -14.718  1.00  0.00    -0.011 C 
HETATM   23  C31 UNL     1      10.247 -19.277 -15.583  1.00  0.00     0.046 C 
ENDBRANCH  12  14
ENDBRANCH  11  12
ENDBRANCH  10  11
ENDBRANCH   8  10
ENDBRANCH   7   8
ENDBRANCH   6   7
ENDBRANCH   5   6
ENDBRANCH   4   5
ENDBRANCH   1   4
BRANCH   2  24
HETATM   24  C7  UNL     1      15.688 -22.581 -18.632  1.00  0.00     0.226 C 
HETATM   25  C8  UNL     1      16.715 -23.596 -18.877  1.00  0.00     0.228 C 
HETATM   26  C9  UNL     1      16.928 -24.131 -17.463  1.00  0.00     0.039 C 
HETATM   27  N3  UNL     1      16.625 -24.751 -19.588  1.00  0.00    -0.068 N 
HETATM   28  C10 UNL     1      18.117 -24.981 -17.730  1.00  0.00     0.036 C 
HETATM   29  C14 UNL     1      17.146 -22.839 -16.810  1.00  0.00     0.134 C 
HETATM   30  C11 UNL     1      17.900 -25.419 -19.156  1.00  0.00     0.237 C 
HETATM   31  N4  UNL     1      15.914 -22.111 -17.331  1.00  0.00    -0.330 N 
HETATM   32  C12 UNL     1      15.624 -25.728 -19.374  1.00  0.00     0.272 C 
HETATM   33  C13 UNL     1      16.781 -24.626 -21.041  1.00  0.00     0.272 C 
BRANCH  31  34
HETATM   34  C15 UNL     1      15.356 -21.157 -16.498  1.00  0.00     0.218 C 
BRANCH  34  35
HETATM   35  O2  UNL     1      15.359 -19.911 -16.958  1.00  0.00    -0.332 OA
ATOM     36  H2  UNL     1      15.257 -19.228 -16.306  1.00  0.00     0.220 HD
ENDBRANCH  34  35
BRANCH  34  37
HETATM   37  N5  UNL     1      14.767 -21.235 -15.241  1.00  0.00    -0.347 N 
HETATM   38  C16 UNL     1      14.228 -20.018 -14.574  1.00  0.00     0.126 C 
HETATM   39  C17 UNL     1      13.103 -20.553 -13.758  1.00  0.00     0.021 C 
HETATM   40  C18 UNL     1      13.558 -21.916 -13.352  1.00  0.00     0.021 C 
HETATM   41  C19 UNL     1      14.570 -22.357 -14.390  1.00  0.00     0.126 C 
ENDBRANCH  34  37
ENDBRANCH  31  34
ENDBRANCH   2  24
TORSDOF 13
ENDMDL
MODEL 2
REMARK VINA RESULT: -9.626658436      0.116      1.165
REMARK  13 active torsions:
REMARK  status: ('A' for Active; 'I' for Inactive)
REMARK    1  A    between atoms: N1_2  and  C2_3 
REMARK    2  A    between atoms: N1_2  and  C20_28 
REMARK    3  A    between atoms: C2_3  and  C3_4 
REMARK    4  A    between atoms: C3_4  and  C4_5 
REMARK    5  A    between atoms: C4_5  and  C5_6 
REMARK    6  A    between atoms: C5_6  and  N2_7 
REMARK       I    between atoms: N2_7  and  C6_8 
REMARK    7  A    between atoms: C6_8  and  C7_10 
REMARK    8  A    between atoms: N4_19  and  C15_20 
REMARK    9  A    between atoms: C15_20  and  O2_21 
REMARK   10  A    between atoms: C15_20  and  N5_23 
REMARK   11  A    between atoms: C20_28  and  C21_29 
REMARK   12  A    between atoms: C21_29  and  N6_30 
REMARK   13  A    between atoms: N6_30  and  C23_32 
ROOT
HETATM    1  N2  UNL     1      13.949 -22.886 -20.356  1.00  0.00    -0.386 NA
HETATM    2  C6  UNL     1      14.325 -23.069 -19.050  1.00  0.00     0.316 C 
HETATM    3  O1  UNL     1      13.648 -23.599 -18.153  1.00  0.00    -0.255 OA
ENDROOT
BRANCH   1   4
HETATM    4  C5  UNL     1      13.563 -22.705 -21.675  1.00  0.00     0.159 C 
BRANCH   4   5
HETATM    5  C4  UNL     1      12.177 -23.065 -22.141  1.00  0.00     0.061 C 
BRANCH   5   6
HETATM    6  C3  UNL     1      11.217 -22.668 -21.091  1.00  0.00     0.036 C 
BRANCH   6   7
HETATM    7  C2  UNL     1      10.999 -21.205 -20.900  1.00  0.00     0.272 C 
BRANCH   7   8
HETATM    8  N1  UNL     1      10.886 -20.912 -19.494  1.00  0.00     0.086 N 
HETATM    9  C1  UNL     1      10.501 -22.176 -18.855  1.00  0.00     0.309 C 
BRANCH   8  10
HETATM   10  C20 UNL     1      11.933 -20.281 -18.858  1.00  0.00     0.302 C 
BRANCH  10  11
HETATM   11  C21 UNL     1      11.715 -19.901 -17.425  1.00  0.00     0.303 C 
BRANCH  11  12
HETATM   12  N6  UNL     1      11.978 -18.552 -17.083  1.00  0.00     0.095 N 
HETATM   13  C22 UNL     1      11.969 -17.739 -18.297  1.00  0.00     0.310 C 
BRANCH  12  14
HETATM   14  C23 UNL     1      10.904 -18.045 -16.195  1.00  0.00     0.160 C 
HETATM   15  C24 UNL     1      10.128 -19.202 -15.583  1.00  0.00     0.046 C 
HETATM   16  C25 UNL     1       9.175 -18.640 -14.548  1.00  0.00    -0.011 C 
HETATM   17  C26 UNL     1       9.853 -17.868 -13.456  1.00  0.00     0.009 C 
HETATM   18  C30 UNL     1       8.223 -17.712 -15.245  1.00  0.00     0.009 C 
HETATM   19  C27 UNL     1      10.581 -16.720 -14.072  1.00  0.00    -0.011 C 
HETATM   20  C28 UNL     1       9.660 -15.782 -14.824  1.00  0.00     0.009 C 
HETATM   21  C32 UNL     1      11.579 -17.270 -15.085  1.00  0.00     0.046 C 
HETATM   22  C29 UNL     1       8.955 -16.590 -15.896  1.00  0.00    -0.011 C 
HETATM   23  C31 UNL     1       9.946 -17.144 -16.906  1.00  0.00     0.046 C 
ENDBRANCH  12  14
ENDBRANCH  11  12
ENDBRANCH  10  11
ENDBRANCH   8  10
ENDBRANCH   7   8
ENDBRANCH   6   7
ENDBRANCH   5   6
ENDBRANCH   4   5
ENDBRANCH   1   4
BRANCH   2  24
HETATM   24  C7  UNL     1      15.679 -22.570 -18.625  1.00  0.00     0.226 C 
HETATM   25  C8  UNL     1      16.717 -23.582 -18.837  1.00  0.00     0.228 C 
HETATM   26  C9  UNL     1      16.909 -24.095 -17.412  1.00  0.00     0.039 C 
HETATM   27  N3  UNL     1      16.646 -24.748 -19.533  1.00  0.00    -0.068 N 
HETATM   28  C10 UNL     1      18.107 -24.941 -17.646  1.00  0.00     0.036 C 
HETATM   29  C14 UNL     1      17.108 -22.792 -16.775  1.00  0.00     0.134 C 
HETATM   30  C11 UNL     1      17.917 -25.402 -19.069  1.00  0.00     0.237 C 
HETATM   31  N4  UNL     1      15.881 -22.079 -17.327  1.00  0.00    -0.330 N 
HETATM   32  C12 UNL     1      15.647 -25.728 -19.321  1.00  0.00     0.272 C 
HETATM   33  C13 UNL     1      16.825 -24.644 -20.984  1.00  0.00     0.272 C 
BRANCH  31  34
HETATM   34  C15 UNL     1      15.303 -21.116 -16.518  1.00  0.00     0.218 C 
BRANCH  34  35
HETATM   35  O2  UNL     1      15.281 -19.882 -17.009  1.00  0.00    -0.332 OA
ATOM     36  H2  UNL     1      14.421 -19.493 -17.114  1.00  0.00     0.220 HD
ENDBRANCH  34  35
BRANCH  34  37
HETATM   37  N5  UNL     1      14.714 -21.175 -15.260  1.00  0.00    -0.347 N 
HETATM   38  C16 UNL     1      14.198 -19.944 -14.601  1.00  0.00     0.126 C 
HETATM   39  C17 UNL     1      13.065 -20.454 -13.780  1.00  0.00     0.021 C 
HETATM   40  C18 UNL     1      13.497 -21.821 -13.365  1.00  0.00     0.021 C 
HETATM   41  C19 UNL     1      14.499 -22.287 -14.401  1.00  0.00     0.126 C 
ENDBRANCH  34  37
ENDBRANCH  31  34
ENDBRANCH   2  24
TORSDOF 13
ENDMDL
MODEL 3
REMARK VINA RESULT: -9.394178416      0.666      1.478
REMARK  13 active torsions:
REMARK  status: ('A' for Active; 'I' for Inactive)
REMARK    1  A    between atoms: N1_2  and  C2_3 
REMARK    2  A    between atoms: N1_2  and  C20_28 
REMARK    3  A    between atoms: C2_3  and  C3_4 
REMARK    4  A    between atoms: C3_4  and  C4_5 
REMARK    5  A    between atoms: C4_5  and  C5_6 
REMARK    6  A    between atoms: C5_6  and  N2_7 
REMARK       I    between atoms: N2_7  and  C6_8 
REMARK    7  A    between atoms: C6_8  and  C7_10 
REMARK    8  A    between atoms: N4_19  and  C15_20 
REMARK    9  A    between atoms: C15_20  and  O2_21 
REMARK   10  A    between atoms: C15_20  and  N5_23 
REMARK   11  A    between atoms: C20_28  and  C21_29 
REMARK   12  A    between atoms: C21_29  and  N6_30 
REMARK   13  A    between atoms: N6_30  and  C23_32 
ROOT
HETATM    1  N2  UNL     1      14.045 -22.445 -19.865  1.00  0.00    -0.386 NA
HETATM    2  C6  UNL     1      14.510 -22.910 -18.661  1.00  0.00     0.316 C 
HETATM    3  O1  UNL     1      13.839 -23.461 -17.773  1.00  0.00    -0.255 OA
ENDROOT
BRANCH   1   4
HETATM    4  C5  UNL     1      13.568 -21.979 -21.081  1.00  0.00     0.159 C 
BRANCH   4   5
HETATM    5  C4  UNL     1      12.558 -22.761 -21.877  1.00  0.00     0.061 C 
BRANCH   5   6
HETATM    6  C3  UNL     1      11.251 -22.663 -21.194  1.00  0.00     0.036 C 
BRANCH   6   7
HETATM    7  C2  UNL     1      10.600 -21.321 -21.184  1.00  0.00     0.272 C 
BRANCH   7   8
HETATM    8  N1  UNL     1      10.248 -20.964 -19.834  1.00  0.00     0.086 N 
HETATM    9  C1  UNL     1      10.458 -22.179 -19.035  1.00  0.00     0.309 C 
BRANCH   8  10
HETATM   10  C20 UNL     1      10.814 -19.842 -19.271  1.00  0.00     0.302 C 
BRANCH  10  11
HETATM   11  C21 UNL     1      10.897 -19.812 -17.775  1.00  0.00     0.303 C 
BRANCH  11  12
HETATM   12  N6  UNL     1      11.635 -18.746 -17.204  1.00  0.00     0.095 N 
HETATM   13  C22 UNL     1      11.962 -17.777 -18.249  1.00  0.00     0.310 C 
BRANCH  12  14
HETATM   14  C23 UNL     1      10.803 -18.051 -16.193  1.00  0.00     0.160 C 
HETATM   15  C24 UNL     1       9.836 -17.089 -16.866  1.00  0.00     0.046 C 
HETATM   16  C25 UNL     1       8.889 -16.551 -15.813  1.00  0.00    -0.011 C 
HETATM   17  C26 UNL     1       8.110 -17.615 -15.099  1.00  0.00     0.009 C 
HETATM   18  C30 UNL     1       9.700 -15.810 -14.790  1.00  0.00     0.009 C 
HETATM   19  C27 UNL     1       9.073 -18.528 -14.418  1.00  0.00    -0.011 C 
HETATM   20  C28 UNL     1       9.943 -17.810 -13.408  1.00  0.00     0.009 C 
HETATM   21  C32 UNL     1      10.007 -19.116 -15.471  1.00  0.00     0.046 C 
HETATM   22  C29 UNL     1      10.691 -16.713 -14.142  1.00  0.00    -0.011 C 
HETATM   23  C31 UNL     1      11.620 -17.294 -15.196  1.00  0.00     0.046 C 
ENDBRANCH  12  14
ENDBRANCH  11  12
ENDBRANCH  10  11
ENDBRANCH   8  10
ENDBRANCH   7   8
ENDBRANCH   6   7
ENDBRANCH   5   6
ENDBRANCH   4   5
ENDBRANCH   1   4
BRANCH   2  24
HETATM   24  C7  UNL     1      15.970 -22.730 -18.348  1.00  0.00     0.226 C 
HETATM   25  C8  UNL     1      16.776 -23.827 -18.890  1.00  0.00     0.228 C 
HETATM   26  C9  UNL     1      17.024 -24.648 -17.626  1.00  0.00     0.039 C 
HETATM   27  N3  UNL     1      16.419 -24.797 -19.772  1.00  0.00    -0.068 N 
HETATM   28  C10 UNL     1      18.015 -25.605 -18.181  1.00  0.00     0.036 C 
HETATM   29  C14 UNL     1      17.525 -23.553 -16.793  1.00  0.00     0.134 C 
HETATM   30  C11 UNL     1      17.592 -25.725 -19.623  1.00  0.00     0.237 C 
HETATM   31  N4  UNL     1      16.397 -22.557 -17.023  1.00  0.00    -0.330 N 
HETATM   32  C12 UNL     1      15.286 -25.630 -19.606  1.00  0.00     0.272 C 
HETATM   33  C13 UNL     1      16.457 -24.424 -21.189  1.00  0.00     0.272 C 
BRANCH  31  34
HETATM   34  C15 UNL     1      16.095 -21.704 -15.976  1.00  0.00     0.218 C 
BRANCH  34  35
HETATM   35  O2  UNL     1      17.106 -20.982 -15.507  1.00  0.00    -0.332 OA
ATOM     36  H2  UNL     1      16.996 -20.039 -15.546  1.00  0.00     0.220 HD
ENDBRANCH  34  35
BRANCH  34  37
HETATM   37  N5  UNL     1      14.914 -21.431 -15.296  1.00  0.00    -0.347 N 
HETATM   38  C16 UNL     1      14.260 -22.469 -14.454  1.00  0.00     0.126 C 
HETATM   39  C17 UNL     1      13.593 -21.669 -13.390  1.00  0.00     0.021 C 
HETATM   40  C18 UNL     1      13.196 -20.404 -14.077  1.00  0.00     0.021 C 
HETATM   41  C19 UNL     1      14.136 -20.241 -15.254  1.00  0.00     0.126 C 
ENDBRANCH  34  37
ENDBRANCH  31  34
ENDBRANCH   2  24
TORSDOF 13
ENDMDL
MODEL 4
REMARK VINA RESULT: -9.386634790      2.827      7.985
REMARK  13 active torsions:
REMARK  status: ('A' for Active; 'I' for Inactive)
REMARK    1  A    between atoms: N1_2  and  C2_3 
REMARK    2  A    between atoms: N1_2  and  C20_28 
REMARK    3  A    between atoms: C2_3  and  C3_4 
REMARK    4  A    between atoms: C3_4  and  C4_5 
REMARK    5  A    between atoms: C4_5  and  C5_6 
REMARK    6  A    between atoms: C5_6  and  N2_7 
REMARK       I    between atoms: N2_7  and  C6_8 
REMARK    7  A    between atoms: C6_8  and  C7_10 
REMARK    8  A    between atoms: N4_19  and  C15_20 
REMARK    9  A    between atoms: C15_20  and  O2_21 
REMARK   10  A    between atoms: C15_20  and  N5_23 
REMARK   11  A    between atoms: C20_28  and  C21_29 
REMARK   12  A    between atoms: C21_29  and  N6_30 
REMARK   13  A    between atoms: N6_30  and  C23_32 
ROOT
HETATM    1  N2  UNL     1      10.405 -18.990 -18.646  1.00  0.00    -0.386 NA
HETATM    2  C6  UNL     1      10.877 -17.808 -18.134  1.00  0.00     0.316 C 
HETATM    3  O1  UNL     1      12.054 -17.409 -18.159  1.00  0.00    -0.255 OA
ENDROOT
BRANCH   1   4
HETATM    4  C5  UNL     1       9.935 -20.185 -19.167  1.00  0.00     0.159 C 
BRANCH   4   5
HETATM    5  C4  UNL     1      10.419 -21.511 -18.642  1.00  0.00     0.061 C 
BRANCH   5   6
HETATM    6  C3  UNL     1      10.456 -22.470 -19.766  1.00  0.00     0.036 C 
BRANCH   6   7
HETATM    7  C2  UNL     1      11.206 -22.046 -20.984  1.00  0.00     0.272 C 
BRANCH   7   8
HETATM    8  N1  UNL     1      12.587 -22.437 -20.861  1.00  0.00     0.086 N 
HETATM    9  C1  UNL     1      12.847 -23.335 -21.993  1.00  0.00     0.309 C 
BRANCH   8  10
HETATM   10  C20 UNL     1      13.546 -21.460 -20.714  1.00  0.00     0.302 C 
BRANCH  10  11
HETATM   11  C21 UNL     1      14.001 -21.172 -19.316  1.00  0.00     0.303 C 
BRANCH  11  12
HETATM   12  N6  UNL     1      14.272 -22.295 -18.496  1.00  0.00     0.095 N 
HETATM   13  C22 UNL     1      15.455 -22.987 -19.007  1.00  0.00     0.310 C 
BRANCH  12  14
HETATM   14  C23 UNL     1      14.578 -21.842 -17.118  1.00  0.00     0.160 C 
HETATM   15  C24 UNL     1      13.418 -22.151 -16.184  1.00  0.00     0.046 C 
HETATM   16  C25 UNL     1      13.853 -21.843 -14.766  1.00  0.00    -0.011 C 
HETATM   17  C26 UNL     1      15.060 -22.614 -14.323  1.00  0.00     0.009 C 
HETATM   18  C30 UNL     1      14.184 -20.382 -14.686  1.00  0.00     0.009 C 
HETATM   19  C27 UNL     1      16.196 -22.273 -15.229  1.00  0.00    -0.011 C 
HETATM   20  C28 UNL     1      16.534 -20.798 -15.211  1.00  0.00     0.009 C 
HETATM   21  C32 UNL     1      15.793 -22.620 -16.658  1.00  0.00     0.046 C 
HETATM   22  C29 UNL     1      15.289 -20.035 -15.623  1.00  0.00    -0.011 C 
HETATM   23  C31 UNL     1      14.880 -20.380 -17.045  1.00  0.00     0.046 C 
ENDBRANCH  12  14
ENDBRANCH  11  12
ENDBRANCH  10  11
ENDBRANCH   8  10
ENDBRANCH   7   8
ENDBRANCH   6   7
ENDBRANCH   5   6
ENDBRANCH   4   5
ENDBRANCH   1   4
BRANCH   2  24
HETATM   24  C7  UNL     1       9.901 -16.892 -17.449  1.00  0.00     0.226 C 
HETATM   25  C8  UNL     1       9.810 -17.176 -16.015  1.00  0.00     0.228 C 
HETATM   26  C9  UNL     1       8.496 -17.950 -15.962  1.00  0.00     0.039 C 
HETATM   27  N3  UNL     1      10.612 -17.957 -15.245  1.00  0.00    -0.068 N 
HETATM   28  C10 UNL     1       8.342 -18.015 -14.486  1.00  0.00     0.036 C 
HETATM   29  C14 UNL     1       7.680 -16.977 -16.690  1.00  0.00     0.134 C 
HETATM   30  C11 UNL     1       9.770 -18.044 -14.003  1.00  0.00     0.237 C 
HETATM   31  N4  UNL     1       8.579 -16.793 -17.906  1.00  0.00    -0.330 N 
HETATM   32  C12 UNL     1      10.927 -19.302 -15.554  1.00  0.00     0.272 C 
HETATM   33  C13 UNL     1      11.854 -17.337 -14.773  1.00  0.00     0.272 C 
BRANCH  31  34
HETATM   34  C15 UNL     1       7.951 -16.519 -19.109  1.00  0.00     0.218 C 
BRANCH  34  35
HETATM   35  O2  UNL     1       7.784 -15.233 -19.397  1.00  0.00    -0.332 OA
ATOM     36  H2  UNL     1       7.354 -15.046 -20.223  1.00  0.00     0.220 HD
ENDBRANCH  34  35
BRANCH  34  37
HETATM   37  N5  UNL     1       7.448 -17.336 -20.115  1.00  0.00    -0.347 N 
HETATM   38  C16 UNL     1       6.254 -18.192 -19.879  1.00  0.00     0.126 C 
HETATM   39  C17 UNL     1       5.620 -18.263 -21.224  1.00  0.00     0.021 C 
HETATM   40  C18 UNL     1       6.769 -18.223 -22.175  1.00  0.00     0.021 C 
HETATM   41  C19 UNL     1       7.905 -17.534 -21.447  1.00  0.00     0.126 C 
ENDBRANCH  34  37
ENDBRANCH  31  34
ENDBRANCH   2  24
TORSDOF 13
ENDMDL
MODEL 5
REMARK VINA RESULT: -9.302788102      2.818      7.938
REMARK  13 active torsions:
REMARK  status: ('A' for Active; 'I' for Inactive)
REMARK    1  A    between atoms: N1_2  and  C2_3 
REMARK    2  A    between atoms: N1_2  and  C20_28 
REMARK    3  A    between atoms: C2_3  and  C3_4 
REMARK    4  A    between atoms: C3_4  and  C4_5 
REMARK    5  A    between atoms: C4_5  and  C5_6 
REMARK    6  A    between atoms: C5_6  and  N2_7 
REMARK       I    between atoms: N2_7  and  C6_8 
REMARK    7  A    between atoms: C6_8  and  C7_10 
REMARK    8  A    between atoms: N4_19  and  C15_20 
REMARK    9  A    between atoms: C15_20  and  O2_21 
REMARK   10  A    between atoms: C15_20  and  N5_23 
REMARK   11  A    between atoms: C20_28  and  C21_29 
REMARK   12  A    between atoms: C21_29  and  N6_30 
REMARK   13  A    between atoms: N6_30  and  C23_32 
ROOT
HETATM    1  N2  UNL     1      10.432 -18.986 -18.628  1.00  0.00    -0.386 NA
HETATM    2  C6  UNL     1      10.899 -17.802 -18.115  1.00  0.00     0.316 C 
HETATM    3  O1  UNL     1      12.073 -17.397 -18.143  1.00  0.00    -0.255 OA
ENDROOT
BRANCH   1   4
HETATM    4  C5  UNL     1       9.967 -20.183 -19.149  1.00  0.00     0.159 C 
BRANCH   4   5
HETATM    5  C4  UNL     1      10.389 -21.506 -18.568  1.00  0.00     0.061 C 
BRANCH   5   6
HETATM    6  C3  UNL     1      10.443 -22.498 -19.662  1.00  0.00     0.036 C 
BRANCH   6   7
HETATM    7  C2  UNL     1      11.148 -22.083 -20.909  1.00  0.00     0.272 C 
BRANCH   7   8
HETATM    8  N1  UNL     1      12.551 -22.390 -20.796  1.00  0.00     0.086 N 
HETATM    9  C1  UNL     1      12.859 -23.264 -21.935  1.00  0.00     0.309 C 
BRANCH   8  10
HETATM   10  C20 UNL     1      13.450 -21.357 -20.648  1.00  0.00     0.302 C 
BRANCH  10  11
HETATM   11  C21 UNL     1      14.005 -21.144 -19.273  1.00  0.00     0.303 C 
BRANCH  11  12
HETATM   12  N6  UNL     1      14.264 -22.309 -18.508  1.00  0.00     0.095 N 
HETATM   13  C22 UNL     1      15.346 -23.064 -19.137  1.00  0.00     0.310 C 
BRANCH  12  14
HETATM   14  C23 UNL     1      14.717 -21.922 -17.151  1.00  0.00     0.160 C 
HETATM   15  C24 UNL     1      14.940 -20.419 -17.070  1.00  0.00     0.046 C 
HETATM   16  C25 UNL     1      15.216 -20.056 -15.626  1.00  0.00    -0.011 C 
HETATM   17  C26 UNL     1      14.115 -20.442 -14.683  1.00  0.00     0.009 C 
HETATM   18  C30 UNL     1      16.464 -20.770 -15.195  1.00  0.00     0.009 C 
HETATM   19  C27 UNL     1      13.935 -21.922 -14.751  1.00  0.00    -0.011 C 
HETATM   20  C28 UNL     1      15.187 -22.681 -14.366  1.00  0.00     0.009 C 
HETATM   21  C32 UNL     1      13.609 -22.302 -16.192  1.00  0.00     0.046 C 
HETATM   22  C29 UNL     1      16.296 -22.246 -15.304  1.00  0.00    -0.011 C 
HETATM   23  C31 UNL     1      15.975 -22.619 -16.743  1.00  0.00     0.046 C 
ENDBRANCH  12  14
ENDBRANCH  11  12
ENDBRANCH  10  11
ENDBRANCH   8  10
ENDBRANCH   7   8
ENDBRANCH   6   7
ENDBRANCH   5   6
ENDBRANCH   4   5
ENDBRANCH   1   4
BRANCH   2  24
HETATM   24  C7  UNL     1       9.920 -16.893 -17.425  1.00  0.00     0.226 C 
HETATM   25  C8  UNL     1       9.831 -17.185 -15.993  1.00  0.00     0.228 C 
HETATM   26  C9  UNL     1       8.519 -17.965 -15.943  1.00  0.00     0.039 C 
HETATM   27  N3  UNL     1      10.635 -17.969 -15.227  1.00  0.00    -0.068 N 
HETATM   28  C10 UNL     1       8.366 -18.038 -14.467  1.00  0.00     0.036 C 
HETATM   29  C14 UNL     1       7.700 -16.990 -16.666  1.00  0.00     0.134 C 
HETATM   30  C11 UNL     1       9.794 -18.066 -13.985  1.00  0.00     0.237 C 
HETATM   31  N4  UNL     1       8.597 -16.796 -17.881  1.00  0.00    -0.330 N 
HETATM   32  C12 UNL     1      10.954 -19.311 -15.543  1.00  0.00     0.272 C 
HETATM   33  C13 UNL     1      11.875 -17.347 -14.751  1.00  0.00     0.272 C 
BRANCH  31  34
HETATM   34  C15 UNL     1       7.968 -16.517 -19.082  1.00  0.00     0.218 C 
BRANCH  34  35
HETATM   35  O2  UNL     1       7.815 -15.230 -19.372  1.00  0.00    -0.332 OA
ATOM     36  H2  UNL     1       8.163 -14.950 -20.210  1.00  0.00     0.220 HD
ENDBRANCH  34  35
BRANCH  34  37
HETATM   37  N5  UNL     1       7.453 -17.331 -20.085  1.00  0.00    -0.347 N 
HETATM   38  C16 UNL     1       6.236 -18.153 -19.851  1.00  0.00     0.126 C 
HETATM   39  C17 UNL     1       5.610 -18.221 -21.200  1.00  0.00     0.021 C 
HETATM   40  C18 UNL     1       6.768 -18.219 -22.142  1.00  0.00     0.021 C 
HETATM   41  C19 UNL     1       7.916 -17.553 -21.411  1.00  0.00     0.126 C 
ENDBRANCH  34  37
ENDBRANCH  31  34
ENDBRANCH   2  24
TORSDOF 13
ENDMDL
