MODEL 1
REMARK VINA RESULT: -10.344296610      0.000      0.000
REMARK  10 active torsions:
REMARK  status: ('A' for Active; 'I' for Inactive)
REMARK    1  A    between atoms: N1_2  and  C3_4 
REMARK    2  A    between atoms: N1_2  and  C22_28 
REMARK    3  A    between atoms: C3_4  and  C4_5 
REMARK    4  A    between atoms: C4_5  and  C5_6 
REMARK    5  A    between atoms: C5_6  and  N2_7 
REMARK       I    between atoms: N2_7  and  C6_9 
REMARK    6  A    between atoms: C6_9  and  C7_11 
REMARK       I    between atoms: N3_15  and  C11_16 
REMARK    7  A    between atoms: C11_16  and  C12_18 
REMARK    8  A    between atoms: C22_28  and  C23_29 
REMARK    9  A    between atoms: C23_29  and  N4_30 
REMARK   10  A    between atoms: N5_33  and  C26_34 
ROOT
HETATM    1  C5  UNL     1      17.329 -22.933 -15.835  1.00  0.00     0.124 C 
ENDROOT
BRANCH   1   2
HETATM    2  C4  UNL     1      16.058 -22.913 -14.947  1.00  0.00     0.047 C 
BRANCH   2   3
HETATM    3  C3  UNL     1      15.510 -21.551 -15.074  1.00  0.00     0.238 C 
BRANCH   3   4
HETATM    4  N1  UNL     1      14.108 -21.331 -14.806  1.00  0.00    -0.073 N 
HETATM    5  C1  UNL     1      13.310 -21.994 -15.799  1.00  0.00     0.272 C 
HETATM    6  C2  UNL     1      13.848 -21.995 -13.525  1.00  0.00     0.272 C 
BRANCH   4   7
HETATM    7  C22 UNL     1      13.820 -19.935 -14.748  1.00  0.00     0.256 C 
BRANCH   7   8
HETATM    8  C23 UNL     1      12.833 -19.351 -13.853  1.00  0.00     0.154 C 
BRANCH   8   9
HETATM    9  N4  UNL     1      11.616 -18.808 -14.353  1.00  0.00    -0.347 N 
HETATM   10  C24 UNL     1      10.859 -19.487 -15.434  1.00  0.00     0.156 C 
HETATM   11  C25 UNL     1      10.170 -18.365 -16.178  1.00  0.00     0.293 C 
HETATM   12  N5  UNL     1       9.157 -17.683 -15.395  1.00  0.00     0.103 N 
HETATM   13  C32 UNL     1       9.517 -17.562 -13.998  1.00  0.00     0.375 C 
HETATM   14  C33 UNL     1      10.997 -17.615 -13.917  1.00  0.00     0.248 C 
HETATM   15  O3  UNL     1      11.650 -16.627 -13.481  1.00  0.00    -0.271 OA
BRANCH  12  16
HETATM   16  C26 UNL     1       8.937 -16.405 -16.047  1.00  0.00     0.223 C 
HETATM   17  C27 UNL     1       8.175 -15.412 -15.250  1.00  0.00     0.036 C 
HETATM   18  C28 UNL     1       6.688 -15.640 -15.431  1.00  0.00     0.002 C 
HETATM   19  C29 UNL     1       6.329 -15.129 -16.821  1.00  0.00     0.000 C 
HETATM   20  C30 UNL     1       7.400 -15.506 -17.825  1.00  0.00     0.002 C 
HETATM   21  C31 UNL     1       8.216 -16.687 -17.336  1.00  0.00     0.036 C 
ENDBRANCH  12  16
ENDBRANCH   8   9
ENDBRANCH   7   8
ENDBRANCH   4   7
ENDBRANCH   3   4
ENDBRANCH   2   3
ENDBRANCH   1   2
BRANCH   1  22
HETATM   22  N2  UNL     1      16.991 -22.726 -17.219  1.00  0.00    -0.359 N 
HETATM   23  C6  UNL     1      17.016 -23.854 -18.075  1.00  0.00     0.240 C 
HETATM   24  O1  UNL     1      17.322 -24.999 -17.651  1.00  0.00    -0.271 OA
ATOM     25  H2  UNL     1      16.743 -21.801 -17.570  1.00  0.00     0.162 HD
BRANCH  23  26
HETATM   26  C7  UNL     1      16.671 -23.673 -19.507  1.00  0.00     0.179 C 
HETATM   27  C8  UNL     1      17.134 -24.829 -20.319  1.00  0.00     0.037 C 
HETATM   28  C9  UNL     1      15.918 -25.428 -20.938  1.00  0.00     0.022 C 
HETATM   29  C10 UNL     1      14.750 -24.754 -20.223  1.00  0.00     0.127 C 
HETATM   30  N3  UNL     1      15.242 -23.522 -19.690  1.00  0.00    -0.338 N 
HETATM   31  C11 UNL     1      14.512 -22.368 -19.372  1.00  0.00     0.229 C 
HETATM   32  O2  UNL     1      15.173 -21.399 -18.880  1.00  0.00    -0.272 OA
BRANCH  31  33
HETATM   33  C12 UNL     1      13.069 -22.139 -19.540  1.00  0.00     0.042 C 
HETATM   34  C13 UNL     1      12.750 -20.748 -18.952  1.00  0.00     0.024 C 
HETATM   35  C14 UNL     1      11.336 -20.333 -19.207  1.00  0.00    -0.013 C 
HETATM   36  C15 UNL     1      10.446 -21.329 -18.471  1.00  0.00     0.009 C 
HETATM   37  C19 UNL     1      10.978 -20.326 -20.657  1.00  0.00     0.009 C 
HETATM   38  C16 UNL     1      10.733 -22.689 -19.064  1.00  0.00    -0.013 C 
HETATM   39  C17 UNL     1      10.466 -22.721 -20.549  1.00  0.00     0.009 C 
HETATM   40  C21 UNL     1      12.184 -23.102 -18.828  1.00  0.00     0.024 C 
HETATM   41  C18 UNL     1      11.288 -21.684 -21.250  1.00  0.00    -0.013 C 
HETATM   42  C20 UNL     1      12.751 -21.993 -21.015  1.00  0.00     0.024 C 
ENDBRANCH  31  33
ENDBRANCH  23  26
ENDBRANCH   1  22
TORSDOF 10
ENDMDL
MODEL 2
REMARK VINA RESULT: -10.312645214      2.144      7.222
REMARK  10 active torsions:
REMARK  status: ('A' for Active; 'I' for Inactive)
REMARK    1  A    between atoms: N1_2  and  C3_4 
REMARK    2  A    between atoms: N1_2  and  C22_28 
REMARK    3  A    between atoms: C3_4  and  C4_5 
REMARK    4  A    between atoms: C4_5  and  C5_6 
REMARK    5  A    between atoms: C5_6  and  N2_7 
REMARK       I    between atoms: N2_7  and  C6_9 
REMARK    6  A    between atoms: C6_9  and  C7_11 
REMARK       I    between atoms: N3_15  and  C11_16 
REMARK    7  A    between atoms: C11_16  and  C12_18 
REMARK    8  A    between atoms: C22_28  and  C23_29 
REMARK    9  A    between atoms: C23_29  and  N4_30 
REMARK   10  A    between atoms: N5_33  and  C26_34 
ROOT
HETATM    1  C5  UNL     1      12.011 -21.466 -19.098  1.00  0.00     0.124 C 
ENDROOT
BRANCH   1   2
HETATM    2  C4  UNL     1      12.512 -22.403 -20.227  1.00  0.00     0.047 C 
BRANCH   2   3
HETATM    3  C3  UNL     1      13.076 -23.580 -19.541  1.00  0.00     0.238 C 
BRANCH   3   4
HETATM    4  N1  UNL     1      14.386 -24.053 -19.921  1.00  0.00    -0.073 N 
HETATM    5  C1  UNL     1      14.579 -25.394 -19.446  1.00  0.00     0.272 C 
HETATM    6  C2  UNL     1      14.370 -24.109 -21.386  1.00  0.00     0.272 C 
BRANCH   4   7
HETATM    7  C22 UNL     1      15.399 -23.174 -19.435  1.00  0.00     0.256 C 
BRANCH   7   8
HETATM    8  C23 UNL     1      15.751 -23.046 -18.031  1.00  0.00     0.154 C 
BRANCH   8   9
HETATM    9  N4  UNL     1      15.112 -22.086 -17.196  1.00  0.00    -0.347 N 
HETATM   10  C24 UNL     1      14.489 -22.482 -15.908  1.00  0.00     0.156 C 
HETATM   11  C25 UNL     1      13.348 -21.508 -15.722  1.00  0.00     0.293 C 
HETATM   12  N5  UNL     1      13.780 -20.138 -15.514  1.00  0.00     0.103 N 
HETATM   13  C32 UNL     1      14.953 -19.797 -16.290  1.00  0.00     0.375 C 
HETATM   14  C33 UNL     1      14.986 -20.704 -17.463  1.00  0.00     0.248 C 
HETATM   15  O3  UNL     1      14.900 -20.240 -18.633  1.00  0.00    -0.271 OA
BRANCH  12  16
HETATM   16  C26 UNL     1      12.630 -19.304 -15.811  1.00  0.00     0.223 C 
HETATM   17  C27 UNL     1      12.563 -18.028 -15.058  1.00  0.00     0.036 C 
HETATM   18  C28 UNL     1      11.912 -18.261 -13.709  1.00  0.00     0.002 C 
HETATM   19  C29 UNL     1      10.421 -18.444 -13.965  1.00  0.00     0.000 C 
HETATM   20  C30 UNL     1      10.188 -19.283 -15.205  1.00  0.00     0.002 C 
HETATM   21  C31 UNL     1      11.404 -20.128 -15.530  1.00  0.00     0.036 C 
ENDBRANCH  12  16
ENDBRANCH   8   9
ENDBRANCH   7   8
ENDBRANCH   4   7
ENDBRANCH   3   4
ENDBRANCH   2   3
ENDBRANCH   1   2
BRANCH   1  22
HETATM   22  N2  UNL     1      11.634 -20.181 -19.627  1.00  0.00    -0.359 N 
HETATM   23  C6  UNL     1      10.254 -19.940 -19.841  1.00  0.00     0.240 C 
HETATM   24  O1  UNL     1       9.383 -20.811 -19.583  1.00  0.00    -0.271 OA
ATOM     25  H2  UNL     1      12.334 -19.471 -19.839  1.00  0.00     0.162 HD
BRANCH  23  26
HETATM   26  C7  UNL     1       9.835 -18.624 -20.384  1.00  0.00     0.179 C 
HETATM   27  C8  UNL     1       9.195 -18.775 -21.717  1.00  0.00     0.037 C 
HETATM   28  C9  UNL     1       7.805 -18.254 -21.584  1.00  0.00     0.022 C 
HETATM   29  C10 UNL     1       7.603 -18.077 -20.082  1.00  0.00     0.127 C 
HETATM   30  N3  UNL     1       8.902 -17.960 -19.496  1.00  0.00    -0.338 N 
HETATM   31  C11 UNL     1       9.250 -17.345 -18.285  1.00  0.00     0.229 C 
HETATM   32  O2  UNL     1      10.478 -17.395 -17.958  1.00  0.00    -0.272 OA
BRANCH  31  33
HETATM   33  C12 UNL     1       8.364 -16.647 -17.342  1.00  0.00     0.042 C 
HETATM   34  C13 UNL     1       7.568 -17.722 -16.572  1.00  0.00     0.024 C 
HETATM   35  C14 UNL     1       6.744 -17.138 -15.468  1.00  0.00    -0.013 C 
HETATM   36  C15 UNL     1       5.715 -16.225 -16.123  1.00  0.00     0.009 C 
HETATM   37  C19 UNL     1       7.550 -16.352 -14.486  1.00  0.00     0.009 C 
HETATM   38  C16 UNL     1       6.488 -15.153 -16.856  1.00  0.00    -0.013 C 
HETATM   39  C17 UNL     1       7.385 -14.373 -15.925  1.00  0.00     0.009 C 
HETATM   40  C21 UNL     1       7.351 -15.750 -17.965  1.00  0.00     0.024 C 
HETATM   41  C18 UNL     1       8.339 -15.293 -15.227  1.00  0.00    -0.013 C 
HETATM   42  C20 UNL     1       9.199 -15.973 -16.271  1.00  0.00     0.024 C 
ENDBRANCH  31  33
ENDBRANCH  23  26
ENDBRANCH   1  22
TORSDOF 10
ENDMDL
MODEL 3
REMARK VINA RESULT: -10.257497599      2.242      7.149
REMARK  10 active torsions:
REMARK  status: ('A' for Active; 'I' for Inactive)
REMARK    1  A    between atoms: N1_2  and  C3_4 
REMARK    2  A    between atoms: N1_2  and  C22_28 
REMARK    3  A    between atoms: C3_4  and  C4_5 
REMARK    4  A    between atoms: C4_5  and  C5_6 
REMARK    5  A    between atoms: C5_6  and  N2_7 
REMARK       I    between atoms: N2_7  and  C6_9 
REMARK    6  A    between atoms: C6_9  and  C7_11 
REMARK       I    between atoms: N3_15  and  C11_16 
REMARK    7  A    between atoms: C11_16  and  C12_18 
REMARK    8  A    between atoms: C22_28  and  C23_29 
REMARK    9  A    between atoms: C23_29  and  N4_30 
REMARK   10  A    between atoms: N5_33  and  C26_34 
ROOT
HETATM    1  C5  UNL     1      11.957 -21.692 -20.400  1.00  0.00     0.124 C 
ENDROOT
BRANCH   1   2
HETATM    2  C4  UNL     1      13.408 -21.893 -20.908  1.00  0.00     0.047 C 
BRANCH   2   3
HETATM    3  C3  UNL     1      13.607 -23.353 -20.962  1.00  0.00     0.238 C 
BRANCH   3   4
HETATM    4  N1  UNL     1      14.563 -23.964 -20.068  1.00  0.00    -0.073 N 
HETATM    5  C1  UNL     1      13.905 -24.928 -19.232  1.00  0.00     0.272 C 
HETATM    6  C2  UNL     1      15.489 -24.701 -20.935  1.00  0.00     0.272 C 
BRANCH   4   7
HETATM    7  C22 UNL     1      15.236 -22.972 -19.296  1.00  0.00     0.256 C 
BRANCH   7   8
HETATM    8  C23 UNL     1      15.150 -22.881 -17.847  1.00  0.00     0.154 C 
BRANCH   8   9
HETATM    9  N4  UNL     1      14.448 -21.814 -17.217  1.00  0.00    -0.347 N 
HETATM   10  C24 UNL     1      15.173 -20.678 -16.598  1.00  0.00     0.156 C 
HETATM   11  C25 UNL     1      14.280 -20.230 -15.463  1.00  0.00     0.293 C 
HETATM   12  N5  UNL     1      13.019 -19.663 -15.904  1.00  0.00     0.103 N 
HETATM   13  C32 UNL     1      12.487 -20.324 -17.076  1.00  0.00     0.375 C 
HETATM   14  C33 UNL     1      13.045 -21.699 -17.099  1.00  0.00     0.248 C 
HETATM   15  O3  UNL     1      12.283 -22.700 -17.010  1.00  0.00    -0.271 OA
BRANCH  12  16
HETATM   16  C26 UNL     1      12.130 -19.718 -14.758  1.00  0.00     0.223 C 
HETATM   17  C27 UNL     1      10.956 -18.814 -14.824  1.00  0.00     0.036 C 
HETATM   18  C28 UNL     1      11.341 -17.435 -14.325  1.00  0.00     0.002 C 
HETATM   19  C29 UNL     1      11.459 -17.532 -12.809  1.00  0.00     0.000 C 
HETATM   20  C30 UNL     1      12.133 -18.827 -12.404  1.00  0.00     0.002 C 
HETATM   21  C31 UNL     1      12.957 -19.394 -13.544  1.00  0.00     0.036 C 
ENDBRANCH  12  16
ENDBRANCH   8   9
ENDBRANCH   7   8
ENDBRANCH   4   7
ENDBRANCH   3   4
ENDBRANCH   2   3
ENDBRANCH   1   2
BRANCH   1  22
HETATM   22  N2  UNL     1      11.451 -20.402 -20.791  1.00  0.00    -0.359 N 
HETATM   23  C6  UNL     1      10.262 -19.949 -20.169  1.00  0.00     0.240 C 
HETATM   24  O1  UNL     1       9.661 -20.642 -19.308  1.00  0.00    -0.271 OA
ATOM     25  H2  UNL     1      11.932 -19.835 -21.489  1.00  0.00     0.162 HD
BRANCH  23  26
HETATM   26  C7  UNL     1       9.717 -18.622 -20.551  1.00  0.00     0.179 C 
HETATM   27  C8  UNL     1       9.008 -18.691 -21.856  1.00  0.00     0.037 C 
HETATM   28  C9  UNL     1       7.595 -18.294 -21.594  1.00  0.00     0.022 C 
HETATM   29  C10 UNL     1       7.474 -18.281 -20.073  1.00  0.00     0.127 C 
HETATM   30  N3  UNL     1       8.796 -18.123 -19.550  1.00  0.00    -0.338 N 
HETATM   31  C11 UNL     1       9.173 -17.605 -18.303  1.00  0.00     0.229 C 
HETATM   32  O2  UNL     1      10.420 -17.591 -18.051  1.00  0.00    -0.272 OA
BRANCH  31  33
HETATM   33  C12 UNL     1       8.300 -17.072 -17.247  1.00  0.00     0.042 C 
HETATM   34  C13 UNL     1       9.087 -15.967 -16.511  1.00  0.00     0.024 C 
HETATM   35  C14 UNL     1       8.244 -15.238 -15.512  1.00  0.00    -0.013 C 
HETATM   36  C15 UNL     1       7.835 -16.256 -14.454  1.00  0.00     0.009 C 
HETATM   37  C19 UNL     1       7.020 -14.627 -16.111  1.00  0.00     0.009 C 
HETATM   38  C16 UNL     1       7.039 -17.326 -15.165  1.00  0.00    -0.013 C 
HETATM   39  C17 UNL     1       5.827 -16.754 -15.861  1.00  0.00     0.009 C 
HETATM   40  C21 UNL     1       7.891 -18.053 -16.203  1.00  0.00     0.024 C 
HETATM   41  C18 UNL     1       6.238 -15.699 -16.841  1.00  0.00    -0.013 C 
HETATM   42  C20 UNL     1       7.138 -16.333 -17.880  1.00  0.00     0.024 C 
ENDBRANCH  31  33
ENDBRANCH  23  26
ENDBRANCH   1  22
TORSDOF 10
ENDMDL
MODEL 4
REMARK VINA RESULT: -10.177963482      2.188      7.159
REMARK  10 active torsions:
REMARK  status: ('A' for Active; 'I' for Inactive)
REMARK    1  A    between atoms: N1_2  and  C3_4 
REMARK    2  A    between atoms: N1_2  and  C22_28 
REMARK    3  A    between atoms: C3_4  and  C4_5 
REMARK    4  A    between atoms: C4_5  and  C5_6 
REMARK    5  A    between atoms: C5_6  and  N2_7 
REMARK       I    between atoms: N2_7  and  C6_9 
REMARK    6  A    between atoms: C6_9  and  C7_11 
REMARK       I    between atoms: N3_15  and  C11_16 
REMARK    7  A    between atoms: C11_16  and  C12_18 
REMARK    8  A    between atoms: C22_28  and  C23_29 
REMARK    9  A    between atoms: C23_29  and  N4_30 
REMARK   10  A    between atoms: N5_33  and  C26_34 
ROOT
HETATM    1  C5  UNL     1      12.067 -21.759 -20.449  1.00  0.00     0.124 C 
ENDROOT
BRANCH   1   2
HETATM    2  C4  UNL     1      13.483 -21.999 -21.033  1.00  0.00     0.047 C 
BRANCH   2   3
HETATM    3  C3  UNL     1      13.662 -23.462 -21.042  1.00  0.00     0.238 C 
BRANCH   3   4
HETATM    4  N1  UNL     1      14.740 -24.042 -20.276  1.00  0.00    -0.073 N 
HETATM    5  C1  UNL     1      14.265 -25.189 -19.554  1.00  0.00     0.272 C 
HETATM    6  C2  UNL     1      15.708 -24.523 -21.267  1.00  0.00     0.272 C 
BRANCH   4   7
HETATM    7  C22 UNL     1      15.314 -23.073 -19.401  1.00  0.00     0.256 C 
BRANCH   7   8
HETATM    8  C23 UNL     1      15.530 -23.294 -17.981  1.00  0.00     0.154 C 
BRANCH   8   9
HETATM    9  N4  UNL     1      14.772 -22.591 -17.002  1.00  0.00    -0.347 N 
HETATM   10  C24 UNL     1      13.330 -22.306 -17.208  1.00  0.00     0.156 C 
HETATM   11  C25 UNL     1      13.089 -21.011 -16.465  1.00  0.00     0.293 C 
HETATM   12  N5  UNL     1      13.237 -21.129 -15.027  1.00  0.00     0.103 N 
HETATM   13  C32 UNL     1      14.296 -22.039 -14.645  1.00  0.00     0.375 C 
HETATM   14  C33 UNL     1      15.258 -22.093 -15.773  1.00  0.00     0.248 C 
HETATM   15  O3  UNL     1      16.448 -21.704 -15.617  1.00  0.00    -0.271 OA
BRANCH  12  16
HETATM   16  C26 UNL     1      13.432 -19.779 -14.530  1.00  0.00     0.223 C 
HETATM   17  C27 UNL     1      12.680 -19.445 -13.295  1.00  0.00     0.036 C 
HETATM   18  C28 UNL     1      11.277 -18.998 -13.653  1.00  0.00     0.002 C 
HETATM   19  C29 UNL     1      11.395 -17.591 -14.226  1.00  0.00     0.000 C 
HETATM   20  C30 UNL     1      12.606 -17.479 -15.131  1.00  0.00     0.002 C 
HETATM   21  C31 UNL     1      13.037 -18.841 -15.638  1.00  0.00     0.036 C 
ENDBRANCH  12  16
ENDBRANCH   8   9
ENDBRANCH   7   8
ENDBRANCH   4   7
ENDBRANCH   3   4
ENDBRANCH   2   3
ENDBRANCH   1   2
BRANCH   1  22
HETATM   22  N2  UNL     1      11.591 -20.442 -20.783  1.00  0.00    -0.359 N 
HETATM   23  C6  UNL     1      10.362 -20.026 -20.213  1.00  0.00     0.240 C 
HETATM   24  O1  UNL     1       9.704 -20.774 -19.444  1.00  0.00    -0.271 OA
ATOM     25  H2  UNL     1      12.118 -19.832 -21.406  1.00  0.00     0.162 HD
BRANCH  23  26
HETATM   26  C7  UNL     1       9.846 -18.673 -20.537  1.00  0.00     0.179 C 
HETATM   27  C8  UNL     1       9.131 -18.673 -21.841  1.00  0.00     0.037 C 
HETATM   28  C9  UNL     1       7.729 -18.255 -21.557  1.00  0.00     0.022 C 
HETATM   29  C10 UNL     1       7.613 -18.302 -20.036  1.00  0.00     0.127 C 
HETATM   30  N3  UNL     1       8.940 -18.195 -19.513  1.00  0.00    -0.338 N 
HETATM   31  C11 UNL     1       9.333 -17.737 -18.247  1.00  0.00     0.229 C 
HETATM   32  O2  UNL     1      10.581 -17.761 -18.000  1.00  0.00    -0.272 OA
BRANCH  31  33
HETATM   33  C12 UNL     1       8.476 -17.229 -17.167  1.00  0.00     0.042 C 
HETATM   34  C13 UNL     1       9.178 -15.994 -16.561  1.00  0.00     0.024 C 
HETATM   35  C14 UNL     1       8.325 -15.292 -15.553  1.00  0.00    -0.013 C 
HETATM   36  C15 UNL     1       8.104 -16.270 -14.405  1.00  0.00     0.009 C 
HETATM   37  C19 UNL     1       7.003 -14.863 -16.099  1.00  0.00     0.009 C 
HETATM   38  C16 UNL     1       7.391 -17.469 -14.987  1.00  0.00    -0.013 C 
HETATM   39  C17 UNL     1       6.079 -17.084 -15.627  1.00  0.00     0.009 C 
HETATM   40  C21 UNL     1       8.250 -18.171 -16.036  1.00  0.00     0.024 C 
HETATM   41  C18 UNL     1       6.302 -16.062 -16.700  1.00  0.00    -0.013 C 
HETATM   42  C20 UNL     1       7.198 -16.667 -17.759  1.00  0.00     0.024 C 
ENDBRANCH  31  33
ENDBRANCH  23  26
ENDBRANCH   1  22
TORSDOF 10
ENDMDL
MODEL 5
REMARK VINA RESULT: -10.175833544      2.441      8.110
REMARK  10 active torsions:
REMARK  status: ('A' for Active; 'I' for Inactive)
REMARK    1  A    between atoms: N1_2  and  C3_4 
REMARK    2  A    between atoms: N1_2  and  C22_28 
REMARK    3  A    between atoms: C3_4  and  C4_5 
REMARK    4  A    between atoms: C4_5  and  C5_6 
REMARK    5  A    between atoms: C5_6  and  N2_7 
REMARK       I    between atoms: N2_7  and  C6_9 
REMARK    6  A    between atoms: C6_9  and  C7_11 
REMARK       I    between atoms: N3_15  and  C11_16 
REMARK    7  A    between atoms: C11_16  and  C12_18 
REMARK    8  A    between atoms: C22_28  and  C23_29 
REMARK    9  A    between atoms: C23_29  and  N4_30 
REMARK   10  A    between atoms: N5_33  and  C26_34 
ROOT
HETATM    1  C5  UNL     1       8.365 -17.631 -15.570  1.00  0.00     0.124 C 
ENDROOT
BRANCH   1   2
HETATM    2  C4  UNL     1       9.081 -18.379 -14.417  1.00  0.00     0.047 C 
BRANCH   2   3
HETATM    3  C3  UNL     1      10.244 -19.038 -15.038  1.00  0.00     0.238 C 
BRANCH   3   4
HETATM    4  N1  UNL     1      11.572 -18.584 -14.697  1.00  0.00    -0.073 N 
HETATM    5  C1  UNL     1      12.095 -17.764 -15.754  1.00  0.00     0.272 C 
HETATM    6  C2  UNL     1      11.399 -17.722 -13.523  1.00  0.00     0.272 C 
BRANCH   4   7
HETATM    7  C22 UNL     1      12.427 -19.692 -14.421  1.00  0.00     0.256 C 
BRANCH   7   8
HETATM    8  C23 UNL     1      13.829 -19.744 -14.803  1.00  0.00     0.154 C 
BRANCH   8   9
HETATM    9  N4  UNL     1      14.553 -20.970 -14.781  1.00  0.00    -0.347 N 
HETATM   10  C24 UNL     1      13.918 -22.228 -14.316  1.00  0.00     0.156 C 
HETATM   11  C25 UNL     1      15.054 -23.031 -13.724  1.00  0.00     0.293 C 
HETATM   12  N5  UNL     1      16.038 -23.457 -14.702  1.00  0.00     0.103 N 
HETATM   13  C32 UNL     1      16.262 -22.470 -15.738  1.00  0.00     0.375 C 
HETATM   14  C33 UNL     1      15.899 -21.147 -15.173  1.00  0.00     0.248 C 
HETATM   15  O3  UNL     1      16.770 -20.242 -15.053  1.00  0.00    -0.271 OA
BRANCH  12  16
HETATM   16  C26 UNL     1      17.236 -23.786 -13.952  1.00  0.00     0.223 C 
HETATM   17  C27 UNL     1      17.732 -25.173 -14.130  1.00  0.00     0.036 C 
HETATM   18  C28 UNL     1      17.008 -26.104 -13.178  1.00  0.00     0.002 C 
HETATM   19  C29 UNL     1      17.576 -25.843 -11.788  1.00  0.00     0.000 C 
HETATM   20  C30 UNL     1      17.792 -24.359 -11.566  1.00  0.00     0.002 C 
HETATM   21  C31 UNL     1      16.929 -23.535 -12.501  1.00  0.00     0.036 C 
ENDBRANCH  12  16
ENDBRANCH   8   9
ENDBRANCH   7   8
ENDBRANCH   4   7
ENDBRANCH   3   4
ENDBRANCH   2   3
ENDBRANCH   1   2
BRANCH   1  22
HETATM   22  N2  UNL     1       8.210 -18.484 -16.719  1.00  0.00    -0.359 N 
HETATM   23  C6  UNL     1       8.447 -17.916 -17.995  1.00  0.00     0.240 C 
HETATM   24  O1  UNL     1       8.779 -16.710 -18.129  1.00  0.00    -0.271 OA
ATOM     25  H2  UNL     1       7.940 -19.463 -16.618  1.00  0.00     0.162 HD
BRANCH  23  26
HETATM   26  C7  UNL     1       8.297 -18.772 -19.198  1.00  0.00     0.179 C 
HETATM   27  C8  UNL     1       7.843 -17.975 -20.368  1.00  0.00     0.037 C 
HETATM   28  C9  UNL     1       8.906 -18.101 -21.405  1.00  0.00     0.022 C 
HETATM   29  C10 UNL     1      10.081 -18.748 -20.678  1.00  0.00     0.127 C 
HETATM   30  N3  UNL     1       9.543 -19.426 -19.539  1.00  0.00    -0.338 N 
HETATM   31  C11 UNL     1      10.096 -20.510 -18.841  1.00  0.00     0.229 C 
HETATM   32  O2  UNL     1       9.440 -20.926 -17.834  1.00  0.00    -0.272 OA
BRANCH  31  33
HETATM   33  C12 UNL     1      11.345 -21.228 -19.134  1.00  0.00     0.042 C 
HETATM   34  C13 UNL     1      12.415 -20.714 -18.148  1.00  0.00     0.024 C 
HETATM   35  C14 UNL     1      13.693 -21.486 -18.242  1.00  0.00    -0.013 C 
HETATM   36  C15 UNL     1      14.247 -21.251 -19.643  1.00  0.00     0.009 C 
HETATM   37  C19 UNL     1      13.511 -22.952 -18.022  1.00  0.00     0.009 C 
HETATM   38  C16 UNL     1      13.215 -21.778 -20.613  1.00  0.00    -0.013 C 
HETATM   39  C17 UNL     1      12.929 -23.243 -20.386  1.00  0.00     0.009 C 
HETATM   40  C21 UNL     1      11.901 -21.009 -20.498  1.00  0.00     0.024 C 
HETATM   41  C18 UNL     1      12.461 -23.472 -18.981  1.00  0.00    -0.013 C 
HETATM   42  C20 UNL     1      11.182 -22.690 -18.768  1.00  0.00     0.024 C 
ENDBRANCH  31  33
ENDBRANCH  23  26
ENDBRANCH   1  22
TORSDOF 10
ENDMDL
