MODEL 1
REMARK VINA RESULT: -9.409261138      0.000      0.000
REMARK  10 active torsions:
REMARK  status: ('A' for Active; 'I' for Inactive)
REMARK    1  A    between atoms: O1_2  and  C2_3 
REMARK    2  A    between atoms: C2_3  and  O2_4 
REMARK    3  A    between atoms: C2_3  and  C3_6 
REMARK    4  A    between atoms: C3_6  and  C4_7 
REMARK    5  A    between atoms: C4_7  and  C5_8 
REMARK    6  A    between atoms: C5_8  and  C6_9 
REMARK    7  A    between atoms: C6_9  and  C7_10 
REMARK    8  A    between atoms: C7_10  and  C9_12 
REMARK    9  A    between atoms: C19_22  and  O3_23 
REMARK   10  A    between atoms: N1_26  and  O4_28 
ROOT
HETATM    1  C9  UNL     1     -13.725  -6.001  39.099  1.00  0.00    -0.073 C 
HETATM    2  C10 UNL     1     -12.943  -6.989  38.702  1.00  0.00    -0.073 C 
HETATM    3  C11 UNL     1     -11.491  -7.080  38.360  1.00  0.00     0.035 C 
HETATM    4  C12 UNL     1     -11.271  -7.737  37.026  1.00  0.00     0.011 C 
HETATM    5  C13 UNL     1     -12.355  -8.635  36.560  1.00  0.00     0.009 C 
HETATM    6  C14 UNL     1     -13.235  -9.215  37.636  1.00  0.00     0.003 C 
HETATM    7  C15 UNL     1     -14.397  -9.923  37.008  1.00  0.00     0.033 C 
HETATM    8  C16 UNL     1     -13.909 -10.898  36.010  1.00  0.00    -0.022 C 
HETATM    9  C17 UNL     1     -12.694 -10.864  35.537  1.00  0.00    -0.066 C 
HETATM   10  C18 UNL     1     -11.939 -11.708  34.534  1.00  0.00     0.073 C 
HETATM   11  C19 UNL     1     -11.374 -10.591  33.647  1.00  0.00     0.170 C 
HETATM   12  C20 UNL     1     -11.042  -9.522  34.643  1.00  0.00     0.051 C 
HETATM   13  N1  UNL     1     -10.329  -8.469  34.423  1.00  0.00    -0.274 N 
ATOM     14  H1  UNL     1     -10.160  -7.797  35.171  1.00  0.00     0.193 HD
HETATM   15  C21 UNL     1     -11.660  -9.855  35.937  1.00  0.00     0.026 C 
HETATM   16  C22 UNL     1     -10.697 -10.502  36.887  1.00  0.00     0.027 C 
HETATM   17  C23 UNL     1     -13.764  -8.221  38.619  1.00  0.00     0.020 C 
HETATM   18  C24 UNL     1     -15.137  -7.703  38.331  1.00  0.00     0.014 C 
HETATM   19  C25 UNL     1     -15.148  -6.484  39.282  1.00  0.00     0.035 C 
ENDROOT
BRANCH   1  20
HETATM   20  C7  UNL     1     -13.291  -4.584  39.328  1.00  0.00     0.011 C 
HETATM   21  C8  UNL     1     -14.544  -3.713  39.176  1.00  0.00     0.015 C 
BRANCH  20  22
HETATM   22  C6  UNL     1     -12.811  -4.376  40.737  1.00  0.00     0.009 C 
BRANCH  22  23
HETATM   23  C5  UNL     1     -11.327  -4.443  40.908  1.00  0.00     0.001 C 
BRANCH  23  24
HETATM   24  C4  UNL     1     -10.562  -3.848  39.769  1.00  0.00     0.005 C 
BRANCH  24  25
HETATM   25  C3  UNL     1      -9.079  -3.859  39.942  1.00  0.00     0.060 C 
BRANCH  25  26
HETATM   26  C2  UNL     1      -8.293  -4.020  38.677  1.00  0.00     0.256 C 
BRANCH  26  27
HETATM   27  O1  UNL     1      -6.987  -3.618  38.811  1.00  0.00    -0.366 OA
HETATM   28  C1  UNL     1      -6.760  -2.270  38.726  1.00  0.00     0.204 C 
ENDBRANCH  26  27
BRANCH  26  29
HETATM   29  O2  UNL     1      -8.245  -5.414  38.426  1.00  0.00    -0.371 OA
ATOM     30  H2  UNL     1      -8.555  -5.832  39.221  1.00  0.00     0.212 HD
ENDBRANCH  26  29
ENDBRANCH  25  26
ENDBRANCH  24  25
ENDBRANCH  23  24
ENDBRANCH  22  23
ENDBRANCH  20  22
ENDBRANCH   1  20
BRANCH  11  31
HETATM   31  O3  UNL     1     -12.346 -10.177  32.761  1.00  0.00    -0.389 OA
ATOM     32  H3  UNL     1     -12.095  -9.341  32.388  1.00  0.00     0.210 HD
ENDBRANCH  11  31
BRANCH  13  33
HETATM   33  O4  UNL     1      -9.806  -8.262  33.189  1.00  0.00    -0.290 OA
ATOM     34  H4  UNL     1     -10.170  -7.582  32.634  1.00  0.00     0.244 HD
ENDBRANCH  13  33
TORSDOF 10
ENDMDL
MODEL 2
REMARK VINA RESULT: -9.208570424      2.582      3.868
REMARK  10 active torsions:
REMARK  status: ('A' for Active; 'I' for Inactive)
REMARK    1  A    between atoms: O1_2  and  C2_3 
REMARK    2  A    between atoms: C2_3  and  O2_4 
REMARK    3  A    between atoms: C2_3  and  C3_6 
REMARK    4  A    between atoms: C3_6  and  C4_7 
REMARK    5  A    between atoms: C4_7  and  C5_8 
REMARK    6  A    between atoms: C5_8  and  C6_9 
REMARK    7  A    between atoms: C6_9  and  C7_10 
REMARK    8  A    between atoms: C7_10  and  C9_12 
REMARK    9  A    between atoms: C19_22  and  O3_23 
REMARK   10  A    between atoms: N1_26  and  O4_28 
ROOT
HETATM    1  C9  UNL     1     -11.172  -3.126  36.139  1.00  0.00    -0.073 C 
HETATM    2  C10 UNL     1     -11.688  -4.340  36.072  1.00  0.00    -0.073 C 
HETATM    3  C11 UNL     1     -12.507  -5.164  37.011  1.00  0.00     0.035 C 
HETATM    4  C12 UNL     1     -11.923  -6.536  37.205  1.00  0.00     0.011 C 
HETATM    5  C13 UNL     1     -11.055  -7.030  36.110  1.00  0.00     0.009 C 
HETATM    6  C14 UNL     1     -11.287  -6.410  34.757  1.00  0.00     0.003 C 
HETATM    7  C15 UNL     1     -10.209  -6.850  33.811  1.00  0.00     0.033 C 
HETATM    8  C16 UNL     1     -10.114  -8.325  33.812  1.00  0.00    -0.022 C 
HETATM    9  C17 UNL     1     -10.649  -9.059  34.749  1.00  0.00    -0.066 C 
HETATM   10  C18 UNL     1     -10.708 -10.548  35.003  1.00  0.00     0.073 C 
HETATM   11  C19 UNL     1     -10.256 -10.567  36.469  1.00  0.00     0.170 C 
HETATM   12  C20 UNL     1     -10.908  -9.338  37.026  1.00  0.00     0.051 C 
HETATM   13  N1  UNL     1     -11.020  -9.034  38.275  1.00  0.00    -0.274 N 
ATOM     14  H1  UNL     1     -11.483  -8.169  38.553  1.00  0.00     0.193 HD
HETATM   15  C21 UNL     1     -11.413  -8.512  35.917  1.00  0.00     0.026 C 
HETATM   16  C22 UNL     1     -12.879  -8.710  35.670  1.00  0.00     0.027 C 
HETATM   17  C23 UNL     1     -11.338  -4.917  34.751  1.00  0.00     0.020 C 
HETATM   18  C24 UNL     1     -10.055  -4.231  34.403  1.00  0.00     0.014 C 
HETATM   19  C25 UNL     1     -10.400  -2.801  34.877  1.00  0.00     0.035 C 
ENDROOT
BRANCH   1  20
HETATM   20  C7  UNL     1     -11.302  -2.185  37.300  1.00  0.00     0.011 C 
HETATM   21  C8  UNL     1     -12.597  -2.565  38.027  1.00  0.00     0.015 C 
BRANCH  20  22
HETATM   22  C6  UNL     1     -10.195  -2.383  38.296  1.00  0.00     0.009 C 
BRANCH  22  23
HETATM   23  C5  UNL     1     -10.412  -3.508  39.257  1.00  0.00     0.001 C 
BRANCH  23  24
HETATM   24  C4  UNL     1      -9.231  -4.414  39.398  1.00  0.00     0.005 C 
BRANCH  24  25
HETATM   25  C3  UNL     1      -8.399  -4.549  38.166  1.00  0.00     0.060 C 
BRANCH  25  26
HETATM   26  C2  UNL     1      -6.984  -4.074  38.299  1.00  0.00     0.256 C 
BRANCH  26  27
HETATM   27  O1  UNL     1      -6.854  -3.047  39.202  1.00  0.00    -0.366 OA
HETATM   28  C1  UNL     1      -6.679  -1.797  38.671  1.00  0.00     0.204 C 
ENDBRANCH  26  27
BRANCH  26  29
HETATM   29  O2  UNL     1      -6.260  -5.163  38.846  1.00  0.00    -0.371 OA
ATOM     30  H2  UNL     1      -6.914  -5.778  39.159  1.00  0.00     0.212 HD
ENDBRANCH  26  29
ENDBRANCH  25  26
ENDBRANCH  24  25
ENDBRANCH  23  24
ENDBRANCH  22  23
ENDBRANCH  20  22
ENDBRANCH   1  20
BRANCH  11  31
HETATM   31  O3  UNL     1      -8.881 -10.482  36.522  1.00  0.00    -0.389 OA
ATOM     32  H3  UNL     1      -8.578 -10.812  37.359  1.00  0.00     0.210 HD
ENDBRANCH  11  31
BRANCH  13  33
HETATM   33  O4  UNL     1     -10.517  -9.872  39.214  1.00  0.00    -0.290 OA
ATOM     34  H4  UNL     1     -11.105 -10.290  39.832  1.00  0.00     0.244 HD
ENDBRANCH  13  33
TORSDOF 10
ENDMDL
MODEL 3
REMARK VINA RESULT: -9.185813713      1.834      6.130
REMARK  10 active torsions:
REMARK  status: ('A' for Active; 'I' for Inactive)
REMARK    1  A    between atoms: O1_2  and  C2_3 
REMARK    2  A    between atoms: C2_3  and  O2_4 
REMARK    3  A    between atoms: C2_3  and  C3_6 
REMARK    4  A    between atoms: C3_6  and  C4_7 
REMARK    5  A    between atoms: C4_7  and  C5_8 
REMARK    6  A    between atoms: C5_8  and  C6_9 
REMARK    7  A    between atoms: C6_9  and  C7_10 
REMARK    8  A    between atoms: C7_10  and  C9_12 
REMARK    9  A    between atoms: C19_22  and  O3_23 
REMARK   10  A    between atoms: N1_26  and  O4_28 
ROOT
HETATM    1  C9  UNL     1     -13.719  -8.407  37.958  1.00  0.00    -0.073 C 
HETATM    2  C10 UNL     1     -13.184  -7.226  37.704  1.00  0.00    -0.073 C 
HETATM    3  C11 UNL     1     -12.767  -6.533  36.447  1.00  0.00     0.035 C 
HETATM    4  C12 UNL     1     -11.363  -6.006  36.540  1.00  0.00     0.011 C 
HETATM    5  C13 UNL     1     -10.856  -5.749  37.909  1.00  0.00     0.009 C 
HETATM    6  C14 UNL     1     -11.906  -5.506  38.962  1.00  0.00     0.003 C 
HETATM    7  C15 UNL     1     -11.262  -5.472  40.316  1.00  0.00     0.033 C 
HETATM    8  C16 UNL     1     -10.145  -4.504  40.314  1.00  0.00    -0.022 C 
HETATM    9  C17 UNL     1      -9.622  -4.043  39.212  1.00  0.00    -0.066 C 
HETATM   10  C18 UNL     1      -8.502  -3.072  38.913  1.00  0.00     0.073 C 
HETATM   11  C19 UNL     1      -7.711  -3.910  37.900  1.00  0.00     0.170 C 
HETATM   12  C20 UNL     1      -8.797  -4.595  37.127  1.00  0.00     0.051 C 
HETATM   13  N1  UNL     1      -8.655  -5.233  36.015  1.00  0.00    -0.274 N 
ATOM     14  H1  UNL     1      -9.461  -5.668  35.565  1.00  0.00     0.193 HD
HETATM   15  C21 UNL     1     -10.077  -4.428  37.836  1.00  0.00     0.026 C 
HETATM   16  C22 UNL     1     -10.908  -3.313  37.274  1.00  0.00     0.027 C 
HETATM   17  C23 UNL     1     -13.011  -6.511  38.992  1.00  0.00     0.020 C 
HETATM   18  C24 UNL     1     -12.844  -7.620  39.982  1.00  0.00     0.014 C 
HETATM   19  C25 UNL     1     -13.917  -8.596  39.448  1.00  0.00     0.035 C 
ENDROOT
BRANCH   1  20
HETATM   20  C7  UNL     1     -14.075  -9.442  36.933  1.00  0.00     0.011 C 
HETATM   21  C8  UNL     1     -15.389  -8.985  36.288  1.00  0.00     0.015 C 
BRANCH  20  22
HETATM   22  C6  UNL     1     -13.063  -9.489  35.824  1.00  0.00     0.009 C 
BRANCH  22  23
HETATM   23  C5  UNL     1     -11.778 -10.166  36.177  1.00  0.00     0.001 C 
BRANCH  23  24
HETATM   24  C4  UNL     1     -10.569  -9.499  35.603  1.00  0.00     0.005 C 
BRANCH  24  25
HETATM   25  C3  UNL     1     -10.809  -8.774  34.319  1.00  0.00     0.060 C 
BRANCH  25  26
HETATM   26  C2  UNL     1      -9.655  -7.957  33.826  1.00  0.00     0.256 C 
BRANCH  26  27
HETATM   27  O1  UNL     1      -9.926  -6.611  33.815  1.00  0.00    -0.366 OA
HETATM   28  C1  UNL     1     -10.041  -6.030  32.580  1.00  0.00     0.204 C 
ENDBRANCH  26  27
BRANCH  26  29
HETATM   29  O2  UNL     1      -8.619  -8.136  34.777  1.00  0.00    -0.371 OA
ATOM     30  H2  UNL     1      -8.043  -8.798  34.412  1.00  0.00     0.212 HD
ENDBRANCH  26  29
ENDBRANCH  25  26
ENDBRANCH  24  25
ENDBRANCH  23  24
ENDBRANCH  22  23
ENDBRANCH  20  22
ENDBRANCH   1  20
BRANCH  11  31
HETATM   31  O3  UNL     1      -6.921  -4.815  38.576  1.00  0.00    -0.389 OA
ATOM     32  H3  UNL     1      -6.366  -4.349  39.190  1.00  0.00     0.210 HD
ENDBRANCH  11  31
BRANCH  13  33
HETATM   33  O4  UNL     1      -7.427  -5.324  35.449  1.00  0.00    -0.290 OA
ATOM     34  H4  UNL     1      -7.292  -5.912  34.715  1.00  0.00     0.244 HD
ENDBRANCH  13  33
TORSDOF 10
ENDMDL
MODEL 4
REMARK VINA RESULT: -9.151409902      1.970      6.309
REMARK  10 active torsions:
REMARK  status: ('A' for Active; 'I' for Inactive)
REMARK    1  A    between atoms: O1_2  and  C2_3 
REMARK    2  A    between atoms: C2_3  and  O2_4 
REMARK    3  A    between atoms: C2_3  and  C3_6 
REMARK    4  A    between atoms: C3_6  and  C4_7 
REMARK    5  A    between atoms: C4_7  and  C5_8 
REMARK    6  A    between atoms: C5_8  and  C6_9 
REMARK    7  A    between atoms: C6_9  and  C7_10 
REMARK    8  A    between atoms: C7_10  and  C9_12 
REMARK    9  A    between atoms: C19_22  and  O3_23 
REMARK   10  A    between atoms: N1_26  and  O4_28 
ROOT
HETATM    1  C9  UNL     1     -13.525  -7.223  39.174  1.00  0.00    -0.073 C 
HETATM    2  C10 UNL     1     -12.887  -6.145  38.752  1.00  0.00    -0.073 C 
HETATM    3  C11 UNL     1     -12.539  -5.620  37.398  1.00  0.00     0.035 C 
HETATM    4  C12 UNL     1     -11.081  -5.270  37.293  1.00  0.00     0.011 C 
HETATM    5  C13 UNL     1     -10.394  -4.967  38.570  1.00  0.00     0.009 C 
HETATM    6  C14 UNL     1     -11.279  -4.504  39.698  1.00  0.00     0.003 C 
HETATM    7  C15 UNL     1     -10.484  -4.439  40.968  1.00  0.00     0.033 C 
HETATM    8  C16 UNL     1      -9.269  -3.625  40.756  1.00  0.00    -0.022 C 
HETATM    9  C17 UNL     1      -8.825  -3.329  39.566  1.00  0.00    -0.066 C 
HETATM   10  C18 UNL     1      -7.640  -2.538  39.059  1.00  0.00     0.073 C 
HETATM   11  C19 UNL     1      -7.076  -3.552  38.056  1.00  0.00     0.170 C 
HETATM   12  C20 UNL     1      -8.316  -4.155  37.470  1.00  0.00     0.051 C 
HETATM   13  N1  UNL     1      -8.380  -4.897  36.417  1.00  0.00    -0.274 N 
ATOM     14  H1  UNL     1      -9.277  -5.261  36.098  1.00  0.00     0.193 HD
HETATM   15  C21 UNL     1      -9.477  -3.767  38.288  1.00  0.00     0.026 C 
HETATM   16  C22 UNL     1     -10.230  -2.606  37.709  1.00  0.00     0.027 C 
HETATM   17  C23 UNL     1     -12.485  -5.353  39.940  1.00  0.00     0.020 C 
HETATM   18  C24 UNL     1     -12.337  -6.387  41.011  1.00  0.00     0.014 C 
HETATM   19  C25 UNL     1     -13.572  -7.259  40.688  1.00  0.00     0.035 C 
ENDROOT
BRANCH   1  20
HETATM   20  C7  UNL     1     -14.116  -8.286  38.298  1.00  0.00     0.011 C 
HETATM   21  C8  UNL     1     -15.564  -7.868  38.018  1.00  0.00     0.015 C 
BRANCH  20  22
HETATM   22  C6  UNL     1     -13.435  -8.338  36.960  1.00  0.00     0.009 C 
BRANCH  22  23
HETATM   23  C5  UNL     1     -12.370  -9.381  36.840  1.00  0.00     0.001 C 
BRANCH  23  24
HETATM   24  C4  UNL     1     -11.058  -8.849  36.359  1.00  0.00     0.005 C 
BRANCH  24  25
HETATM   25  C3  UNL     1     -11.106  -8.195  35.017  1.00  0.00     0.060 C 
BRANCH  25  26
HETATM   26  C2  UNL     1      -9.776  -8.012  34.352  1.00  0.00     0.256 C 
BRANCH  26  27
HETATM   27  O1  UNL     1      -9.431  -6.690  34.214  1.00  0.00    -0.366 OA
HETATM   28  C1  UNL     1     -10.334  -5.897  33.558  1.00  0.00     0.204 C 
ENDBRANCH  26  27
BRANCH  26  29
HETATM   29  O2  UNL     1      -8.821  -8.571  35.237  1.00  0.00    -0.371 OA
ATOM     30  H2  UNL     1      -8.840  -8.029  36.016  1.00  0.00     0.212 HD
ENDBRANCH  26  29
ENDBRANCH  25  26
ENDBRANCH  24  25
ENDBRANCH  23  24
ENDBRANCH  22  23
ENDBRANCH  20  22
ENDBRANCH   1  20
BRANCH  11  31
HETATM   31  O3  UNL     1      -6.325  -4.491  38.731  1.00  0.00    -0.389 OA
ATOM     32  H3  UNL     1      -5.946  -4.092  39.505  1.00  0.00     0.210 HD
ENDBRANCH  11  31
BRANCH  13  33
HETATM   33  O4  UNL     1      -7.244  -5.191  35.738  1.00  0.00    -0.290 OA
ATOM     34  H4  UNL     1      -7.069  -6.090  35.485  1.00  0.00     0.244 HD
ENDBRANCH  13  33
TORSDOF 10
ENDMDL
MODEL 5
REMARK VINA RESULT: -9.141539565      2.436      3.823
REMARK  10 active torsions:
REMARK  status: ('A' for Active; 'I' for Inactive)
REMARK    1  A    between atoms: O1_2  and  C2_3 
REMARK    2  A    between atoms: C2_3  and  O2_4 
REMARK    3  A    between atoms: C2_3  and  C3_6 
REMARK    4  A    between atoms: C3_6  and  C4_7 
REMARK    5  A    between atoms: C4_7  and  C5_8 
REMARK    6  A    between atoms: C5_8  and  C6_9 
REMARK    7  A    between atoms: C6_9  and  C7_10 
REMARK    8  A    between atoms: C7_10  and  C9_12 
REMARK    9  A    between atoms: C19_22  and  O3_23 
REMARK   10  A    between atoms: N1_26  and  O4_28 
ROOT
HETATM    1  C9  UNL     1     -12.202  -2.905  38.539  1.00  0.00    -0.073 C 
HETATM    2  C10 UNL     1     -12.418  -3.980  37.801  1.00  0.00    -0.073 C 
HETATM    3  C11 UNL     1     -12.849  -5.376  38.117  1.00  0.00     0.035 C 
HETATM    4  C12 UNL     1     -11.931  -6.396  37.505  1.00  0.00     0.011 C 
HETATM    5  C13 UNL     1     -11.162  -5.948  36.320  1.00  0.00     0.009 C 
HETATM    6  C14 UNL     1     -11.756  -4.797  35.550  1.00  0.00     0.003 C 
HETATM    7  C15 UNL     1     -10.776  -4.324  34.518  1.00  0.00     0.033 C 
HETATM    8  C16 UNL     1     -10.332  -5.464  33.690  1.00  0.00    -0.022 C 
HETATM    9  C17 UNL     1     -10.514  -6.704  34.053  1.00  0.00    -0.066 C 
HETATM   10  C18 UNL     1     -10.173  -8.037  33.426  1.00  0.00     0.073 C 
HETATM   11  C19 UNL     1      -9.493  -8.708  34.627  1.00  0.00     0.170 C 
HETATM   12  C20 UNL     1     -10.319  -8.224  35.779  1.00  0.00     0.051 C 
HETATM   13  N1  UNL     1     -10.293  -8.687  36.983  1.00  0.00    -0.274 N 
ATOM     14  H1  UNL     1     -10.897  -8.286  37.701  1.00  0.00     0.193 HD
HETATM   15  C21 UNL     1     -11.183  -7.121  35.328  1.00  0.00     0.026 C 
HETATM   16  C22 UNL     1     -12.579  -7.571  35.016  1.00  0.00     0.027 C 
HETATM   17  C23 UNL     1     -12.163  -3.626  36.384  1.00  0.00     0.020 C 
HETATM   18  C24 UNL     1     -11.156  -2.524  36.479  1.00  0.00     0.014 C 
HETATM   19  C25 UNL     1     -11.749  -1.746  37.675  1.00  0.00     0.035 C 
ENDROOT
BRANCH   1  20
HETATM   20  C7  UNL     1     -12.360  -2.822  40.028  1.00  0.00     0.011 C 
HETATM   21  C8  UNL     1     -13.867  -2.797  40.306  1.00  0.00     0.015 C 
BRANCH  20  22
HETATM   22  C6  UNL     1     -11.834  -4.055  40.707  1.00  0.00     0.009 C 
BRANCH  22  23
HETATM   23  C5  UNL     1     -10.366  -4.035  40.989  1.00  0.00     0.001 C 
BRANCH  23  24
HETATM   24  C4  UNL     1      -9.520  -4.357  39.799  1.00  0.00     0.005 C 
BRANCH  24  25
HETATM   25  C3  UNL     1      -8.508  -3.314  39.454  1.00  0.00     0.060 C 
BRANCH  25  26
HETATM   26  C2  UNL     1      -7.421  -3.765  38.528  1.00  0.00     0.256 C 
BRANCH  26  27
HETATM   27  O1  UNL     1      -7.661  -3.416  37.221  1.00  0.00    -0.366 OA
HETATM   28  C1  UNL     1      -7.815  -4.453  36.339  1.00  0.00     0.204 C 
ENDBRANCH  26  27
BRANCH  26  29
HETATM   29  O2  UNL     1      -6.261  -3.047  38.913  1.00  0.00    -0.371 OA
ATOM     30  H2  UNL     1      -5.529  -3.631  38.752  1.00  0.00     0.212 HD
ENDBRANCH  26  29
ENDBRANCH  25  26
ENDBRANCH  24  25
ENDBRANCH  23  24
ENDBRANCH  22  23
ENDBRANCH  20  22
ENDBRANCH   1  20
BRANCH  11  31
HETATM   31  O3  UNL     1      -8.189  -8.270  34.715  1.00  0.00    -0.389 OA
ATOM     32  H3  UNL     1      -7.818  -8.555  35.542  1.00  0.00     0.210 HD
ENDBRANCH  11  31
BRANCH  13  33
HETATM   33  O4  UNL     1      -9.457  -9.709  37.288  1.00  0.00    -0.290 OA
ATOM     34  H4  UNL     1      -9.620 -10.232  38.065  1.00  0.00     0.244 HD
ENDBRANCH  13  33
TORSDOF 10
ENDMDL
