MODEL 1
REMARK VINA RESULT: -9.043749903      0.000      0.000
REMARK  8 active torsions:
REMARK  status: ('A' for Active; 'I' for Inactive)
REMARK    1  A    between atoms: C4_4  and  C5_5 
REMARK    2  A    between atoms: C5_5  and  C6_6 
REMARK    3  A    between atoms: C8_8  and  C9_9 
REMARK    4  A    between atoms: C9_9  and  C10_11 
REMARK    5  A    between atoms: C10_11  and  C12_13 
REMARK    6  A    between atoms: C19_20  and  O2_21 
REMARK    7  A    between atoms: C19_20  and  C20_23 
REMARK    8  A    between atoms: C24_29  and  O5_30 
ROOT
HETATM    1  C12 UNL     1     -11.920  -5.024  38.270  1.00  0.00     0.005 C 
HETATM    2  C13 UNL     1     -10.892  -5.853  38.979  1.00  0.00     0.007 C 
HETATM    3  C14 UNL     1      -9.641  -4.952  38.996  1.00  0.00     0.009 C 
HETATM    4  C15 UNL     1      -9.120  -5.067  37.569  1.00  0.00     0.036 C 
HETATM    5  C16 UNL     1     -10.115  -4.807  36.517  1.00  0.00     0.001 C 
HETATM    6  C17 UNL     1      -9.508  -3.655  35.738  1.00  0.00     0.009 C 
HETATM    7  C18 UNL     1      -8.467  -3.025  36.621  1.00  0.00     0.050 C 
HETATM    8  C19 UNL     1      -7.898  -4.215  37.332  1.00  0.00     0.149 C 
HETATM    9  C21 UNL     1     -11.542  -4.584  36.896  1.00  0.00    -0.039 C 
HETATM   10  C22 UNL     1     -11.920  -3.092  36.746  1.00  0.00     0.015 C 
HETATM   11  C23 UNL     1     -12.400  -5.234  35.813  1.00  0.00     0.015 C 
ENDROOT
BRANCH   1  12
HETATM   12  C10 UNL     1     -13.340  -5.426  38.479  1.00  0.00     0.061 C 
HETATM   13  C11 UNL     1     -14.109  -4.276  39.081  1.00  0.00     0.018 C 
BRANCH  12  14
HETATM   14  C9  UNL     1     -13.577  -6.643  39.209  1.00  0.00     0.168 C 
HETATM   15  O1  UNL     1     -13.537  -6.656  40.468  1.00  0.00    -0.292 OA
BRANCH  14  16
HETATM   16  C8  UNL     1     -13.875  -7.896  38.545  1.00  0.00     0.071 A 
HETATM   17  C7  UNL     1     -14.145  -8.070  37.170  1.00  0.00     0.053 A 
HETATM   18  C6  UNL     1     -14.363  -9.402  36.912  1.00  0.00     0.060 A 
HETATM   19  O6  UNL     1     -14.242 -10.030  38.032  1.00  0.00    -0.291 OA
HETATM   20  C24 UNL     1     -13.957  -9.189  39.017  1.00  0.00     0.197 A 
BRANCH  18  21
HETATM   21  C5  UNL     1     -14.683 -10.007  35.572  1.00  0.00     0.092 C 
BRANCH  21  22
HETATM   22  C4  UNL     1     -13.553  -9.791  34.648  1.00  0.00    -0.018 C 
HETATM   23  C2  UNL     1     -12.751 -10.777  34.289  1.00  0.00    -0.091 C 
HETATM   24  C1  UNL     1     -12.972 -12.149  34.818  1.00  0.00     0.042 C 
HETATM   25  C3  UNL     1     -11.612 -10.563  33.358  1.00  0.00     0.042 C 
ENDBRANCH  21  22
ENDBRANCH  18  21
BRANCH  20  26
HETATM   26  O5  UNL     1     -13.785  -9.626  40.298  1.00  0.00    -0.340 OA
ATOM     27  H5  UNL     1     -14.082 -10.444  40.680  1.00  0.00     0.220 HD
ENDBRANCH  20  26
ENDBRANCH  14  16
ENDBRANCH  12  14
ENDBRANCH   1  12
BRANCH   8  28
HETATM   28  O2  UNL     1      -7.095  -4.899  36.389  1.00  0.00    -0.378 OA
ATOM     29  H2  UNL     1      -6.586  -5.539  36.871  1.00  0.00     0.211 HD
ENDBRANCH   8  28
BRANCH   8  30
HETATM   30  C20 UNL     1      -7.114  -3.897  38.509  1.00  0.00     0.209 C 
HETATM   31  O3  UNL     1      -7.079  -2.735  38.968  1.00  0.00    -0.646 OA
HETATM   32  O4  UNL     1      -6.384  -4.872  39.156  1.00  0.00    -0.646 OA
ENDBRANCH   8  30
TORSDOF 8
ENDMDL
MODEL 2
REMARK VINA RESULT: -9.041228987      1.384      1.706
REMARK  8 active torsions:
REMARK  status: ('A' for Active; 'I' for Inactive)
REMARK    1  A    between atoms: C4_4  and  C5_5 
REMARK    2  A    between atoms: C5_5  and  C6_6 
REMARK    3  A    between atoms: C8_8  and  C9_9 
REMARK    4  A    between atoms: C9_9  and  C10_11 
REMARK    5  A    between atoms: C10_11  and  C12_13 
REMARK    6  A    between atoms: C19_20  and  O2_21 
REMARK    7  A    between atoms: C19_20  and  C20_23 
REMARK    8  A    between atoms: C24_29  and  O5_30 
ROOT
HETATM    1  C12 UNL     1     -11.607  -4.332  39.173  1.00  0.00     0.005 C 
HETATM    2  C13 UNL     1     -10.574  -5.284  39.696  1.00  0.00     0.007 C 
HETATM    3  C14 UNL     1      -9.239  -4.555  39.442  1.00  0.00     0.009 C 
HETATM    4  C15 UNL     1      -9.026  -4.743  37.946  1.00  0.00     0.036 C 
HETATM    5  C16 UNL     1     -10.167  -4.362  37.099  1.00  0.00     0.001 C 
HETATM    6  C17 UNL     1      -9.584  -3.303  36.182  1.00  0.00     0.009 C 
HETATM    7  C18 UNL     1      -8.318  -2.809  36.827  1.00  0.00     0.050 C 
HETATM    8  C19 UNL     1      -7.777  -4.059  37.451  1.00  0.00     0.149 C 
HETATM    9  C21 UNL     1     -11.452  -3.953  37.739  1.00  0.00    -0.039 C 
HETATM   10  C22 UNL     1     -11.660  -2.425  37.620  1.00  0.00     0.015 C 
HETATM   11  C23 UNL     1     -12.581  -4.491  36.863  1.00  0.00     0.015 C 
ENDROOT
BRANCH   1  12
HETATM   12  C10 UNL     1     -12.998  -4.545  39.665  1.00  0.00     0.061 C 
HETATM   13  C11 UNL     1     -13.407  -3.388  40.544  1.00  0.00     0.018 C 
BRANCH  12  14
HETATM   14  C9  UNL     1     -13.284  -5.802  40.303  1.00  0.00     0.168 C 
HETATM   15  O1  UNL     1     -13.157  -5.935  41.550  1.00  0.00    -0.292 OA
BRANCH  14  16
HETATM   16  C8  UNL     1     -13.729  -6.963  39.558  1.00  0.00     0.071 A 
HETATM   17  C7  UNL     1     -14.863  -7.032  38.718  1.00  0.00     0.053 A 
HETATM   18  C6  UNL     1     -14.950  -8.289  38.172  1.00  0.00     0.060 A 
HETATM   19  O6  UNL     1     -13.954  -8.971  38.626  1.00  0.00    -0.291 OA
HETATM   20  C24 UNL     1     -13.212  -8.235  39.442  1.00  0.00     0.197 A 
BRANCH  18  21
HETATM   21  C5  UNL     1     -16.012  -8.775  37.223  1.00  0.00     0.092 C 
BRANCH  21  22
HETATM   22  C4  UNL     1     -15.698 -10.148  36.787  1.00  0.00    -0.018 C 
HETATM   23  C2  UNL     1     -15.324 -10.416  35.549  1.00  0.00    -0.091 C 
HETATM   24  C1  UNL     1     -15.210  -9.319  34.551  1.00  0.00     0.042 C 
HETATM   25  C3  UNL     1     -15.007 -11.799  35.105  1.00  0.00     0.042 C 
ENDBRANCH  21  22
ENDBRANCH  18  21
BRANCH  20  26
HETATM   26  O5  UNL     1     -12.101  -8.746  40.048  1.00  0.00    -0.340 OA
ATOM     27  H5  UNL     1     -11.541  -8.326  40.692  1.00  0.00     0.220 HD
ENDBRANCH  20  26
ENDBRANCH  14  16
ENDBRANCH  12  14
ENDBRANCH   1  12
BRANCH   8  28
HETATM   28  O2  UNL     1      -7.267  -4.847  36.391  1.00  0.00    -0.378 OA
ATOM     29  H2  UNL     1      -6.620  -5.431  36.768  1.00  0.00     0.211 HD
ENDBRANCH   8  28
BRANCH   8  30
HETATM   30  C20 UNL     1      -6.744  -3.839  38.444  1.00  0.00     0.209 C 
HETATM   31  O3  UNL     1      -6.408  -2.685  38.784  1.00  0.00    -0.646 OA
HETATM   32  O4  UNL     1      -6.102  -4.904  39.043  1.00  0.00    -0.646 OA
ENDBRANCH   8  30
TORSDOF 8
ENDMDL
MODEL 3
REMARK VINA RESULT: -8.995636172      3.169      6.117
REMARK  8 active torsions:
REMARK  status: ('A' for Active; 'I' for Inactive)
REMARK    1  A    between atoms: C4_4  and  C5_5 
REMARK    2  A    between atoms: C5_5  and  C6_6 
REMARK    3  A    between atoms: C8_8  and  C9_9 
REMARK    4  A    between atoms: C9_9  and  C10_11 
REMARK    5  A    between atoms: C10_11  and  C12_13 
REMARK    6  A    between atoms: C19_20  and  O2_21 
REMARK    7  A    between atoms: C19_20  and  C20_23 
REMARK    8  A    between atoms: C24_29  and  O5_30 
ROOT
HETATM    1  C12 UNL     1     -10.596  -3.190  38.585  1.00  0.00     0.005 C 
HETATM    2  C13 UNL     1     -10.952  -2.245  37.477  1.00  0.00     0.007 C 
HETATM    3  C14 UNL     1     -11.925  -1.250  38.140  1.00  0.00     0.009 C 
HETATM    4  C15 UNL     1     -13.222  -2.045  38.223  1.00  0.00     0.036 C 
HETATM    5  C16 UNL     1     -13.102  -3.374  38.841  1.00  0.00     0.001 C 
HETATM    6  C17 UNL     1     -14.069  -3.306  40.008  1.00  0.00     0.009 C 
HETATM    7  C18 UNL     1     -14.336  -1.851  40.275  1.00  0.00     0.050 C 
HETATM    8  C19 UNL     1     -14.329  -1.272  38.893  1.00  0.00     0.149 C 
HETATM    9  C21 UNL     1     -11.752  -3.890  39.216  1.00  0.00    -0.039 C 
HETATM   10  C22 UNL     1     -11.559  -3.852  40.750  1.00  0.00     0.015 C 
HETATM   11  C23 UNL     1     -11.753  -5.392  38.939  1.00  0.00     0.015 C 
ENDROOT
BRANCH   1  12
HETATM   12  C10 UNL     1      -9.354  -3.989  38.387  1.00  0.00     0.061 C 
HETATM   13  C11 UNL     1      -8.405  -3.744  39.535  1.00  0.00     0.018 C 
BRANCH  12  14
HETATM   14  C9  UNL     1      -8.679  -3.852  37.124  1.00  0.00     0.168 C 
HETATM   15  O1  UNL     1      -7.811  -2.954  36.952  1.00  0.00    -0.292 OA
BRANCH  14  16
HETATM   16  C8  UNL     1      -8.954  -4.726  36.002  1.00  0.00     0.071 A 
HETATM   17  C7  UNL     1      -9.892  -5.782  35.976  1.00  0.00     0.053 A 
HETATM   18  C6  UNL     1      -9.882  -6.371  34.735  1.00  0.00     0.060 A 
HETATM   19  O6  UNL     1      -9.009  -5.744  34.023  1.00  0.00    -0.291 OA
HETATM   20  C24 UNL     1      -8.440  -4.772  34.724  1.00  0.00     0.197 A 
BRANCH  18  21
HETATM   21  C5  UNL     1     -10.733  -7.532  34.295  1.00  0.00     0.092 C 
BRANCH  21  22
HETATM   22  C4  UNL     1     -10.225  -8.778  34.901  1.00  0.00    -0.018 C 
HETATM   23  C2  UNL     1     -10.870  -9.389  35.877  1.00  0.00    -0.091 C 
HETATM   24  C1  UNL     1     -12.144  -8.825  36.397  1.00  0.00     0.042 C 
HETATM   25  C3  UNL     1     -10.362 -10.644  36.490  1.00  0.00     0.042 C 
ENDBRANCH  21  22
ENDBRANCH  18  21
BRANCH  20  26
HETATM   26  O5  UNL     1      -7.479  -3.971  34.178  1.00  0.00    -0.340 OA
ATOM     27  H5  UNL     1      -7.583  -3.099  33.814  1.00  0.00     0.220 HD
ENDBRANCH  20  26
ENDBRANCH  14  16
ENDBRANCH  12  14
ENDBRANCH   1  12
BRANCH   8  28
HETATM   28  O2  UNL     1     -15.542  -1.676  38.285  1.00  0.00    -0.378 OA
ATOM     29  H2  UNL     1     -16.211  -1.064  38.568  1.00  0.00     0.211 HD
ENDBRANCH   8  28
BRANCH   8  30
HETATM   30  C20 UNL     1     -14.210   0.172  38.844  1.00  0.00     0.209 C 
HETATM   31  O3  UNL     1     -13.951   0.835  39.870  1.00  0.00    -0.646 OA
HETATM   32  O4  UNL     1     -14.379   0.854  37.656  1.00  0.00    -0.646 OA
ENDBRANCH   8  30
TORSDOF 8
ENDMDL
MODEL 4
REMARK VINA RESULT: -8.923561317      1.230      1.891
REMARK  8 active torsions:
REMARK  status: ('A' for Active; 'I' for Inactive)
REMARK    1  A    between atoms: C4_4  and  C5_5 
REMARK    2  A    between atoms: C5_5  and  C6_6 
REMARK    3  A    between atoms: C8_8  and  C9_9 
REMARK    4  A    between atoms: C9_9  and  C10_11 
REMARK    5  A    between atoms: C10_11  and  C12_13 
REMARK    6  A    between atoms: C19_20  and  O2_21 
REMARK    7  A    between atoms: C19_20  and  C20_23 
REMARK    8  A    between atoms: C24_29  and  O5_30 
ROOT
HETATM    1  C12 UNL     1     -11.902  -4.929  38.443  1.00  0.00     0.005 C 
HETATM    2  C13 UNL     1     -10.864  -5.757  39.139  1.00  0.00     0.007 C 
HETATM    3  C14 UNL     1      -9.601  -4.873  39.102  1.00  0.00     0.009 C 
HETATM    4  C15 UNL     1      -9.123  -5.021  37.663  1.00  0.00     0.036 C 
HETATM    5  C16 UNL     1     -10.145  -4.769  36.636  1.00  0.00     0.001 C 
HETATM    6  C17 UNL     1      -9.548  -3.640  35.817  1.00  0.00     0.009 C 
HETATM    7  C18 UNL     1      -8.474  -3.006  36.657  1.00  0.00     0.050 C 
HETATM    8  C19 UNL     1      -7.899  -4.189  37.375  1.00  0.00     0.149 C 
HETATM    9  C21 UNL     1     -11.558  -4.521  37.050  1.00  0.00    -0.039 C 
HETATM   10  C22 UNL     1     -11.922  -3.027  36.883  1.00  0.00     0.015 C 
HETATM   11  C23 UNL     1     -12.455  -5.180  36.005  1.00  0.00     0.015 C 
ENDROOT
BRANCH   1  12
HETATM   12  C10 UNL     1     -13.320  -5.309  38.701  1.00  0.00     0.061 C 
HETATM   13  C11 UNL     1     -14.042  -4.157  39.356  1.00  0.00     0.018 C 
BRANCH  12  14
HETATM   14  C9  UNL     1     -13.551  -6.536  39.415  1.00  0.00     0.168 C 
HETATM   15  O1  UNL     1     -13.446  -6.580  40.670  1.00  0.00    -0.292 OA
BRANCH  14  16
HETATM   16  C8  UNL     1     -13.916  -7.766  38.741  1.00  0.00     0.071 A 
HETATM   17  C7  UNL     1     -14.413  -7.881  37.424  1.00  0.00     0.053 A 
HETATM   18  C6  UNL     1     -14.627  -9.206  37.130  1.00  0.00     0.060 A 
HETATM   19  O6  UNL     1     -14.294  -9.885  38.175  1.00  0.00    -0.291 OA
HETATM   20  C24 UNL     1     -13.871  -9.083  39.144  1.00  0.00     0.197 A 
BRANCH  18  21
HETATM   21  C5  UNL     1     -15.152  -9.756  35.832  1.00  0.00     0.092 C 
BRANCH  21  22
HETATM   22  C4  UNL     1     -16.445  -9.122  35.511  1.00  0.00    -0.018 C 
HETATM   23  C2  UNL     1     -17.419  -9.791  34.922  1.00  0.00    -0.091 C 
HETATM   24  C1  UNL     1     -17.231 -11.222  34.563  1.00  0.00     0.042 C 
HETATM   25  C3  UNL     1     -18.724  -9.157  34.597  1.00  0.00     0.042 C 
ENDBRANCH  21  22
ENDBRANCH  18  21
BRANCH  20  26
HETATM   26  O5  UNL     1     -13.467  -9.577  40.350  1.00  0.00    -0.340 OA
ATOM     27  H5  UNL     1     -13.113 -10.439  40.538  1.00  0.00     0.220 HD
ENDBRANCH  20  26
ENDBRANCH  14  16
ENDBRANCH  12  14
ENDBRANCH   1  12
BRANCH   8  28
HETATM   28  O2  UNL     1      -7.132  -4.901  36.422  1.00  0.00    -0.378 OA
ATOM     29  H2  UNL     1      -7.194  -4.423  35.604  1.00  0.00     0.211 HD
ENDBRANCH   8  28
BRANCH   8  30
HETATM   30  C20 UNL     1      -7.078  -3.858  38.522  1.00  0.00     0.209 C 
HETATM   31  O3  UNL     1      -7.003  -2.686  38.948  1.00  0.00    -0.646 OA
HETATM   32  O4  UNL     1      -6.354  -4.833  39.178  1.00  0.00    -0.646 OA
ENDBRANCH   8  30
TORSDOF 8
ENDMDL
MODEL 5
REMARK VINA RESULT: -8.877432360      2.596      6.915
REMARK  8 active torsions:
REMARK  status: ('A' for Active; 'I' for Inactive)
REMARK    1  A    between atoms: C4_4  and  C5_5 
REMARK    2  A    between atoms: C5_5  and  C6_6 
REMARK    3  A    between atoms: C8_8  and  C9_9 
REMARK    4  A    between atoms: C9_9  and  C10_11 
REMARK    5  A    between atoms: C10_11  and  C12_13 
REMARK    6  A    between atoms: C19_20  and  O2_21 
REMARK    7  A    between atoms: C19_20  and  C20_23 
REMARK    8  A    between atoms: C24_29  and  O5_30 
ROOT
HETATM    1  C12 UNL     1     -11.447  -8.139  36.502  1.00  0.00     0.005 C 
HETATM    2  C13 UNL     1     -10.764  -6.999  37.195  1.00  0.00     0.007 C 
HETATM    3  C14 UNL     1     -11.319  -7.055  38.633  1.00  0.00     0.009 C 
HETATM    4  C15 UNL     1     -12.714  -6.463  38.483  1.00  0.00     0.036 C 
HETATM    5  C16 UNL     1     -13.539  -7.066  37.425  1.00  0.00     0.001 C 
HETATM    6  C17 UNL     1     -14.760  -7.565  38.174  1.00  0.00     0.009 C 
HETATM    7  C18 UNL     1     -14.384  -7.643  39.627  1.00  0.00     0.050 C 
HETATM    8  C19 UNL     1     -13.480  -6.459  39.781  1.00  0.00     0.149 C 
HETATM    9  C21 UNL     1     -12.938  -8.089  36.518  1.00  0.00    -0.039 C 
HETATM   10  C22 UNL     1     -13.463  -9.502  36.863  1.00  0.00     0.015 C 
HETATM   11  C23 UNL     1     -13.533  -7.864  35.130  1.00  0.00     0.015 C 
ENDROOT
BRANCH   1  12
HETATM   12  C10 UNL     1     -10.804  -8.619  35.246  1.00  0.00     0.061 C 
HETATM   13  C11 UNL     1     -10.399 -10.064  35.403  1.00  0.00     0.018 C 
BRANCH  12  14
HETATM   14  C9  UNL     1      -9.718  -7.833  34.723  1.00  0.00     0.168 C 
HETATM   15  O1  UNL     1      -8.611  -8.368  34.449  1.00  0.00    -0.292 OA
BRANCH  14  16
HETATM   16  C8  UNL     1      -9.840  -6.409  34.483  1.00  0.00     0.071 A 
HETATM   17  C7  UNL     1     -10.949  -5.751  33.906  1.00  0.00     0.053 A 
HETATM   18  C6  UNL     1     -10.704  -4.400  33.858  1.00  0.00     0.060 A 
HETATM   19  O6  UNL     1      -9.533  -4.208  34.363  1.00  0.00    -0.291 OA
HETATM   20  C24 UNL     1      -8.989  -5.357  34.743  1.00  0.00     0.197 A 
BRANCH  18  21
HETATM   21  C5  UNL     1     -11.631  -3.346  33.316  1.00  0.00     0.092 C 
BRANCH  21  22
HETATM   22  C4  UNL     1     -12.221  -2.583  34.432  1.00  0.00    -0.018 C 
HETATM   23  C2  UNL     1     -12.586  -1.322  34.295  1.00  0.00    -0.091 C 
HETATM   24  C1  UNL     1     -12.407  -0.631  32.990  1.00  0.00     0.042 C 
HETATM   25  C3  UNL     1     -13.182  -0.549  35.417  1.00  0.00     0.042 C 
ENDBRANCH  21  22
ENDBRANCH  18  21
BRANCH  20  26
HETATM   26  O5  UNL     1      -7.746  -5.404  35.306  1.00  0.00    -0.340 OA
ATOM     27  H5  UNL     1      -7.518  -5.318  36.224  1.00  0.00     0.220 HD
ENDBRANCH  20  26
ENDBRANCH  14  16
ENDBRANCH  12  14
ENDBRANCH   1  12
BRANCH   8  28
HETATM   28  O2  UNL     1     -14.314  -5.315  39.765  1.00  0.00    -0.378 OA
ATOM     29  H2  UNL     1     -15.200  -5.616  39.926  1.00  0.00     0.211 HD
ENDBRANCH   8  28
BRANCH   8  30
HETATM   30  C20 UNL     1     -12.676  -6.465  40.987  1.00  0.00     0.209 C 
HETATM   31  O3  UNL     1     -12.430  -7.529  41.595  1.00  0.00    -0.646 OA
HETATM   32  O4  UNL     1     -12.159  -5.293  41.498  1.00  0.00    -0.646 OA
ENDBRANCH   8  30
TORSDOF 8
ENDMDL
