MODEL 1
REMARK VINA RESULT: -8.717649493      0.000      0.000
REMARK  14 active torsions:
REMARK  status: ('A' for Active; 'I' for Inactive)
REMARK    1  A    between atoms: C2_2  and  C3_3 
REMARK    2  A    between atoms: C3_3  and  C4_4 
REMARK    3  A    between atoms: C4_4  and  N1_5 
REMARK    4  A    between atoms: C4_4  and  C22_32 
REMARK    5  A    between atoms: N1_5  and  C5_7 
REMARK    6  A    between atoms: C5_7  and  C7_9 
REMARK    7  A    between atoms: C5_7  and  C9_11 
REMARK    8  A    between atoms: C9_11  and  O1_12 
REMARK       I    between atoms: N2_14  and  C10_16 
REMARK    9  A    between atoms: C10_16  and  C11_18 
REMARK       I    between atoms: N3_22  and  C15_23 
REMARK   10  A    between atoms: C15_23  and  C16_25 
REMARK   11  A    between atoms: C16_25  and  C17_27 
REMARK   12  A    between atoms: C17_27  and  C18_28 
REMARK   13  A    between atoms: C18_28  and  C20_30 
REMARK   14  A    between atoms: C22_32  and  C23_34 
REMARK       I    between atoms: C23_34  and  N5_36 
ROOT
HETATM    1  C9  UNL     1      19.004  28.933  12.628  1.00  0.00     0.146 C 
HETATM    2  N2  UNL     1      19.590  29.714  13.579  1.00  0.00    -0.307 N 
ATOM      3  H2  UNL     1      19.193  30.654  13.600  1.00  0.00     0.170 HD
HETATM    4  C10 UNL     1      20.604  29.550  14.539  1.00  0.00     0.246 C 
HETATM    5  O2  UNL     1      21.282  28.543  14.715  1.00  0.00    -0.271 OA
ENDROOT
BRANCH   1   6
HETATM    6  C5  UNL     1      19.115  27.579  12.050  1.00  0.00     0.088 C 
HETATM    7  C6  UNL     1      18.829  27.694  10.536  1.00  0.00     0.047 C 
BRANCH   6   8
HETATM    8  N1  UNL     1      20.406  27.079  12.133  1.00  0.00    -0.395 N 
ATOM      9  H1  UNL     1      20.659  26.897  13.104  1.00  0.00     0.155 HD
BRANCH   8  10
HETATM   10  C4  UNL     1      21.430  26.760  11.308  1.00  0.00     0.158 C 
BRANCH  10  11
HETATM   11  C3  UNL     1      22.727  27.337  11.897  1.00  0.00     0.033 C 
BRANCH  11  12
HETATM   12  C2  UNL     1      23.823  27.446  10.838  1.00  0.00    -0.002 C 
HETATM   13  C1  UNL     1      25.074  26.894  11.496  1.00  0.00     0.005 C 
ENDBRANCH  11  12
ENDBRANCH  10  11
BRANCH  10  14
HETATM   14  C22 UNL     1      21.696  25.406  10.833  1.00  0.00     0.238 C 
HETATM   15  O4  UNL     1      22.349  24.590  11.589  1.00  0.00    -0.285 OA
BRANCH  14  16
HETATM   16  C23 UNL     1      21.328  24.769   9.579  1.00  0.00     0.291 C 
HETATM   17  O5  UNL     1      20.123  24.342   9.479  1.00  0.00    -0.264 OA
HETATM   18  N5  UNL     1      22.181  24.580   8.468  1.00  0.00    -0.345 N 
HETATM   19  C24 UNL     1      21.702  24.035   7.193  1.00  0.00     0.126 C 
HETATM   20  C27 UNL     1      23.587  24.786   8.337  1.00  0.00     0.126 C 
HETATM   21  C25 UNL     1      22.885  23.186   6.764  1.00  0.00     0.021 C 
HETATM   22  C26 UNL     1      24.004  24.199   6.998  1.00  0.00     0.021 C 
ENDBRANCH  14  16
ENDBRANCH  10  14
ENDBRANCH   8  10
ENDBRANCH   6   8
BRANCH   6  23
HETATM   23  C7  UNL     1      17.972  26.770  12.566  1.00  0.00     0.034 C 
HETATM   24  C8  UNL     1      17.965  25.337  12.040  1.00  0.00     0.008 C 
ENDBRANCH   6  23
ENDBRANCH   1   6
BRANCH   1  25
HETATM   25  O1  UNL     1      17.986  29.614  12.018  1.00  0.00    -0.347 OA
ATOM     26  H1  UNL     1      18.234  29.833  11.127  1.00  0.00     0.219 HD
ENDBRANCH   1  25
BRANCH   4  27
HETATM   27  C11 UNL     1      20.925  30.702  15.472  1.00  0.00     0.180 C 
HETATM   28  C12 UNL     1      22.360  31.079  15.203  1.00  0.00     0.037 C 
HETATM   29  C13 UNL     1      22.159  31.902  13.911  1.00  0.00     0.022 C 
HETATM   30  C14 UNL     1      20.846  32.597  14.109  1.00  0.00     0.127 C 
HETATM   31  N3  UNL     1      20.199  31.896  15.192  1.00  0.00    -0.334 N 
HETATM   32  C15 UNL     1      19.054  32.292  15.935  1.00  0.00     0.264 C 
HETATM   33  O3  UNL     1      18.662  31.562  16.876  1.00  0.00    -0.267 OA
BRANCH  32  34
HETATM   34  C16 UNL     1      18.260  33.533  15.681  1.00  0.00     0.092 C 
HETATM   35  N4  UNL     1      17.871  33.762  14.357  1.00  0.00    -0.101 NA
BRANCH  34  36
HETATM   36  C17 UNL     1      17.299  33.754  16.787  1.00  0.00     0.064 C 
BRANCH  36  37
HETATM   37  C18 UNL     1      15.857  33.771  16.428  1.00  0.00    -0.014 C 
HETATM   38  C19 UNL     1      15.273  32.383  16.485  1.00  0.00     0.010 C 
BRANCH  37  39
HETATM   39  C20 UNL     1      15.029  34.689  17.300  1.00  0.00    -0.000 C 
HETATM   40  C21 UNL     1      15.740  36.028  17.455  1.00  0.00     0.005 C 
ENDBRANCH  37  39
ENDBRANCH  36  37
ENDBRANCH  34  36
ENDBRANCH  32  34
ENDBRANCH   4  27
TORSDOF 14
ENDMDL
MODEL 2
REMARK VINA RESULT: -8.523606406      0.801      1.229
REMARK  14 active torsions:
REMARK  status: ('A' for Active; 'I' for Inactive)
REMARK    1  A    between atoms: C2_2  and  C3_3 
REMARK    2  A    between atoms: C3_3  and  C4_4 
REMARK    3  A    between atoms: C4_4  and  N1_5 
REMARK    4  A    between atoms: C4_4  and  C22_32 
REMARK    5  A    between atoms: N1_5  and  C5_7 
REMARK    6  A    between atoms: C5_7  and  C7_9 
REMARK    7  A    between atoms: C5_7  and  C9_11 
REMARK    8  A    between atoms: C9_11  and  O1_12 
REMARK       I    between atoms: N2_14  and  C10_16 
REMARK    9  A    between atoms: C10_16  and  C11_18 
REMARK       I    between atoms: N3_22  and  C15_23 
REMARK   10  A    between atoms: C15_23  and  C16_25 
REMARK   11  A    between atoms: C16_25  and  C17_27 
REMARK   12  A    between atoms: C17_27  and  C18_28 
REMARK   13  A    between atoms: C18_28  and  C20_30 
REMARK   14  A    between atoms: C22_32  and  C23_34 
REMARK       I    between atoms: C23_34  and  N5_36 
ROOT
HETATM    1  C9  UNL     1      19.035  28.941  12.666  1.00  0.00     0.146 C 
HETATM    2  N2  UNL     1      19.605  29.727  13.624  1.00  0.00    -0.307 N 
ATOM      3  H2  UNL     1      19.187  30.657  13.653  1.00  0.00     0.170 HD
HETATM    4  C10 UNL     1      20.625  29.578  14.580  1.00  0.00     0.246 C 
HETATM    5  O2  UNL     1      21.325  28.584  14.746  1.00  0.00    -0.271 OA
ENDROOT
BRANCH   1   6
HETATM    6  C5  UNL     1      19.176  27.595  12.077  1.00  0.00     0.088 C 
HETATM    7  C6  UNL     1      18.974  27.731  10.551  1.00  0.00     0.047 C 
BRANCH   6   8
HETATM    8  N1  UNL     1      20.459  27.090  12.224  1.00  0.00    -0.395 N 
ATOM      9  H1  UNL     1      20.689  26.978  13.211  1.00  0.00     0.155 HD
BRANCH   8  10
HETATM   10  C4  UNL     1      21.496  26.702  11.447  1.00  0.00     0.158 C 
BRANCH  10  11
HETATM   11  C3  UNL     1      22.796  27.241  12.065  1.00  0.00     0.033 C 
BRANCH  11  12
HETATM   12  C2  UNL     1      23.854  27.510  10.997  1.00  0.00    -0.002 C 
HETATM   13  C1  UNL     1      25.128  26.874  11.523  1.00  0.00     0.005 C 
ENDBRANCH  11  12
ENDBRANCH  10  11
BRANCH  10  14
HETATM   14  C22 UNL     1      21.719  25.323  11.023  1.00  0.00     0.238 C 
HETATM   15  O4  UNL     1      21.606  24.372  11.886  1.00  0.00    -0.285 OA
BRANCH  14  16
HETATM   16  C23 UNL     1      22.063  24.796   9.712  1.00  0.00     0.291 C 
HETATM   17  O5  UNL     1      23.298  24.524   9.504  1.00  0.00    -0.264 OA
HETATM   18  N5  UNL     1      21.156  24.562   8.653  1.00  0.00    -0.345 N 
HETATM   19  C24 UNL     1      21.562  23.917   7.399  1.00  0.00     0.126 C 
HETATM   20  C27 UNL     1      19.780  24.915   8.519  1.00  0.00     0.126 C 
HETATM   21  C25 UNL     1      20.736  24.683   6.383  1.00  0.00     0.021 C 
HETATM   22  C26 UNL     1      19.379  24.621   7.083  1.00  0.00     0.021 C 
ENDBRANCH  14  16
ENDBRANCH  10  14
ENDBRANCH   8  10
ENDBRANCH   6   8
BRANCH   6  23
HETATM   23  C7  UNL     1      18.005  26.782  12.518  1.00  0.00     0.034 C 
HETATM   24  C8  UNL     1      17.991  25.376  11.922  1.00  0.00     0.008 C 
ENDBRANCH   6  23
ENDBRANCH   1   6
BRANCH   1  25
HETATM   25  O1  UNL     1      18.001  29.604  12.065  1.00  0.00    -0.347 OA
ATOM     26  H1  UNL     1      17.791  30.389  12.558  1.00  0.00     0.219 HD
ENDBRANCH   1  25
BRANCH   4  27
HETATM   27  C11 UNL     1      20.922  30.729  15.521  1.00  0.00     0.180 C 
HETATM   28  C12 UNL     1      22.359  31.116  15.279  1.00  0.00     0.037 C 
HETATM   29  C13 UNL     1      22.175  31.941  13.986  1.00  0.00     0.022 C 
HETATM   30  C14 UNL     1      20.855  32.627  14.164  1.00  0.00     0.127 C 
HETATM   31  N3  UNL     1      20.193  31.919  15.233  1.00  0.00    -0.334 N 
HETATM   32  C15 UNL     1      19.033  32.305  15.956  1.00  0.00     0.264 C 
HETATM   33  O3  UNL     1      18.629  31.569  16.888  1.00  0.00    -0.267 OA
BRANCH  32  34
HETATM   34  C16 UNL     1      18.235  33.541  15.693  1.00  0.00     0.092 C 
HETATM   35  N4  UNL     1      17.837  33.754  14.369  1.00  0.00    -0.101 NA
BRANCH  34  36
HETATM   36  C17 UNL     1      17.281  33.775  16.802  1.00  0.00     0.064 C 
BRANCH  36  37
HETATM   37  C18 UNL     1      15.837  33.799  16.450  1.00  0.00    -0.014 C 
HETATM   38  C19 UNL     1      15.250  32.412  16.495  1.00  0.00     0.010 C 
BRANCH  37  39
HETATM   39  C20 UNL     1      15.015  34.709  17.336  1.00  0.00    -0.000 C 
HETATM   40  C21 UNL     1      15.707  36.062  17.462  1.00  0.00     0.005 C 
ENDBRANCH  37  39
ENDBRANCH  36  37
ENDBRANCH  34  36
ENDBRANCH  32  34
ENDBRANCH   4  27
TORSDOF 14
ENDMDL
MODEL 3
REMARK VINA RESULT: -8.485603784      4.057     10.801
REMARK  14 active torsions:
REMARK  status: ('A' for Active; 'I' for Inactive)
REMARK    1  A    between atoms: C2_2  and  C3_3 
REMARK    2  A    between atoms: C3_3  and  C4_4 
REMARK    3  A    between atoms: C4_4  and  N1_5 
REMARK    4  A    between atoms: C4_4  and  C22_32 
REMARK    5  A    between atoms: N1_5  and  C5_7 
REMARK    6  A    between atoms: C5_7  and  C7_9 
REMARK    7  A    between atoms: C5_7  and  C9_11 
REMARK    8  A    between atoms: C9_11  and  O1_12 
REMARK       I    between atoms: N2_14  and  C10_16 
REMARK    9  A    between atoms: C10_16  and  C11_18 
REMARK       I    between atoms: N3_22  and  C15_23 
REMARK   10  A    between atoms: C15_23  and  C16_25 
REMARK   11  A    between atoms: C16_25  and  C17_27 
REMARK   12  A    between atoms: C17_27  and  C18_28 
REMARK   13  A    between atoms: C18_28  and  C20_30 
REMARK   14  A    between atoms: C22_32  and  C23_34 
REMARK       I    between atoms: C23_34  and  N5_36 
ROOT
HETATM    1  C9  UNL     1      21.774  36.493  17.914  1.00  0.00     0.146 C 
HETATM    2  N2  UNL     1      22.160  35.324  17.327  1.00  0.00    -0.307 N 
ATOM      3  H2  UNL     1      22.986  34.927  17.773  1.00  0.00     0.170 HD
HETATM    4  C10 UNL     1      21.704  34.529  16.261  1.00  0.00     0.246 C 
HETATM    5  O2  UNL     1      20.757  34.779  15.521  1.00  0.00    -0.271 OA
ENDROOT
BRANCH   1   6
HETATM    6  C5  UNL     1      20.765  37.559  17.756  1.00  0.00     0.088 C 
HETATM    7  C6  UNL     1      21.160  38.393  16.516  1.00  0.00     0.047 C 
BRANCH   6   8
HETATM    8  N1  UNL     1      19.509  37.051  17.460  1.00  0.00    -0.395 N 
ATOM      9  H1  UNL     1      19.448  36.796  16.475  1.00  0.00     0.155 HD
BRANCH   8  10
HETATM   10  C4  UNL     1      18.340  36.794  18.091  1.00  0.00     0.158 C 
BRANCH  10  11
HETATM   11  C3  UNL     1      17.195  37.384  17.252  1.00  0.00     0.033 C 
BRANCH  11  12
HETATM   12  C2  UNL     1      16.644  38.664  17.879  1.00  0.00    -0.002 C 
HETATM   13  C1  UNL     1      17.086  39.786  16.958  1.00  0.00     0.005 C 
ENDBRANCH  11  12
ENDBRANCH  10  11
BRANCH  10  14
HETATM   14  C22 UNL     1      17.944  35.467  18.552  1.00  0.00     0.238 C 
HETATM   15  O4  UNL     1      18.661  34.868  19.440  1.00  0.00    -0.285 OA
BRANCH  14  16
HETATM   16  C23 UNL     1      16.804  34.649  18.167  1.00  0.00     0.291 C 
HETATM   17  O5  UNL     1      15.808  34.631  18.973  1.00  0.00    -0.264 OA
HETATM   18  N5  UNL     1      16.706  33.875  16.988  1.00  0.00    -0.345 N 
HETATM   19  C24 UNL     1      15.476  33.169  16.613  1.00  0.00     0.126 C 
HETATM   20  C27 UNL     1      17.690  33.561  16.004  1.00  0.00     0.126 C 
HETATM   21  C25 UNL     1      16.032  31.893  16.008  1.00  0.00     0.021 C 
HETATM   22  C26 UNL     1      17.090  32.505  15.090  1.00  0.00     0.021 C 
ENDBRANCH  14  16
ENDBRANCH  10  14
ENDBRANCH   8  10
ENDBRANCH   6   8
BRANCH   6  23
HETATM   23  C7  UNL     1      20.930  38.512  18.892  1.00  0.00     0.034 C 
HETATM   24  C8  UNL     1      20.493  39.935  18.551  1.00  0.00     0.008 C 
ENDBRANCH   6  23
ENDBRANCH   1   6
BRANCH   1  25
HETATM   25  O1  UNL     1      22.567  36.763  18.995  1.00  0.00    -0.347 OA
ATOM     26  H1  UNL     1      22.034  36.818  19.780  1.00  0.00     0.219 HD
ENDBRANCH   1  25
BRANCH   4  27
HETATM   27  C11 UNL     1      22.419  33.226  15.959  1.00  0.00     0.180 C 
HETATM   28  C12 UNL     1      22.778  32.620  17.292  1.00  0.00     0.037 C 
HETATM   29  C13 UNL     1      21.403  32.025  17.670  1.00  0.00     0.022 C 
HETATM   30  C14 UNL     1      20.820  31.574  16.365  1.00  0.00     0.127 C 
HETATM   31  N3  UNL     1      21.595  32.239  15.346  1.00  0.00    -0.334 N 
HETATM   32  C15 UNL     1      21.619  31.977  13.949  1.00  0.00     0.264 C 
HETATM   33  O3  UNL     1      22.397  32.640  13.223  1.00  0.00    -0.267 OA
BRANCH  32  34
HETATM   34  C16 UNL     1      20.777  30.954  13.259  1.00  0.00     0.092 C 
HETATM   35  N4  UNL     1      19.571  31.408  12.712  1.00  0.00    -0.101 NA
BRANCH  34  36
HETATM   36  C17 UNL     1      21.636  30.023  12.491  1.00  0.00     0.064 C 
BRANCH  36  37
HETATM   37  C18 UNL     1      22.230  28.886  13.241  1.00  0.00    -0.014 C 
HETATM   38  C19 UNL     1      21.359  28.497  14.407  1.00  0.00     0.010 C 
BRANCH  37  39
HETATM   39  C20 UNL     1      22.480  27.663  12.385  1.00  0.00    -0.000 C 
HETATM   40  C21 UNL     1      23.977  27.501  12.148  1.00  0.00     0.005 C 
ENDBRANCH  37  39
ENDBRANCH  36  37
ENDBRANCH  34  36
ENDBRANCH  32  34
ENDBRANCH   4  27
TORSDOF 14
ENDMDL
MODEL 4
REMARK VINA RESULT: -8.334914892      2.109      3.010
REMARK  14 active torsions:
REMARK  status: ('A' for Active; 'I' for Inactive)
REMARK    1  A    between atoms: C2_2  and  C3_3 
REMARK    2  A    between atoms: C3_3  and  C4_4 
REMARK    3  A    between atoms: C4_4  and  N1_5 
REMARK    4  A    between atoms: C4_4  and  C22_32 
REMARK    5  A    between atoms: N1_5  and  C5_7 
REMARK    6  A    between atoms: C5_7  and  C7_9 
REMARK    7  A    between atoms: C5_7  and  C9_11 
REMARK    8  A    between atoms: C9_11  and  O1_12 
REMARK       I    between atoms: N2_14  and  C10_16 
REMARK    9  A    between atoms: C10_16  and  C11_18 
REMARK       I    between atoms: N3_22  and  C15_23 
REMARK   10  A    between atoms: C15_23  and  C16_25 
REMARK   11  A    between atoms: C16_25  and  C17_27 
REMARK   12  A    between atoms: C17_27  and  C18_28 
REMARK   13  A    between atoms: C18_28  and  C20_30 
REMARK   14  A    between atoms: C22_32  and  C23_34 
REMARK       I    between atoms: C23_34  and  N5_36 
ROOT
HETATM    1  C9  UNL     1      18.282  28.927  11.860  1.00  0.00     0.146 C 
HETATM    2  N2  UNL     1      18.460  30.086  12.558  1.00  0.00    -0.307 N 
ATOM      3  H2  UNL     1      17.758  30.787  12.319  1.00  0.00     0.170 HD
HETATM    4  C10 UNL     1      19.366  30.556  13.524  1.00  0.00     0.246 C 
HETATM    5  O2  UNL     1      20.333  29.947  13.971  1.00  0.00    -0.271 OA
ENDROOT
BRANCH   1   6
HETATM    6  C5  UNL     1      18.919  27.608  11.680  1.00  0.00     0.088 C 
HETATM    7  C6  UNL     1      18.610  27.135  10.241  1.00  0.00     0.047 C 
BRANCH   6   8
HETATM    8  N1  UNL     1      20.302  27.680  11.743  1.00  0.00    -0.395 N 
ATOM      9  H1  UNL     1      20.594  28.458  12.335  1.00  0.00     0.155 HD
BRANCH   8  10
HETATM   10  C4  UNL     1      21.380  27.024  11.254  1.00  0.00     0.158 C 
BRANCH  10  11
HETATM   11  C3  UNL     1      22.612  27.431  12.077  1.00  0.00     0.033 C 
BRANCH  11  12
HETATM   12  C2  UNL     1      23.863  27.523  11.205  1.00  0.00    -0.002 C 
HETATM   13  C1  UNL     1      24.939  26.770  11.964  1.00  0.00     0.005 C 
ENDBRANCH  11  12
ENDBRANCH  10  11
BRANCH  10  14
HETATM   14  C22 UNL     1      21.420  25.581  11.038  1.00  0.00     0.238 C 
HETATM   15  O4  UNL     1      21.636  24.799  12.040  1.00  0.00    -0.285 OA
BRANCH  14  16
HETATM   16  C23 UNL     1      21.243  24.818   9.812  1.00  0.00     0.291 C 
HETATM   17  O5  UNL     1      20.098  24.272   9.632  1.00  0.00    -0.264 OA
HETATM   18  N5  UNL     1      22.224  24.625   8.812  1.00  0.00    -0.345 N 
HETATM   19  C24 UNL     1      21.932  23.940   7.548  1.00  0.00     0.126 C 
HETATM   20  C27 UNL     1      23.612  24.951   8.804  1.00  0.00     0.126 C 
HETATM   21  C25 UNL     1      23.221  23.175   7.314  1.00  0.00     0.021 C 
HETATM   22  C26 UNL     1      24.219  24.305   7.570  1.00  0.00     0.021 C 
ENDBRANCH  14  16
ENDBRANCH  10  14
ENDBRANCH   8  10
ENDBRANCH   6   8
BRANCH   6  23
HETATM   23  C7  UNL     1      18.187  26.630  12.538  1.00  0.00     0.034 C 
HETATM   24  C8  UNL     1      17.874  25.319  11.821  1.00  0.00     0.008 C 
ENDBRANCH   6  23
ENDBRANCH   1   6
BRANCH   1  25
HETATM   25  O1  UNL     1      17.157  29.008  11.088  1.00  0.00    -0.347 OA
ATOM     26  H1  UNL     1      17.089  29.877  10.708  1.00  0.00     0.219 HD
ENDBRANCH   1  25
BRANCH   4  27
HETATM   27  C11 UNL     1      19.168  31.945  14.101  1.00  0.00     0.180 C 
HETATM   28  C12 UNL     1      17.693  32.082  14.384  1.00  0.00     0.037 C 
HETATM   29  C13 UNL     1      17.624  31.289  15.708  1.00  0.00     0.022 C 
HETATM   30  C14 UNL     1      18.920  31.595  16.396  1.00  0.00     0.127 C 
HETATM   31  N3  UNL     1      19.780  32.138  15.373  1.00  0.00    -0.334 N 
HETATM   32  C15 UNL     1      21.022  32.811  15.535  1.00  0.00     0.264 C 
HETATM   33  O3  UNL     1      21.607  33.252  14.517  1.00  0.00    -0.267 OA
BRANCH  32  34
HETATM   34  C16 UNL     1      21.704  33.039  16.845  1.00  0.00     0.092 C 
HETATM   35  N4  UNL     1      22.573  32.032  17.277  1.00  0.00    -0.101 NA
BRANCH  34  36
HETATM   36  C17 UNL     1      22.095  34.462  16.971  1.00  0.00     0.064 C 
BRANCH  36  37
HETATM   37  C18 UNL     1      20.993  35.450  17.115  1.00  0.00    -0.014 C 
HETATM   38  C19 UNL     1      20.208  35.199  18.377  1.00  0.00     0.010 C 
BRANCH  37  39
HETATM   39  C20 UNL     1      21.467  36.887  17.108  1.00  0.00    -0.000 C 
HETATM   40  C21 UNL     1      22.751  37.007  17.919  1.00  0.00     0.005 C 
ENDBRANCH  37  39
ENDBRANCH  36  37
ENDBRANCH  34  36
ENDBRANCH  32  34
ENDBRANCH   4  27
TORSDOF 14
ENDMDL
MODEL 5
REMARK VINA RESULT: -8.330690614      2.213      3.134
REMARK  14 active torsions:
REMARK  status: ('A' for Active; 'I' for Inactive)
REMARK    1  A    between atoms: C2_2  and  C3_3 
REMARK    2  A    between atoms: C3_3  and  C4_4 
REMARK    3  A    between atoms: C4_4  and  N1_5 
REMARK    4  A    between atoms: C4_4  and  C22_32 
REMARK    5  A    between atoms: N1_5  and  C5_7 
REMARK    6  A    between atoms: C5_7  and  C7_9 
REMARK    7  A    between atoms: C5_7  and  C9_11 
REMARK    8  A    between atoms: C9_11  and  O1_12 
REMARK       I    between atoms: N2_14  and  C10_16 
REMARK    9  A    between atoms: C10_16  and  C11_18 
REMARK       I    between atoms: N3_22  and  C15_23 
REMARK   10  A    between atoms: C15_23  and  C16_25 
REMARK   11  A    between atoms: C16_25  and  C17_27 
REMARK   12  A    between atoms: C17_27  and  C18_28 
REMARK   13  A    between atoms: C18_28  and  C20_30 
REMARK   14  A    between atoms: C22_32  and  C23_34 
REMARK       I    between atoms: C23_34  and  N5_36 
ROOT
HETATM    1  C9  UNL     1      20.222  28.807  14.416  1.00  0.00     0.146 C 
HETATM    2  N2  UNL     1      19.879  29.838  15.240  1.00  0.00    -0.307 N 
ATOM      3  H2  UNL     1      20.415  29.827  16.109  1.00  0.00     0.170 HD
HETATM    4  C10 UNL     1      18.973  30.911  15.195  1.00  0.00     0.246 C 
HETATM    5  O2  UNL     1      18.174  31.150  14.294  1.00  0.00    -0.271 OA
ENDROOT
BRANCH   1   6
HETATM    6  C5  UNL     1      19.837  28.222  13.117  1.00  0.00     0.088 C 
HETATM    7  C6  UNL     1      19.960  29.335  12.051  1.00  0.00     0.047 C 
BRANCH   6   8
HETATM    8  N1  UNL     1      20.718  27.234  12.705  1.00  0.00    -0.395 N 
ATOM      9  H1  UNL     1      21.189  26.816  13.507  1.00  0.00     0.155 HD
BRANCH   8  10
HETATM   10  C4  UNL     1      21.138  26.659  11.554  1.00  0.00     0.158 C 
BRANCH  10  11
HETATM   11  C3  UNL     1      22.623  26.292  11.708  1.00  0.00     0.033 C 
BRANCH  11  12
HETATM   12  C2  UNL     1      23.471  27.518  12.045  1.00  0.00    -0.002 C 
HETATM   13  C1  UNL     1      24.908  27.034  12.012  1.00  0.00     0.005 C 
ENDBRANCH  11  12
ENDBRANCH  10  11
BRANCH  10  14
HETATM   14  C22 UNL     1      20.448  25.548  10.905  1.00  0.00     0.238 C 
HETATM   15  O4  UNL     1      21.136  24.551  10.462  1.00  0.00    -0.285 OA
BRANCH  14  16
HETATM   16  C23 UNL     1      19.029  25.351  10.656  1.00  0.00     0.291 C 
HETATM   17  O5  UNL     1      18.337  24.859  11.617  1.00  0.00    -0.264 OA
HETATM   18  N5  UNL     1      18.353  25.651   9.451  1.00  0.00    -0.345 N 
HETATM   19  C24 UNL     1      16.897  25.533   9.318  1.00  0.00     0.126 C 
HETATM   20  C27 UNL     1      18.864  26.037   8.177  1.00  0.00     0.126 C 
HETATM   21  C25 UNL     1      16.765  25.016   7.897  1.00  0.00     0.021 C 
HETATM   22  C26 UNL     1      17.703  25.998   7.197  1.00  0.00     0.021 C 
ENDBRANCH  14  16
ENDBRANCH  10  14
ENDBRANCH   8  10
ENDBRANCH   6   8
BRANCH   6  23
HETATM   23  C7  UNL     1      18.373  27.937  13.164  1.00  0.00     0.034 C 
HETATM   24  C8  UNL     1      17.605  28.537  11.989  1.00  0.00     0.008 C 
ENDBRANCH   6  23
ENDBRANCH   1   6
BRANCH   1  25
HETATM   25  O1  UNL     1      21.252  28.090  14.959  1.00  0.00    -0.347 OA
ATOM     26  H1  UNL     1      21.290  28.241  15.897  1.00  0.00     0.219 HD
ENDBRANCH   1  25
BRANCH   4  27
HETATM   27  C11 UNL     1      18.944  31.897  16.347  1.00  0.00     0.180 C 
HETATM   28  C12 UNL     1      20.377  32.095  16.772  1.00  0.00     0.037 C 
HETATM   29  C13 UNL     1      20.828  33.074  15.665  1.00  0.00     0.022 C 
HETATM   30  C14 UNL     1      19.621  33.921  15.400  1.00  0.00     0.127 C 
HETATM   31  N3  UNL     1      18.512  33.205  15.981  1.00  0.00    -0.334 N 
HETATM   32  C15 UNL     1      17.193  33.675  16.225  1.00  0.00     0.264 C 
HETATM   33  O3  UNL     1      16.371  32.909  16.783  1.00  0.00    -0.267 OA
BRANCH  32  34
HETATM   34  C16 UNL     1      16.692  35.035  15.862  1.00  0.00     0.092 C 
HETATM   35  N4  UNL     1      16.390  35.247  14.513  1.00  0.00    -0.101 NA
BRANCH  34  36
HETATM   36  C17 UNL     1      15.778  35.537  16.915  1.00  0.00     0.064 C 
BRANCH  36  37
HETATM   37  C18 UNL     1      16.286  36.639  17.774  1.00  0.00    -0.014 C 
HETATM   38  C19 UNL     1      17.180  36.103  18.862  1.00  0.00     0.010 C 
BRANCH  37  39
HETATM   39  C20 UNL     1      17.032  37.707  17.006  1.00  0.00    -0.000 C 
HETATM   40  C21 UNL     1      16.624  39.084  17.516  1.00  0.00     0.005 C 
ENDBRANCH  37  39
ENDBRANCH  36  37
ENDBRANCH  34  36
ENDBRANCH  32  34
ENDBRANCH   4  27
TORSDOF 14
ENDMDL
