MODEL 1
REMARK VINA RESULT: -7.929383733      0.000      0.000
REMARK  14 active torsions:
REMARK  status: ('A' for Active; 'I' for Inactive)
REMARK    1  A    between atoms: C2_2  and  C3_3 
REMARK    2  A    between atoms: C3_3  and  N1_4 
REMARK       I    between atoms: N1_4  and  C4_6 
REMARK       I    between atoms: C4_6  and  N6_34 
REMARK    3  A    between atoms: N2_7  and  C5_9 
REMARK       I    between atoms: N3_14  and  C9_15 
REMARK    4  A    between atoms: C9_15  and  C10_17 
REMARK    5  A    between atoms: C10_17  and  C11_18 
REMARK    6  A    between atoms: C11_18  and  N4_19 
REMARK    7  A    between atoms: N4_19  and  S2_21 
REMARK    8  A    between atoms: S2_21  and  C12_24 
REMARK    9  A    between atoms: C12_24  and  C13_25 
REMARK   10  A    between atoms: C13_25  and  C14_26 
REMARK   11  A    between atoms: C14_26  and  C15_27 
REMARK   12  A    between atoms: C15_27  and  N5_28 
REMARK   13  A    between atoms: N6_34  and  C21_36 
REMARK   14  A    between atoms: C21_36  and  C22_37 
ROOT
HETATM    1  C5  UNL     1      18.284  34.078  17.134  1.00  0.00     0.268 C 
HETATM    2  S1  UNL     1      16.926  34.641  18.251  1.00  0.00    -0.122 SA
HETATM    3  C6  UNL     1      15.663  35.299  17.089  1.00  0.00     0.079 C 
HETATM    4  C7  UNL     1      16.323  35.798  15.827  1.00  0.00     0.030 C 
HETATM    5  C8  UNL     1      17.020  34.707  15.060  1.00  0.00     0.129 C 
HETATM    6  N3  UNL     1      17.579  33.689  15.917  1.00  0.00    -0.321 N 
HETATM    7  C9  UNL     1      17.463  32.313  15.621  1.00  0.00     0.223 C 
HETATM    8  O1  UNL     1      16.844  31.992  14.550  1.00  0.00    -0.273 OA
ENDROOT
BRANCH   1   9
HETATM    9  N2  UNL     1      19.212  35.138  16.906  1.00  0.00    -0.196 N 
HETATM   10  C4  UNL     1      20.509  35.034  17.084  1.00  0.00     0.672 C 
HETATM   11  N1  UNL     1      21.269  36.210  16.801  1.00  0.00    -0.223 N 
HETATM   12  N6  UNL     1      21.063  33.803  17.519  1.00  0.00    -0.227 N 
ATOM     13  H1  UNL     1      20.880  36.852  16.111  1.00  0.00     0.178 HD
ATOM     14  H6  UNL     1      20.770  33.452  18.431  1.00  0.00     0.177 HD
ATOM     15  H2  UNL     1      18.845  36.034  16.584  1.00  0.00     0.180 HD
BRANCH  11  16
HETATM   16  C3  UNL     1      22.509  36.574  17.385  1.00  0.00     0.164 C 
BRANCH  16  17
HETATM   17  C2  UNL     1      22.558  37.898  18.038  1.00  0.00    -0.017 C 
HETATM   18  C1  UNL     1      23.666  38.549  18.280  1.00  0.00     0.008 C 
ENDBRANCH  16  17
ENDBRANCH  11  16
BRANCH  12  19
HETATM   19  C21 UNL     1      22.004  33.013  16.776  1.00  0.00     0.137 C 
BRANCH  19  20
HETATM   20  C22 UNL     1      21.697  32.938  15.293  1.00  0.00     0.016 C 
HETATM   21  C23 UNL     1      23.025  32.617  14.605  1.00  0.00     0.006 C 
ENDBRANCH  19  20
ENDBRANCH  12  19
ENDBRANCH   1   9
BRANCH   7  22
HETATM   22  C10 UNL     1      18.031  31.271  16.507  1.00  0.00     0.123 C 
BRANCH  22  23
HETATM   23  C11 UNL     1      18.946  30.338  15.746  1.00  0.00     0.141 C 
BRANCH  23  24
HETATM   24  N4  UNL     1      18.110  29.443  14.965  1.00  0.00    -0.319 N 
ATOM     25  H4  UNL     1      17.188  29.105  15.243  1.00  0.00     0.172 HD
BRANCH  24  26
HETATM   26  S2  UNL     1      18.924  29.034  13.479  1.00  0.00     0.226 S 
HETATM   27  O2  UNL     1      18.612  30.059  12.450  1.00  0.00    -0.206 OA
HETATM   28  O3  UNL     1      18.379  27.660  13.108  1.00  0.00    -0.206 OA
BRANCH  26  29
HETATM   29  C12 UNL     1      20.647  28.870  13.766  1.00  0.00     0.163 C 
BRANCH  29  30
HETATM   30  C13 UNL     1      21.500  29.557  12.757  1.00  0.00     0.022 C 
BRANCH  30  31
HETATM   31  C14 UNL     1      21.965  28.723  11.605  1.00  0.00     0.046 C 
BRANCH  31  32
HETATM   32  C15 UNL     1      21.705  27.246  11.844  1.00  0.00     0.068 C 
BRANCH  32  33
HETATM   33  N5  UNL     1      22.823  26.425  11.649  1.00  0.00    -0.354 N 
HETATM   34  C16 UNL     1      22.678  25.261  10.911  1.00  0.00     0.068 C 
HETATM   35  C17 UNL     1      23.833  24.865  10.038  1.00  0.00     0.045 C 
HETATM   36  C18 UNL     1      24.768  26.027   9.839  1.00  0.00     0.010 C 
HETATM   37  C19 UNL     1      25.243  26.428  11.231  1.00  0.00     0.045 C 
HETATM   38  C20 UNL     1      24.049  26.990  11.969  1.00  0.00     0.068 C 
ENDBRANCH  32  33
ENDBRANCH  31  32
ENDBRANCH  30  31
ENDBRANCH  29  30
ENDBRANCH  26  29
ENDBRANCH  24  26
ENDBRANCH  23  24
ENDBRANCH  22  23
ENDBRANCH   7  22
TORSDOF 14
ENDMDL
MODEL 2
REMARK VINA RESULT: -7.842238660      2.192      3.318
REMARK  14 active torsions:
REMARK  status: ('A' for Active; 'I' for Inactive)
REMARK    1  A    between atoms: C2_2  and  C3_3 
REMARK    2  A    between atoms: C3_3  and  N1_4 
REMARK       I    between atoms: N1_4  and  C4_6 
REMARK       I    between atoms: C4_6  and  N6_34 
REMARK    3  A    between atoms: N2_7  and  C5_9 
REMARK       I    between atoms: N3_14  and  C9_15 
REMARK    4  A    between atoms: C9_15  and  C10_17 
REMARK    5  A    between atoms: C10_17  and  C11_18 
REMARK    6  A    between atoms: C11_18  and  N4_19 
REMARK    7  A    between atoms: N4_19  and  S2_21 
REMARK    8  A    between atoms: S2_21  and  C12_24 
REMARK    9  A    between atoms: C12_24  and  C13_25 
REMARK   10  A    between atoms: C13_25  and  C14_26 
REMARK   11  A    between atoms: C14_26  and  C15_27 
REMARK   12  A    between atoms: C15_27  and  N5_28 
REMARK   13  A    between atoms: N6_34  and  C21_36 
REMARK   14  A    between atoms: C21_36  and  C22_37 
ROOT
HETATM    1  C5  UNL     1      18.256  34.278  17.138  1.00  0.00     0.268 C 
HETATM    2  S1  UNL     1      16.979  34.532  18.448  1.00  0.00    -0.122 SA
HETATM    3  C6  UNL     1      15.491  35.044  17.499  1.00  0.00     0.079 C 
HETATM    4  C7  UNL     1      15.898  35.728  16.217  1.00  0.00     0.030 C 
HETATM    5  C8  UNL     1      16.655  34.821  15.285  1.00  0.00     0.129 C 
HETATM    6  N3  UNL     1      17.473  33.858  15.981  1.00  0.00    -0.321 N 
HETATM    7  C9  UNL     1      17.539  32.504  15.584  1.00  0.00     0.223 C 
HETATM    8  O1  UNL     1      16.847  32.155  14.569  1.00  0.00    -0.273 OA
ENDROOT
BRANCH   1   9
HETATM    9  N2  UNL     1      18.969  35.492  16.896  1.00  0.00    -0.196 N 
HETATM   10  C4  UNL     1      20.076  35.833  17.514  1.00  0.00     0.672 C 
HETATM   11  N1  UNL     1      20.637  37.089  17.131  1.00  0.00    -0.223 N 
HETATM   12  N6  UNL     1      20.638  34.962  18.482  1.00  0.00    -0.227 N 
ATOM     13  H1  UNL     1      20.442  37.408  16.182  1.00  0.00     0.178 HD
ATOM     14  H6  UNL     1      20.078  34.753  19.309  1.00  0.00     0.177 HD
ATOM     15  H2  UNL     1      18.594  36.135  16.199  1.00  0.00     0.180 HD
BRANCH  11  16
HETATM   16  C3  UNL     1      21.438  37.937  17.938  1.00  0.00     0.164 C 
BRANCH  16  17
HETATM   17  C2  UNL     1      22.898  37.838  17.737  1.00  0.00    -0.017 C 
HETATM   18  C1  UNL     1      23.779  38.078  18.673  1.00  0.00     0.008 C 
ENDBRANCH  16  17
ENDBRANCH  11  16
BRANCH  12  19
HETATM   19  C21 UNL     1      21.934  34.351  18.390  1.00  0.00     0.137 C 
BRANCH  19  20
HETATM   20  C22 UNL     1      22.293  33.897  16.988  1.00  0.00     0.016 C 
HETATM   21  C23 UNL     1      22.598  32.402  17.095  1.00  0.00     0.006 C 
ENDBRANCH  19  20
ENDBRANCH  12  19
ENDBRANCH   1   9
BRANCH   7  22
HETATM   22  C10 UNL     1      18.372  31.516  16.307  1.00  0.00     0.123 C 
BRANCH  22  23
HETATM   23  C11 UNL     1      19.591  31.126  15.500  1.00  0.00     0.141 C 
BRANCH  23  24
HETATM   24  N4  UNL     1      19.833  32.182  14.532  1.00  0.00    -0.319 N 
ATOM     25  H4  UNL     1      19.350  33.080  14.507  1.00  0.00     0.172 HD
BRANCH  24  26
HETATM   26  S2  UNL     1      21.079  31.678  13.422  1.00  0.00     0.226 S 
HETATM   27  O2  UNL     1      22.252  32.578  13.557  1.00  0.00    -0.206 OA
HETATM   28  O3  UNL     1      20.429  31.781  12.046  1.00  0.00    -0.206 OA
BRANCH  26  29
HETATM   29  C12 UNL     1      21.484  29.995  13.701  1.00  0.00     0.163 C 
BRANCH  29  30
HETATM   30  C13 UNL     1      21.695  29.205  12.455  1.00  0.00     0.022 C 
BRANCH  30  31
HETATM   31  C14 UNL     1      21.520  27.723  12.573  1.00  0.00     0.046 C 
BRANCH  31  32
HETATM   32  C15 UNL     1      20.531  27.194  11.551  1.00  0.00     0.068 C 
BRANCH  32  33
HETATM   33  N5  UNL     1      19.188  27.433  11.869  1.00  0.00    -0.354 N 
HETATM   34  C16 UNL     1      18.817  27.494  13.203  1.00  0.00     0.068 C 
HETATM   35  C17 UNL     1      17.748  28.485  13.563  1.00  0.00     0.045 C 
HETATM   36  C18 UNL     1      17.571  29.495  12.461  1.00  0.00     0.010 C 
HETATM   37  C19 UNL     1      17.187  28.700  11.220  1.00  0.00     0.045 C 
HETATM   38  C20 UNL     1      18.391  27.876  10.823  1.00  0.00     0.068 C 
ENDBRANCH  32  33
ENDBRANCH  31  32
ENDBRANCH  30  31
ENDBRANCH  29  30
ENDBRANCH  26  29
ENDBRANCH  24  26
ENDBRANCH  23  24
ENDBRANCH  22  23
ENDBRANCH   7  22
TORSDOF 14
ENDMDL
MODEL 3
REMARK VINA RESULT: -7.805437434      2.319      8.937
REMARK  14 active torsions:
REMARK  status: ('A' for Active; 'I' for Inactive)
REMARK    1  A    between atoms: C2_2  and  C3_3 
REMARK    2  A    between atoms: C3_3  and  N1_4 
REMARK       I    between atoms: N1_4  and  C4_6 
REMARK       I    between atoms: C4_6  and  N6_34 
REMARK    3  A    between atoms: N2_7  and  C5_9 
REMARK       I    between atoms: N3_14  and  C9_15 
REMARK    4  A    between atoms: C9_15  and  C10_17 
REMARK    5  A    between atoms: C10_17  and  C11_18 
REMARK    6  A    between atoms: C11_18  and  N4_19 
REMARK    7  A    between atoms: N4_19  and  S2_21 
REMARK    8  A    between atoms: S2_21  and  C12_24 
REMARK    9  A    between atoms: C12_24  and  C13_25 
REMARK   10  A    between atoms: C13_25  and  C14_26 
REMARK   11  A    between atoms: C14_26  and  C15_27 
REMARK   12  A    between atoms: C15_27  and  N5_28 
REMARK   13  A    between atoms: N6_34  and  C21_36 
REMARK   14  A    between atoms: C21_36  and  C22_37 
ROOT
HETATM    1  C5  UNL     1      19.649  30.517  14.692  1.00  0.00     0.268 C 
HETATM    2  S1  UNL     1      20.301  30.339  16.411  1.00  0.00    -0.122 SA
HETATM    3  C6  UNL     1      21.346  31.835  16.627  1.00  0.00     0.079 C 
HETATM    4  C7  UNL     1      21.880  32.297  15.295  1.00  0.00     0.030 C 
HETATM    5  C8  UNL     1      20.794  32.721  14.343  1.00  0.00     0.129 C 
HETATM    6  N3  UNL     1      19.578  31.962  14.507  1.00  0.00    -0.321 N 
HETATM    7  C9  UNL     1      18.306  32.575  14.501  1.00  0.00     0.223 C 
HETATM    8  O1  UNL     1      18.264  33.841  14.337  1.00  0.00    -0.273 OA
ENDROOT
BRANCH   1   9
HETATM    9  N2  UNL     1      20.532  29.894  13.759  1.00  0.00    -0.196 N 
HETATM   10  C4  UNL     1      20.329  28.711  13.227  1.00  0.00     0.672 C 
HETATM   11  N1  UNL     1      21.331  28.263  12.314  1.00  0.00    -0.223 N 
HETATM   12  N6  UNL     1      19.164  27.977  13.568  1.00  0.00    -0.227 N 
ATOM     13  H1  UNL     1      21.852  28.984  11.814  1.00  0.00     0.178 HD
ATOM     14  H6  UNL     1      19.045  27.711  14.546  1.00  0.00     0.177 HD
ATOM     15  H2  UNL     1      21.375  30.402  13.487  1.00  0.00     0.180 HD
BRANCH  11  16
HETATM   16  C3  UNL     1      21.674  26.916  12.031  1.00  0.00     0.164 C 
BRANCH  16  17
HETATM   17  C2  UNL     1      23.056  26.679  11.568  1.00  0.00    -0.017 C 
HETATM   18  C1  UNL     1      24.095  27.333  12.018  1.00  0.00     0.008 C 
ENDBRANCH  16  17
ENDBRANCH  11  16
BRANCH  12  19
HETATM   19  C21 UNL     1      18.139  27.579  12.645  1.00  0.00     0.137 C 
BRANCH  19  20
HETATM   20  C22 UNL     1      17.363  28.744  12.060  1.00  0.00     0.016 C 
HETATM   21  C23 UNL     1      17.094  28.377  10.599  1.00  0.00     0.006 C 
ENDBRANCH  19  20
ENDBRANCH  12  19
ENDBRANCH   1   9
BRANCH   7  22
HETATM   22  C10 UNL     1      17.060  31.794  14.679  1.00  0.00     0.123 C 
BRANCH  22  23
HETATM   23  C11 UNL     1      16.557  31.873  16.103  1.00  0.00     0.141 C 
BRANCH  23  24
HETATM   24  N4  UNL     1      15.735  33.067  16.213  1.00  0.00    -0.319 N 
ATOM     25  H4  UNL     1      14.880  33.243  15.686  1.00  0.00     0.172 HD
BRANCH  24  26
HETATM   26  S2  UNL     1      16.438  34.150  17.384  1.00  0.00     0.226 S 
HETATM   27  O2  UNL     1      17.784  33.654  17.766  1.00  0.00    -0.206 OA
HETATM   28  O3  UNL     1      15.463  34.132  18.556  1.00  0.00    -0.206 OA
BRANCH  26  29
HETATM   29  C12 UNL     1      16.477  35.782  16.742  1.00  0.00     0.163 C 
BRANCH  29  30
HETATM   30  C13 UNL     1      16.338  36.845  17.776  1.00  0.00     0.022 C 
BRANCH  30  31
HETATM   31  C14 UNL     1      17.551  37.122  18.607  1.00  0.00     0.046 C 
BRANCH  31  32
HETATM   32  C15 UNL     1      18.729  37.553  17.751  1.00  0.00     0.068 C 
BRANCH  32  33
HETATM   33  N5  UNL     1      19.971  37.088  18.203  1.00  0.00    -0.354 N 
HETATM   34  C16 UNL     1      20.041  35.842  18.803  1.00  0.00     0.068 C 
HETATM   35  C17 UNL     1      21.274  35.029  18.533  1.00  0.00     0.045 C 
HETATM   36  C18 UNL     1      22.014  35.572  17.341  1.00  0.00     0.010 C 
HETATM   37  C19 UNL     1      22.371  37.013  17.688  1.00  0.00     0.045 C 
HETATM   38  C20 UNL     1      21.078  37.793  17.751  1.00  0.00     0.068 C 
ENDBRANCH  32  33
ENDBRANCH  31  32
ENDBRANCH  30  31
ENDBRANCH  29  30
ENDBRANCH  26  29
ENDBRANCH  24  26
ENDBRANCH  23  24
ENDBRANCH  22  23
ENDBRANCH   7  22
TORSDOF 14
ENDMDL
MODEL 4
REMARK VINA RESULT: -7.792631778      1.285      1.464
REMARK  14 active torsions:
REMARK  status: ('A' for Active; 'I' for Inactive)
REMARK    1  A    between atoms: C2_2  and  C3_3 
REMARK    2  A    between atoms: C3_3  and  N1_4 
REMARK       I    between atoms: N1_4  and  C4_6 
REMARK       I    between atoms: C4_6  and  N6_34 
REMARK    3  A    between atoms: N2_7  and  C5_9 
REMARK       I    between atoms: N3_14  and  C9_15 
REMARK    4  A    between atoms: C9_15  and  C10_17 
REMARK    5  A    between atoms: C10_17  and  C11_18 
REMARK    6  A    between atoms: C11_18  and  N4_19 
REMARK    7  A    between atoms: N4_19  and  S2_21 
REMARK    8  A    between atoms: S2_21  and  C12_24 
REMARK    9  A    between atoms: C12_24  and  C13_25 
REMARK   10  A    between atoms: C13_25  and  C14_26 
REMARK   11  A    between atoms: C14_26  and  C15_27 
REMARK   12  A    between atoms: C15_27  and  N5_28 
REMARK   13  A    between atoms: N6_34  and  C21_36 
REMARK   14  A    between atoms: C21_36  and  C22_37 
ROOT
HETATM    1  C5  UNL     1      18.371  33.842  17.011  1.00  0.00     0.268 C 
HETATM    2  S1  UNL     1      16.777  34.324  17.810  1.00  0.00    -0.122 SA
HETATM    3  C6  UNL     1      15.647  34.582  16.383  1.00  0.00     0.079 C 
HETATM    4  C7  UNL     1      16.431  34.995  15.163  1.00  0.00     0.030 C 
HETATM    5  C8  UNL     1      17.397  33.937  14.701  1.00  0.00     0.129 C 
HETATM    6  N3  UNL     1      17.945  33.166  15.790  1.00  0.00    -0.321 N 
HETATM    7  C9  UNL     1      18.080  31.762  15.721  1.00  0.00     0.223 C 
HETATM    8  O1  UNL     1      17.702  31.187  14.644  1.00  0.00    -0.273 OA
ENDROOT
BRANCH   1   9
HETATM    9  N2  UNL     1      19.162  34.999  16.740  1.00  0.00    -0.196 N 
HETATM   10  C4  UNL     1      20.441  35.100  17.017  1.00  0.00     0.672 C 
HETATM   11  N1  UNL     1      21.054  36.341  16.669  1.00  0.00    -0.223 N 
HETATM   12  N6  UNL     1      21.120  34.006  17.614  1.00  0.00    -0.227 N 
ATOM     13  H1  UNL     1      20.641  36.854  15.891  1.00  0.00     0.178 HD
ATOM     14  H6  UNL     1      20.803  33.701  18.535  1.00  0.00     0.177 HD
ATOM     15  H2  UNL     1      18.704  35.799  16.304  1.00  0.00     0.180 HD
BRANCH  11  16
HETATM   16  C3  UNL     1      22.181  36.931  17.297  1.00  0.00     0.164 C 
BRANCH  16  17
HETATM   17  C2  UNL     1      21.893  37.959  18.318  1.00  0.00    -0.017 C 
HETATM   18  C1  UNL     1      20.773  38.632  18.376  1.00  0.00     0.008 C 
ENDBRANCH  16  17
ENDBRANCH  11  16
BRANCH  12  19
HETATM   19  C21 UNL     1      22.218  33.294  17.023  1.00  0.00     0.137 C 
BRANCH  19  20
HETATM   20  C22 UNL     1      22.220  33.330  15.506  1.00  0.00     0.016 C 
HETATM   21  C23 UNL     1      23.480  32.580  15.070  1.00  0.00     0.006 C 
ENDBRANCH  19  20
ENDBRANCH  12  19
ENDBRANCH   1   9
BRANCH   7  22
HETATM   22  C10 UNL     1      18.634  30.972  16.844  1.00  0.00     0.123 C 
BRANCH  22  23
HETATM   23  C11 UNL     1      20.057  30.541  16.567  1.00  0.00     0.141 C 
BRANCH  23  24
HETATM   24  N4  UNL     1      20.022  29.149  16.153  1.00  0.00    -0.319 N 
ATOM     25  H4  UNL     1      19.686  28.373  16.724  1.00  0.00     0.172 HD
BRANCH  24  26
HETATM   26  S2  UNL     1      20.644  29.009  14.531  1.00  0.00     0.226 S 
HETATM   27  O2  UNL     1      21.931  28.269  14.560  1.00  0.00    -0.206 OA
HETATM   28  O3  UNL     1      20.817  30.449  14.061  1.00  0.00    -0.206 OA
BRANCH  26  29
HETATM   29  C12 UNL     1      19.451  28.246  13.496  1.00  0.00     0.163 C 
BRANCH  29  30
HETATM   30  C13 UNL     1      19.591  28.585  12.053  1.00  0.00     0.022 C 
BRANCH  30  31
HETATM   31  C14 UNL     1      20.844  28.114  11.382  1.00  0.00     0.046 C 
BRANCH  31  32
HETATM   32  C15 UNL     1      20.985  26.605  11.457  1.00  0.00     0.068 C 
BRANCH  32  33
HETATM   33  N5  UNL     1      22.308  26.146  11.423  1.00  0.00    -0.354 N 
HETATM   34  C16 UNL     1      22.590  24.963  10.759  1.00  0.00     0.068 C 
HETATM   35  C17 UNL     1      23.897  24.894  10.024  1.00  0.00     0.045 C 
HETATM   36  C18 UNL     1      24.467  26.273   9.829  1.00  0.00     0.010 C 
HETATM   37  C19 UNL     1      24.652  26.853  11.226  1.00  0.00     0.045 C 
HETATM   38  C20 UNL     1      23.274  27.064  11.811  1.00  0.00     0.068 C 
ENDBRANCH  32  33
ENDBRANCH  31  32
ENDBRANCH  30  31
ENDBRANCH  29  30
ENDBRANCH  26  29
ENDBRANCH  24  26
ENDBRANCH  23  24
ENDBRANCH  22  23
ENDBRANCH   7  22
TORSDOF 14
ENDMDL
MODEL 5
REMARK VINA RESULT: -7.577139994      2.500      9.294
REMARK  14 active torsions:
REMARK  status: ('A' for Active; 'I' for Inactive)
REMARK    1  A    between atoms: C2_2  and  C3_3 
REMARK    2  A    between atoms: C3_3  and  N1_4 
REMARK       I    between atoms: N1_4  and  C4_6 
REMARK       I    between atoms: C4_6  and  N6_34 
REMARK    3  A    between atoms: N2_7  and  C5_9 
REMARK       I    between atoms: N3_14  and  C9_15 
REMARK    4  A    between atoms: C9_15  and  C10_17 
REMARK    5  A    between atoms: C10_17  and  C11_18 
REMARK    6  A    between atoms: C11_18  and  N4_19 
REMARK    7  A    between atoms: N4_19  and  S2_21 
REMARK    8  A    between atoms: S2_21  and  C12_24 
REMARK    9  A    between atoms: C12_24  and  C13_25 
REMARK   10  A    between atoms: C13_25  and  C14_26 
REMARK   11  A    between atoms: C14_26  and  C15_27 
REMARK   12  A    between atoms: C15_27  and  N5_28 
REMARK   13  A    between atoms: N6_34  and  C21_36 
REMARK   14  A    between atoms: C21_36  and  C22_37 
ROOT
HETATM    1  C5  UNL     1      20.643  29.015  13.194  1.00  0.00     0.268 C 
HETATM    2  S1  UNL     1      19.245  29.613  12.145  1.00  0.00    -0.122 SA
HETATM    3  C6  UNL     1      17.781  29.427  13.240  1.00  0.00     0.079 C 
HETATM    4  C7  UNL     1      18.008  28.315  14.234  1.00  0.00     0.030 C 
HETATM    5  C8  UNL     1      19.155  28.591  15.169  1.00  0.00     0.129 C 
HETATM    6  N3  UNL     1      20.215  29.349  14.548  1.00  0.00    -0.321 N 
HETATM    7  C9  UNL     1      20.855  30.420  15.208  1.00  0.00     0.223 C 
HETATM    8  O1  UNL     1      20.468  30.698  16.393  1.00  0.00    -0.273 OA
ENDROOT
BRANCH   1   9
HETATM    9  N2  UNL     1      20.832  27.611  13.017  1.00  0.00    -0.196 N 
HETATM   10  C4  UNL     1      21.527  27.077  12.040  1.00  0.00     0.672 C 
HETATM   11  N1  UNL     1      21.598  25.651  12.038  1.00  0.00    -0.223 N 
HETATM   12  N6  UNL     1      22.156  27.916  11.085  1.00  0.00    -0.227 N 
ATOM     13  H1  UNL     1      21.515  25.186  12.941  1.00  0.00     0.178 HD
ATOM     14  H6  UNL     1      21.556  28.514  10.516  1.00  0.00     0.177 HD
ATOM     15  H2  UNL     1      20.399  26.982  13.694  1.00  0.00     0.180 HD
BRANCH  11  16
HETATM   16  C3  UNL     1      21.773  24.817  10.904  1.00  0.00     0.164 C 
BRANCH  16  17
HETATM   17  C2  UNL     1      20.639  24.758   9.958  1.00  0.00    -0.017 C 
HETATM   18  C1  UNL     1      20.779  24.671   8.661  1.00  0.00     0.008 C 
ENDBRANCH  16  17
ENDBRANCH  11  16
BRANCH  12  19
HETATM   19  C21 UNL     1      23.572  27.990  10.856  1.00  0.00     0.137 C 
BRANCH  19  20
HETATM   20  C22 UNL     1      24.403  27.503  12.027  1.00  0.00     0.016 C 
HETATM   21  C23 UNL     1      25.283  26.378  11.479  1.00  0.00     0.006 C 
ENDBRANCH  19  20
ENDBRANCH  12  19
ENDBRANCH   1   9
BRANCH   7  22
HETATM   22  C10 UNL     1      21.936  31.202  14.564  1.00  0.00     0.123 C 
BRANCH  22  23
HETATM   23  C11 UNL     1      22.352  32.378  15.419  1.00  0.00     0.141 C 
BRANCH  23  24
HETATM   24  N4  UNL     1      21.318  33.393  15.303  1.00  0.00    -0.319 N 
ATOM     25  H4  UNL     1      20.736  33.549  14.480  1.00  0.00     0.172 HD
BRANCH  24  26
HETATM   26  S2  UNL     1      21.226  34.301  16.788  1.00  0.00     0.226 S 
HETATM   27  O2  UNL     1      21.639  35.705  16.532  1.00  0.00    -0.206 OA
HETATM   28  O3  UNL     1      22.181  33.583  17.736  1.00  0.00    -0.206 OA
BRANCH  26  29
HETATM   29  C12 UNL     1      19.611  34.186  17.462  1.00  0.00     0.163 C 
BRANCH  29  30
HETATM   30  C13 UNL     1      18.974  35.503  17.742  1.00  0.00     0.022 C 
BRANCH  30  31
HETATM   31  C14 UNL     1      17.481  35.504  17.855  1.00  0.00     0.046 C 
BRANCH  31  32
HETATM   32  C15 UNL     1      16.819  35.709  16.504  1.00  0.00     0.068 C 
BRANCH  32  33
HETATM   33  N5  UNL     1      16.497  34.521  15.834  1.00  0.00    -0.354 N 
HETATM   34  C16 UNL     1      17.296  34.110  14.779  1.00  0.00     0.068 C 
HETATM   35  C17 UNL     1      17.510  32.632  14.629  1.00  0.00     0.045 C 
HETATM   36  C18 UNL     1      17.131  31.912  15.895  1.00  0.00     0.010 C 
HETATM   37  C19 UNL     1      15.661  32.232  16.137  1.00  0.00     0.045 C 
HETATM   38  C20 UNL     1      15.570  33.705  16.467  1.00  0.00     0.068 C 
ENDBRANCH  32  33
ENDBRANCH  31  32
ENDBRANCH  30  31
ENDBRANCH  29  30
ENDBRANCH  26  29
ENDBRANCH  24  26
ENDBRANCH  23  24
ENDBRANCH  22  23
ENDBRANCH   7  22
TORSDOF 14
ENDMDL
