MODEL 1
REMARK VINA RESULT: -8.022646965      0.000      0.000
REMARK  16 active torsions:
REMARK  status: ('A' for Active; 'I' for Inactive)
REMARK    1  A    between atoms: C2_2  and  C3_3 
REMARK    2  A    between atoms: C3_3  and  C4_4 
REMARK    3  A    between atoms: C4_4  and  C5_5 
REMARK    4  A    between atoms: C5_5  and  C6_6 
REMARK    5  A    between atoms: C7_7  and  C8_8 
REMARK    6  A    between atoms: C8_8  and  C10_10 
REMARK    7  A    between atoms: N1_13  and  C12_14 
REMARK    8  A    between atoms: C12_14  and  O2_15 
REMARK    9  A    between atoms: C12_14  and  C13_17 
REMARK   10  A    between atoms: C13_17  and  C16_20 
REMARK   11  A    between atoms: N2_24  and  C20_25 
REMARK   12  A    between atoms: C20_25  and  C21_26 
REMARK   13  A    between atoms: N4_33  and  C26_34 
REMARK   14  A    between atoms: C26_34  and  C27_35 
REMARK   15  A    between atoms: C27_35  and  N5_36 
REMARK   16  A    between atoms: N5_36  and  C28_38 
ROOT
HETATM    1  C6  UNL     1      20.291  28.628  14.124  1.00  0.00     0.250 C 
HETATM    2  C7  UNL     1      20.038  30.017  14.750  1.00  0.00     0.147 C 
HETATM    3  N1  UNL     1      18.661  30.121  14.963  1.00  0.00    -0.375 N 
HETATM    4  C23 UNL     1      17.903  28.944  14.531  1.00  0.00     0.155 C 
HETATM    5  C24 UNL     1      18.209  28.366  13.206  1.00  0.00     0.237 C 
HETATM    6  C25 UNL     1      17.710  26.937  13.207  1.00  0.00     0.044 C 
HETATM    7  N4  UNL     1      19.604  28.509  12.890  1.00  0.00     0.102 N 
ENDROOT
BRANCH   3   8
HETATM    8  C12 UNL     1      18.010  30.846  15.926  1.00  0.00     0.224 C 
BRANCH   8   9
HETATM    9  O2  UNL     1      19.034  31.045  16.954  1.00  0.00    -0.376 OA
ATOM     10  H2  UNL     1      18.581  31.543  17.624  1.00  0.00     0.212 HD
ENDBRANCH   8   9
BRANCH   8  11
HETATM   11  C13 UNL     1      17.321  32.121  15.915  1.00  0.00     0.001 C 
HETATM   12  C14 UNL     1      15.864  31.922  16.499  1.00  0.00     0.020 C 
HETATM   13  C15 UNL     1      16.982  32.385  14.406  1.00  0.00     0.020 C 
BRANCH  11  14
HETATM   14  C16 UNL     1      17.815  33.410  16.379  1.00  0.00     0.026 C 
HETATM   15  C17 UNL     1      17.576  34.443  15.253  1.00  0.00     0.009 C 
HETATM   16  C18 UNL     1      16.428  35.350  15.479  1.00  0.00     0.031 C 
HETATM   17  C19 UNL     1      16.524  36.112  16.804  1.00  0.00     0.273 C 
HETATM   18  N2  UNL     1      17.628  35.528  17.481  1.00  0.00     0.097 N 
HETATM   19  C22 UNL     1      17.332  34.085  17.584  1.00  0.00     0.278 C 
BRANCH  18  20
HETATM   20  C20 UNL     1      17.863  36.123  18.750  1.00  0.00     0.371 C 
BRANCH  20  21
HETATM   21  C21 UNL     1      19.295  36.217  19.047  1.00  0.00     0.259 C 
HETATM   22  N3  UNL     1      20.067  37.388  18.760  1.00  0.00    -0.061 NA
HETATM   23  O3  UNL     1      19.910  35.254  19.576  1.00  0.00    -0.275 OA
ENDBRANCH  20  21
ENDBRANCH  18  20
ENDBRANCH  11  14
ENDBRANCH   8  11
ENDBRANCH   3   8
BRANCH   2  24
HETATM   24  C8  UNL     1      20.713  31.075  13.938  1.00  0.00    -0.014 C 
HETATM   25  C9  UNL     1      20.010  31.603  12.742  1.00  0.00     0.049 C 
BRANCH  24  26
HETATM   26  C10 UNL     1      21.533  32.061  14.666  1.00  0.00     0.149 C 
HETATM   27  C11 UNL     1      23.023  32.056  14.437  1.00  0.00     0.096 C 
HETATM   28  O1  UNL     1      21.060  32.851  15.420  1.00  0.00    -0.293 OA
ENDBRANCH  24  26
ENDBRANCH   2  24
BRANCH   1  29
HETATM   29  C5  UNL     1      21.726  28.258  14.023  1.00  0.00     0.038 C 
BRANCH  29  30
HETATM   30  C4  UNL     1      22.356  28.644  12.706  1.00  0.00     0.002 C 
BRANCH  30  31
HETATM   31  C3  UNL     1      23.668  27.915  12.514  1.00  0.00    -0.000 C 
BRANCH  31  32
HETATM   32  C2  UNL     1      23.789  27.229  11.188  1.00  0.00    -0.005 C 
HETATM   33  C1  UNL     1      24.922  26.240  11.159  1.00  0.00     0.005 C 
ENDBRANCH  31  32
ENDBRANCH  30  31
ENDBRANCH  29  30
ENDBRANCH   1  29
BRANCH   7  34
HETATM   34  C26 UNL     1      20.140  27.643  11.916  1.00  0.00     0.293 C 
BRANCH  34  35
HETATM   35  C27 UNL     1      19.341  27.606  10.661  1.00  0.00     0.152 C 
BRANCH  35  36
HETATM   36  N5  UNL     1      19.743  26.432   9.870  1.00  0.00    -0.367 N 
ATOM     37  H5  UNL     1      19.421  26.329   8.908  1.00  0.00     0.161 HD
BRANCH  36  38
HETATM   38  C28 UNL     1      20.583  25.437  10.452  1.00  0.00     0.348 C 
HETATM   39  O4  UNL     1      20.201  24.254  10.571  1.00  0.00    -0.284 OA
ENDBRANCH  36  38
ENDBRANCH  35  36
ENDBRANCH  34  35
ENDBRANCH   7  34
TORSDOF 16
ENDMDL
MODEL 2
REMARK VINA RESULT: -7.819046563      1.498      1.882
REMARK  16 active torsions:
REMARK  status: ('A' for Active; 'I' for Inactive)
REMARK    1  A    between atoms: C2_2  and  C3_3 
REMARK    2  A    between atoms: C3_3  and  C4_4 
REMARK    3  A    between atoms: C4_4  and  C5_5 
REMARK    4  A    between atoms: C5_5  and  C6_6 
REMARK    5  A    between atoms: C7_7  and  C8_8 
REMARK    6  A    between atoms: C8_8  and  C10_10 
REMARK    7  A    between atoms: N1_13  and  C12_14 
REMARK    8  A    between atoms: C12_14  and  O2_15 
REMARK    9  A    between atoms: C12_14  and  C13_17 
REMARK   10  A    between atoms: C13_17  and  C16_20 
REMARK   11  A    between atoms: N2_24  and  C20_25 
REMARK   12  A    between atoms: C20_25  and  C21_26 
REMARK   13  A    between atoms: N4_33  and  C26_34 
REMARK   14  A    between atoms: C26_34  and  C27_35 
REMARK   15  A    between atoms: C27_35  and  N5_36 
REMARK   16  A    between atoms: N5_36  and  C28_38 
ROOT
HETATM    1  C6  UNL     1      20.290  28.867  14.266  1.00  0.00     0.250 C 
HETATM    2  C7  UNL     1      20.266  30.337  14.737  1.00  0.00     0.147 C 
HETATM    3  N1  UNL     1      18.947  30.628  15.092  1.00  0.00    -0.375 N 
HETATM    4  C23 UNL     1      18.020  29.510  14.901  1.00  0.00     0.155 C 
HETATM    5  C24 UNL     1      18.090  28.755  13.633  1.00  0.00     0.237 C 
HETATM    6  C25 UNL     1      17.448  27.406  13.870  1.00  0.00     0.044 C 
HETATM    7  N4  UNL     1      19.441  28.694  13.143  1.00  0.00     0.102 N 
ENDROOT
BRANCH   3   8
HETATM    8  C12 UNL     1      18.504  31.529  16.025  1.00  0.00     0.224 C 
BRANCH   8   9
HETATM    9  O2  UNL     1      19.585  31.555  17.014  1.00  0.00    -0.376 OA
ATOM     10  H2  UNL     1      19.257  31.002  17.713  1.00  0.00     0.212 HD
ENDBRANCH   8   9
BRANCH   8  11
HETATM   11  C13 UNL     1      18.109  32.922  15.953  1.00  0.00     0.001 C 
HETATM   12  C14 UNL     1      16.717  33.098  16.684  1.00  0.00     0.020 C 
HETATM   13  C15 UNL     1      17.670  33.142  14.463  1.00  0.00     0.020 C 
BRANCH  11  14
HETATM   14  C16 UNL     1      18.916  34.098  16.243  1.00  0.00     0.026 C 
HETATM   15  C17 UNL     1      18.157  34.949  17.288  1.00  0.00     0.009 C 
HETATM   16  C18 UNL     1      18.684  34.848  18.668  1.00  0.00     0.031 C 
HETATM   17  C19 UNL     1      20.171  35.202  18.765  1.00  0.00     0.273 C 
HETATM   18  N2  UNL     1      20.603  35.328  17.417  1.00  0.00     0.097 N 
HETATM   19  C22 UNL     1      20.284  34.045  16.760  1.00  0.00     0.278 C 
BRANCH  18  20
HETATM   20  C20 UNL     1      21.982  35.657  17.318  1.00  0.00     0.371 C 
BRANCH  20  21
HETATM   21  C21 UNL     1      22.249  37.020  17.785  1.00  0.00     0.259 C 
HETATM   22  N3  UNL     1      22.996  37.295  18.975  1.00  0.00    -0.061 NA
HETATM   23  O3  UNL     1      21.824  38.018  17.146  1.00  0.00    -0.275 OA
ENDBRANCH  20  21
ENDBRANCH  18  20
ENDBRANCH  11  14
ENDBRANCH   8  11
ENDBRANCH   3   8
BRANCH   2  24
HETATM   24  C8  UNL     1      20.940  31.209  13.727  1.00  0.00    -0.014 C 
HETATM   25  C9  UNL     1      20.115  31.799  12.642  1.00  0.00     0.049 C 
BRANCH  24  26
HETATM   26  C10 UNL     1      22.046  32.060  14.203  1.00  0.00     0.149 C 
HETATM   27  C11 UNL     1      22.775  31.646  15.455  1.00  0.00     0.096 C 
HETATM   28  O1  UNL     1      22.377  33.052  13.635  1.00  0.00    -0.293 OA
ENDBRANCH  24  26
ENDBRANCH   2  24
BRANCH   1  29
HETATM   29  C5  UNL     1      21.652  28.318  14.048  1.00  0.00     0.038 C 
BRANCH  29  30
HETATM   30  C4  UNL     1      22.233  28.664  12.698  1.00  0.00     0.002 C 
BRANCH  30  31
HETATM   31  C3  UNL     1      23.538  27.932  12.479  1.00  0.00    -0.000 C 
BRANCH  31  32
HETATM   32  C2  UNL     1      23.463  26.860  11.435  1.00  0.00    -0.005 C 
HETATM   33  C1  UNL     1      24.733  26.059  11.347  1.00  0.00     0.005 C 
ENDBRANCH  31  32
ENDBRANCH  30  31
ENDBRANCH  29  30
ENDBRANCH   1  29
BRANCH   7  34
HETATM   34  C26 UNL     1      19.754  27.667  12.231  1.00  0.00     0.293 C 
BRANCH  34  35
HETATM   35  C27 UNL     1      19.095  27.837  10.907  1.00  0.00     0.152 C 
BRANCH  35  36
HETATM   36  N5  UNL     1      19.581  26.794   9.990  1.00  0.00    -0.367 N 
ATOM     37  H5  UNL     1      19.570  26.953   8.983  1.00  0.00     0.161 HD
BRANCH  36  38
HETATM   38  C28 UNL     1      20.069  25.560  10.513  1.00  0.00     0.348 C 
HETATM   39  O4  UNL     1      19.856  24.478   9.927  1.00  0.00    -0.284 OA
ENDBRANCH  36  38
ENDBRANCH  35  36
ENDBRANCH  34  35
ENDBRANCH   7  34
TORSDOF 16
ENDMDL
MODEL 3
REMARK VINA RESULT: -7.799628425      1.378      1.723
REMARK  16 active torsions:
REMARK  status: ('A' for Active; 'I' for Inactive)
REMARK    1  A    between atoms: C2_2  and  C3_3 
REMARK    2  A    between atoms: C3_3  and  C4_4 
REMARK    3  A    between atoms: C4_4  and  C5_5 
REMARK    4  A    between atoms: C5_5  and  C6_6 
REMARK    5  A    between atoms: C7_7  and  C8_8 
REMARK    6  A    between atoms: C8_8  and  C10_10 
REMARK    7  A    between atoms: N1_13  and  C12_14 
REMARK    8  A    between atoms: C12_14  and  O2_15 
REMARK    9  A    between atoms: C12_14  and  C13_17 
REMARK   10  A    between atoms: C13_17  and  C16_20 
REMARK   11  A    between atoms: N2_24  and  C20_25 
REMARK   12  A    between atoms: C20_25  and  C21_26 
REMARK   13  A    between atoms: N4_33  and  C26_34 
REMARK   14  A    between atoms: C26_34  and  C27_35 
REMARK   15  A    between atoms: C27_35  and  N5_36 
REMARK   16  A    between atoms: N5_36  and  C28_38 
ROOT
HETATM    1  C6  UNL     1      20.369  28.884  14.291  1.00  0.00     0.250 C 
HETATM    2  C7  UNL     1      20.407  30.395  14.607  1.00  0.00     0.147 C 
HETATM    3  N1  UNL     1      19.087  30.797  14.824  1.00  0.00    -0.375 N 
HETATM    4  C23 UNL     1      18.105  29.720  14.674  1.00  0.00     0.155 C 
HETATM    5  C24 UNL     1      18.220  28.831  13.498  1.00  0.00     0.237 C 
HETATM    6  C25 UNL     1      17.475  27.554  13.820  1.00  0.00     0.044 C 
HETATM    7  N4  UNL     1      19.596  28.641  13.128  1.00  0.00     0.102 N 
ENDROOT
BRANCH   3   8
HETATM    8  C12 UNL     1      18.636  31.816  15.622  1.00  0.00     0.224 C 
BRANCH   8   9
HETATM    9  O2  UNL     1      19.409  31.649  16.855  1.00  0.00    -0.376 OA
ATOM     10  H2  UNL     1      20.173  31.161  16.573  1.00  0.00     0.212 HD
ENDBRANCH   8   9
BRANCH   8  11
HETATM   11  C13 UNL     1      18.595  33.257  15.466  1.00  0.00     0.001 C 
HETATM   12  C14 UNL     1      18.747  33.611  13.932  1.00  0.00     0.020 C 
HETATM   13  C15 UNL     1      19.978  33.762  16.007  1.00  0.00     0.020 C 
BRANCH  11  14
HETATM   14  C16 UNL     1      17.644  34.193  16.048  1.00  0.00     0.026 C 
HETATM   15  C17 UNL     1      16.220  33.680  15.733  1.00  0.00     0.009 C 
HETATM   16  C18 UNL     1      15.531  33.030  16.872  1.00  0.00     0.031 C 
HETATM   17  C19 UNL     1      15.445  33.929  18.108  1.00  0.00     0.273 C 
HETATM   18  N2  UNL     1      16.251  35.057  17.795  1.00  0.00     0.097 N 
HETATM   19  C22 UNL     1      17.591  34.527  17.472  1.00  0.00     0.278 C 
BRANCH  18  20
HETATM   20  C20 UNL     1      16.287  36.008  18.849  1.00  0.00     0.371 C 
BRANCH  20  21
HETATM   21  C21 UNL     1      16.898  37.269  18.421  1.00  0.00     0.259 C 
HETATM   22  N3  UNL     1      18.190  37.692  18.871  1.00  0.00    -0.061 NA
HETATM   23  O3  UNL     1      16.299  38.042  17.628  1.00  0.00    -0.275 OA
ENDBRANCH  20  21
ENDBRANCH  18  20
ENDBRANCH  11  14
ENDBRANCH   8  11
ENDBRANCH   3   8
BRANCH   2  24
HETATM   24  C8  UNL     1      21.209  31.114  13.571  1.00  0.00    -0.014 C 
HETATM   25  C9  UNL     1      20.532  31.524  12.314  1.00  0.00     0.049 C 
BRANCH  24  26
HETATM   26  C10 UNL     1      22.251  32.041  14.050  1.00  0.00     0.149 C 
HETATM   27  C11 UNL     1      23.048  31.649  15.267  1.00  0.00     0.096 C 
HETATM   28  O1  UNL     1      22.480  33.077  13.510  1.00  0.00    -0.293 OA
ENDBRANCH  24  26
ENDBRANCH   2  24
BRANCH   1  29
HETATM   29  C5  UNL     1      21.705  28.238  14.240  1.00  0.00     0.038 C 
BRANCH  29  30
HETATM   30  C4  UNL     1      22.530  28.652  13.045  1.00  0.00     0.002 C 
BRANCH  30  31
HETATM   31  C3  UNL     1      23.541  27.580  12.702  1.00  0.00    -0.000 C 
BRANCH  31  32
HETATM   32  C2  UNL     1      23.695  27.342  11.231  1.00  0.00    -0.005 C 
HETATM   33  C1  UNL     1      24.850  26.429  10.919  1.00  0.00     0.005 C 
ENDBRANCH  31  32
ENDBRANCH  30  31
ENDBRANCH  29  30
ENDBRANCH   1  29
BRANCH   7  34
HETATM   34  C26 UNL     1      19.908  27.506  12.352  1.00  0.00     0.293 C 
BRANCH  34  35
HETATM   35  C27 UNL     1      19.530  27.653  10.920  1.00  0.00     0.152 C 
BRANCH  35  36
HETATM   36  N5  UNL     1      20.250  26.644  10.127  1.00  0.00    -0.367 N 
ATOM     37  H5  UNL     1      21.192  26.837   9.788  1.00  0.00     0.161 HD
BRANCH  36  38
HETATM   38  C28 UNL     1      19.627  25.394   9.835  1.00  0.00     0.348 C 
HETATM   39  O4  UNL     1      20.197  24.312  10.088  1.00  0.00    -0.284 OA
ENDBRANCH  36  38
ENDBRANCH  35  36
ENDBRANCH  34  35
ENDBRANCH   7  34
TORSDOF 16
ENDMDL
MODEL 4
REMARK VINA RESULT: -7.749037936      2.092      8.879
REMARK  16 active torsions:
REMARK  status: ('A' for Active; 'I' for Inactive)
REMARK    1  A    between atoms: C2_2  and  C3_3 
REMARK    2  A    between atoms: C3_3  and  C4_4 
REMARK    3  A    between atoms: C4_4  and  C5_5 
REMARK    4  A    between atoms: C5_5  and  C6_6 
REMARK    5  A    between atoms: C7_7  and  C8_8 
REMARK    6  A    between atoms: C8_8  and  C10_10 
REMARK    7  A    between atoms: N1_13  and  C12_14 
REMARK    8  A    between atoms: C12_14  and  O2_15 
REMARK    9  A    between atoms: C12_14  and  C13_17 
REMARK   10  A    between atoms: C13_17  and  C16_20 
REMARK   11  A    between atoms: N2_24  and  C20_25 
REMARK   12  A    between atoms: C20_25  and  C21_26 
REMARK   13  A    between atoms: N4_33  and  C26_34 
REMARK   14  A    between atoms: C26_34  and  C27_35 
REMARK   15  A    between atoms: C27_35  and  N5_36 
REMARK   16  A    between atoms: N5_36  and  C28_38 
ROOT
HETATM    1  C6  UNL     1      19.604  33.377  17.289  1.00  0.00     0.250 C 
HETATM    2  C7  UNL     1      18.662  32.643  16.311  1.00  0.00     0.147 C 
HETATM    3  N1  UNL     1      19.317  31.474  15.917  1.00  0.00    -0.375 N 
HETATM    4  C23 UNL     1      20.648  31.311  16.508  1.00  0.00     0.155 C 
HETATM    5  C24 UNL     1      21.558  32.475  16.505  1.00  0.00     0.237 C 
HETATM    6  C25 UNL     1      22.602  32.239  17.575  1.00  0.00     0.044 C 
HETATM    7  N4  UNL     1      20.826  33.704  16.648  1.00  0.00     0.102 N 
ENDROOT
BRANCH   3   8
HETATM    8  C12 UNL     1      18.758  30.282  15.536  1.00  0.00     0.224 C 
BRANCH   8   9
HETATM    9  O2  UNL     1      17.409  30.342  16.103  1.00  0.00    -0.376 OA
ATOM     10  H2  UNL     1      16.977  29.584  15.726  1.00  0.00     0.212 HD
ENDBRANCH   8   9
BRANCH   8  11
HETATM   11  C13 UNL     1      18.533  29.657  14.248  1.00  0.00     0.001 C 
HETATM   12  C14 UNL     1      17.419  30.469  13.472  1.00  0.00     0.020 C 
HETATM   13  C15 UNL     1      17.743  28.340  14.569  1.00  0.00     0.020 C 
BRANCH  11  14
HETATM   14  C16 UNL     1      19.527  29.224  13.276  1.00  0.00     0.026 C 
HETATM   15  C17 UNL     1      20.127  30.488  12.616  1.00  0.00     0.009 C 
HETATM   16  C18 UNL     1      21.475  30.858  13.103  1.00  0.00     0.031 C 
HETATM   17  C19 UNL     1      22.493  29.724  12.958  1.00  0.00     0.273 C 
HETATM   18  N2  UNL     1      21.726  28.594  12.565  1.00  0.00     0.097 N 
HETATM   19  C22 UNL     1      20.698  28.412  13.610  1.00  0.00     0.278 C 
BRANCH  18  20
HETATM   20  C20 UNL     1      22.523  27.433  12.386  1.00  0.00     0.371 C 
BRANCH  20  21
HETATM   21  C21 UNL     1      21.814  26.401  11.624  1.00  0.00     0.259 C 
HETATM   22  N3  UNL     1      22.200  25.022  11.648  1.00  0.00    -0.061 NA
HETATM   23  O3  UNL     1      20.821  26.693  10.908  1.00  0.00    -0.275 OA
ENDBRANCH  20  21
ENDBRANCH  18  20
ENDBRANCH  11  14
ENDBRANCH   8  11
ENDBRANCH   3   8
BRANCH   2  24
HETATM   24  C8  UNL     1      18.191  33.586  15.250  1.00  0.00    -0.014 C 
HETATM   25  C9  UNL     1      18.894  33.584  13.942  1.00  0.00     0.049 C 
BRANCH  24  26
HETATM   26  C10 UNL     1      16.742  33.850  15.180  1.00  0.00     0.149 C 
HETATM   27  C11 UNL     1      16.287  35.198  14.684  1.00  0.00     0.096 C 
HETATM   28  O1  UNL     1      15.929  33.041  15.500  1.00  0.00    -0.293 OA
ENDBRANCH  24  26
ENDBRANCH   2  24
BRANCH   1  29
HETATM   29  C5  UNL     1      18.984  34.540  17.976  1.00  0.00     0.038 C 
BRANCH  29  30
HETATM   30  C4  UNL     1      17.585  34.271  18.473  1.00  0.00     0.002 C 
BRANCH  30  31
HETATM   31  C3  UNL     1      16.774  35.548  18.489  1.00  0.00    -0.000 C 
BRANCH  31  32
HETATM   32  C2  UNL     1      17.553  36.764  18.089  1.00  0.00    -0.005 C 
HETATM   33  C1  UNL     1      16.702  37.775  17.370  1.00  0.00     0.005 C 
ENDBRANCH  31  32
ENDBRANCH  30  31
ENDBRANCH  29  30
ENDBRANCH   1  29
BRANCH   7  34
HETATM   34  C26 UNL     1      21.534  34.831  17.112  1.00  0.00     0.293 C 
BRANCH  34  35
HETATM   35  C27 UNL     1      21.554  35.953  16.135  1.00  0.00     0.152 C 
BRANCH  35  36
HETATM   36  N5  UNL     1      21.023  37.163  16.782  1.00  0.00    -0.367 N 
ATOM     37  H5  UNL     1      20.298  37.714  16.321  1.00  0.00     0.161 HD
BRANCH  36  38
HETATM   38  C28 UNL     1      21.523  37.565  18.056  1.00  0.00     0.348 C 
HETATM   39  O4  UNL     1      20.753  37.944  18.964  1.00  0.00    -0.284 OA
ENDBRANCH  36  38
ENDBRANCH  35  36
ENDBRANCH  34  35
ENDBRANCH   7  34
TORSDOF 16
ENDMDL
MODEL 5
REMARK VINA RESULT: -7.507190109      2.030      9.349
REMARK  16 active torsions:
REMARK  status: ('A' for Active; 'I' for Inactive)
REMARK    1  A    between atoms: C2_2  and  C3_3 
REMARK    2  A    between atoms: C3_3  and  C4_4 
REMARK    3  A    between atoms: C4_4  and  C5_5 
REMARK    4  A    between atoms: C5_5  and  C6_6 
REMARK    5  A    between atoms: C7_7  and  C8_8 
REMARK    6  A    between atoms: C8_8  and  C10_10 
REMARK    7  A    between atoms: N1_13  and  C12_14 
REMARK    8  A    between atoms: C12_14  and  O2_15 
REMARK    9  A    between atoms: C12_14  and  C13_17 
REMARK   10  A    between atoms: C13_17  and  C16_20 
REMARK   11  A    between atoms: N2_24  and  C20_25 
REMARK   12  A    between atoms: C20_25  and  C21_26 
REMARK   13  A    between atoms: N4_33  and  C26_34 
REMARK   14  A    between atoms: C26_34  and  C27_35 
REMARK   15  A    between atoms: C27_35  and  N5_36 
REMARK   16  A    between atoms: N5_36  and  C28_38 
ROOT
HETATM    1  C6  UNL     1      19.547  33.494  17.163  1.00  0.00     0.250 C 
HETATM    2  C7  UNL     1      18.769  32.741  16.062  1.00  0.00     0.147 C 
HETATM    3  N1  UNL     1      19.566  31.664  15.666  1.00  0.00    -0.375 N 
HETATM    4  C23 UNL     1      20.850  31.586  16.367  1.00  0.00     0.155 C 
HETATM    5  C24 UNL     1      21.640  32.827  16.514  1.00  0.00     0.237 C 
HETATM    6  C25 UNL     1      22.605  32.618  17.661  1.00  0.00     0.044 C 
HETATM    7  N4  UNL     1      20.782  33.972  16.657  1.00  0.00     0.102 N 
ENDROOT
BRANCH   3   8
HETATM    8  C12 UNL     1      19.160  30.454  15.168  1.00  0.00     0.224 C 
BRANCH   8   9
HETATM    9  O2  UNL     1      17.833  30.270  15.760  1.00  0.00    -0.376 OA
ATOM     10  H2  UNL     1      18.006  29.747  16.534  1.00  0.00     0.212 HD
ENDBRANCH   8   9
BRANCH   8  11
HETATM   11  C13 UNL     1      18.982  29.941  13.824  1.00  0.00     0.001 C 
HETATM   12  C14 UNL     1      19.711  30.908  12.806  1.00  0.00     0.020 C 
HETATM   13  C15 UNL     1      17.484  30.243  13.471  1.00  0.00     0.020 C 
BRANCH  11  14
HETATM   14  C16 UNL     1      19.169  28.576  13.355  1.00  0.00     0.026 C 
HETATM   15  C17 UNL     1      17.847  28.114  12.699  1.00  0.00     0.009 C 
HETATM   16  C18 UNL     1      17.861  28.107  11.218  1.00  0.00     0.031 C 
HETATM   17  C19 UNL     1      18.995  27.258  10.637  1.00  0.00     0.273 C 
HETATM   18  N2  UNL     1      19.796  26.904  11.757  1.00  0.00     0.097 N 
HETATM   19  C22 UNL     1      20.198  28.175  12.394  1.00  0.00     0.278 C 
BRANCH  18  20
HETATM   20  C20 UNL     1      20.913  26.105  11.395  1.00  0.00     0.371 C 
BRANCH  20  21
HETATM   21  C21 UNL     1      20.503  24.773  10.944  1.00  0.00     0.259 C 
HETATM   22  N3  UNL     1      20.718  24.312   9.605  1.00  0.00    -0.061 NA
HETATM   23  O3  UNL     1      19.935  23.970  11.729  1.00  0.00    -0.275 OA
ENDBRANCH  20  21
ENDBRANCH  18  20
ENDBRANCH  11  14
ENDBRANCH   8  11
ENDBRANCH   3   8
BRANCH   2  24
HETATM   24  C8  UNL     1      18.303  33.703  15.017  1.00  0.00    -0.014 C 
HETATM   25  C9  UNL     1      18.985  33.698  13.698  1.00  0.00     0.049 C 
BRANCH  24  26
HETATM   26  C10 UNL     1      16.859  34.000  14.972  1.00  0.00     0.149 C 
HETATM   27  C11 UNL     1      15.901  32.963  15.499  1.00  0.00     0.096 C 
HETATM   28  O1  UNL     1      16.431  35.022  14.536  1.00  0.00    -0.293 OA
ENDBRANCH  24  26
ENDBRANCH   2  24
BRANCH   1  29
HETATM   29  C5  UNL     1      18.761  34.549  17.853  1.00  0.00     0.038 C 
BRANCH  29  30
HETATM   30  C4  UNL     1      17.431  34.063  18.378  1.00  0.00     0.002 C 
BRANCH  30  31
HETATM   31  C3  UNL     1      16.437  35.201  18.437  1.00  0.00    -0.000 C 
BRANCH  31  32
HETATM   32  C2  UNL     1      16.912  36.454  17.766  1.00  0.00    -0.005 C 
HETATM   33  C1  UNL     1      16.784  37.661  18.655  1.00  0.00     0.005 C 
ENDBRANCH  31  32
ENDBRANCH  30  31
ENDBRANCH  29  30
ENDBRANCH   1  29
BRANCH   7  34
HETATM   34  C26 UNL     1      21.335  35.126  17.247  1.00  0.00     0.293 C 
BRANCH  34  35
HETATM   35  C27 UNL     1      21.404  36.285  16.314  1.00  0.00     0.152 C 
BRANCH  35  36
HETATM   36  N5  UNL     1      20.656  37.412  16.893  1.00  0.00    -0.367 N 
ATOM     37  H5  UNL     1      19.874  37.822  16.383  1.00  0.00     0.161 HD
BRANCH  36  38
HETATM   38  C28 UNL     1      21.027  37.931  18.169  1.00  0.00     0.348 C 
HETATM   39  O4  UNL     1      20.243  37.884  19.140  1.00  0.00    -0.284 OA
ENDBRANCH  36  38
ENDBRANCH  35  36
ENDBRANCH  34  35
ENDBRANCH   7  34
TORSDOF 16
ENDMDL
