MODEL 1
REMARK VINA RESULT: -7.698762399      0.000      0.000
REMARK  17 active torsions:
REMARK  status: ('A' for Active; 'I' for Inactive)
REMARK    1  A    between atoms: C2_2  and  O1_3 
REMARK    2  A    between atoms: O1_3  and  C3_4 
REMARK       I    between atoms: C3_4  and  N1_6 
REMARK    3  A    between atoms: N1_6  and  C4_8 
REMARK    4  A    between atoms: C4_8  and  C5_9 
REMARK    5  A    between atoms: C5_9  and  C6_10 
REMARK    6  A    between atoms: C6_10  and  C7_11 
REMARK    7  A    between atoms: C7_11  and  N2_12 
REMARK       I    between atoms: N2_12  and  C8_14 
REMARK    8  A    between atoms: C8_14  and  C9_16 
REMARK    9  A    between atoms: C9_16  and  C10_17 
REMARK   10  A    between atoms: C10_17  and  C11_18 
REMARK   11  A    between atoms: C11_18  and  C12_19 
REMARK   12  A    between atoms: C12_19  and  C13_20 
REMARK   13  A    between atoms: C13_20  and  N3_21 
REMARK   14  A    between atoms: N4_24  and  C15_25 
REMARK   15  A    between atoms: C15_25  and  C16_26 
REMARK   16  A    between atoms: C16_26  and  O4_27 
REMARK   17  A    between atoms: C16_26  and  N5_29 
ROOT
HETATM    1  N3  UNL     1      20.676  30.779  14.651  1.00  0.00    -0.348 N 
HETATM    2  C14 UNL     1      21.345  31.983  14.979  1.00  0.00     0.176 C 
HETATM    3  S1  UNL     1      22.948  32.245  15.140  1.00  0.00    -0.040 SA
HETATM    4  N4  UNL     1      20.338  33.047  15.171  1.00  0.00    -0.328 N 
HETATM    5  C22 UNL     1      19.301  32.621  14.268  1.00  0.00     0.161 C 
HETATM    6  C23 UNL     1      19.362  31.097  14.216  1.00  0.00     0.044 C 
HETATM    7  C24 UNL     1      19.040  30.696  12.799  1.00  0.00     0.040 C 
HETATM    8  C25 UNL     1      18.276  30.589  15.157  1.00  0.00     0.040 C 
ENDROOT
BRANCH   1   9
HETATM    9  C13 UNL     1      21.338  29.482  14.778  1.00  0.00     0.126 C 
BRANCH   9  10
HETATM   10  C12 UNL     1      22.329  29.230  13.705  1.00  0.00     0.020 C 
BRANCH  10  11
HETATM   11  C11 UNL     1      21.765  28.086  12.851  1.00  0.00     0.002 C 
BRANCH  11  12
HETATM   12  C10 UNL     1      22.596  27.912  11.596  1.00  0.00     0.009 C 
BRANCH  12  13
HETATM   13  C9  UNL     1      23.923  27.290  11.878  1.00  0.00     0.103 C 
BRANCH  13  14
HETATM   14  C8  UNL     1      24.089  26.086  10.998  1.00  0.00     0.217 C 
HETATM   15  N2  UNL     1      23.664  26.149   9.643  1.00  0.00    -0.361 N 
ATOM     16  H2  UNL     1      23.234  27.012   9.311  1.00  0.00     0.162 HD
HETATM   17  O3  UNL     1      24.595  25.035  11.430  1.00  0.00    -0.274 OA
BRANCH  15  18
HETATM   18  C7  UNL     1      23.808  25.060   8.717  1.00  0.00     0.122 C 
BRANCH  18  19
HETATM   19  C6  UNL     1      22.467  24.556   8.311  1.00  0.00     0.021 C 
BRANCH  19  20
HETATM   20  C5  UNL     1      21.477  24.463   9.463  1.00  0.00     0.021 C 
BRANCH  20  21
HETATM   21  C4  UNL     1      20.144  25.042   9.095  1.00  0.00     0.125 C 
BRANCH  21  22
HETATM   22  N1  UNL     1      19.824  26.170   9.906  1.00  0.00    -0.337 N 
HETATM   23  C3  UNL     1      18.987  26.055  11.042  1.00  0.00     0.360 C 
HETATM   24  O2  UNL     1      18.442  25.009  11.444  1.00  0.00    -0.239 OA
ATOM     25  H1  UNL     1      20.209  27.083   9.662  1.00  0.00     0.164 HD
BRANCH  23  26
HETATM   26  O1  UNL     1      18.728  27.214  11.804  1.00  0.00    -0.304 OA
BRANCH  26  27
HETATM   27  C2  UNL     1      17.447  27.478  12.364  1.00  0.00     0.176 C 
HETATM   28  C1  UNL     1      17.603  27.365  13.874  1.00  0.00     0.034 C 
ENDBRANCH  26  27
ENDBRANCH  23  26
ENDBRANCH  21  22
ENDBRANCH  20  21
ENDBRANCH  19  20
ENDBRANCH  18  19
ENDBRANCH  15  18
ENDBRANCH  13  14
ENDBRANCH  12  13
ENDBRANCH  11  12
ENDBRANCH  10  11
ENDBRANCH   9  10
ENDBRANCH   1   9
BRANCH   4  29
HETATM   29  C15 UNL     1      20.478  34.090  16.116  1.00  0.00     0.149 C 
BRANCH  29  30
HETATM   30  C16 UNL     1      19.604  34.463  17.139  1.00  0.00     0.154 C 
BRANCH  30  31
HETATM   31  O4  UNL     1      20.294  34.472  18.333  1.00  0.00    -0.345 OA
ATOM     32  H4  UNL     1      19.703  34.214  19.031  1.00  0.00     0.219 HD
ENDBRANCH  30  31
BRANCH  30  33
HETATM   33  N5  UNL     1      18.312  34.819  17.356  1.00  0.00    -0.359 N 
HETATM   34  C17 UNL     1      17.316  33.700  17.257  1.00  0.00     0.126 C 
HETATM   35  C18 UNL     1      16.120  34.217  16.491  1.00  0.00     0.047 C 
HETATM   36  C19 UNL     1      15.067  34.783  17.404  1.00  0.00     0.234 C 
HETATM   37  N6  UNL     1      15.482  36.110  17.843  1.00  0.00    -0.074 N 
HETATM   38  C20 UNL     1      16.680  36.014  18.641  1.00  0.00     0.252 C 
ATOM     39  H62 UNL     1      15.595  36.754  17.059  1.00  0.00     0.277 HD
ATOM     40  H61 UNL     1      14.735  36.602  18.334  1.00  0.00     0.277 HD
HETATM   41  C21 UNL     1      17.927  36.138  17.756  1.00  0.00     0.152 C 
ENDBRANCH  30  33
ENDBRANCH  29  30
ENDBRANCH   4  29
TORSDOF 17
ENDMDL
MODEL 2
REMARK VINA RESULT: -7.643806974      1.348      1.793
REMARK  17 active torsions:
REMARK  status: ('A' for Active; 'I' for Inactive)
REMARK    1  A    between atoms: C2_2  and  O1_3 
REMARK    2  A    between atoms: O1_3  and  C3_4 
REMARK       I    between atoms: C3_4  and  N1_6 
REMARK    3  A    between atoms: N1_6  and  C4_8 
REMARK    4  A    between atoms: C4_8  and  C5_9 
REMARK    5  A    between atoms: C5_9  and  C6_10 
REMARK    6  A    between atoms: C6_10  and  C7_11 
REMARK    7  A    between atoms: C7_11  and  N2_12 
REMARK       I    between atoms: N2_12  and  C8_14 
REMARK    8  A    between atoms: C8_14  and  C9_16 
REMARK    9  A    between atoms: C9_16  and  C10_17 
REMARK   10  A    between atoms: C10_17  and  C11_18 
REMARK   11  A    between atoms: C11_18  and  C12_19 
REMARK   12  A    between atoms: C12_19  and  C13_20 
REMARK   13  A    between atoms: C13_20  and  N3_21 
REMARK   14  A    between atoms: N4_24  and  C15_25 
REMARK   15  A    between atoms: C15_25  and  C16_26 
REMARK   16  A    between atoms: C16_26  and  O4_27 
REMARK   17  A    between atoms: C16_26  and  N5_29 
ROOT
HETATM    1  N3  UNL     1      20.562  30.353  14.445  1.00  0.00    -0.348 N 
HETATM    2  C14 UNL     1      21.194  31.580  14.764  1.00  0.00     0.176 C 
HETATM    3  S1  UNL     1      22.775  31.865  15.048  1.00  0.00    -0.040 SA
HETATM    4  N4  UNL     1      20.169  32.643  14.811  1.00  0.00    -0.328 N 
HETATM    5  C22 UNL     1      19.216  32.160  13.847  1.00  0.00     0.161 C 
HETATM    6  C23 UNL     1      19.288  30.636  13.881  1.00  0.00     0.044 C 
HETATM    7  C24 UNL     1      19.092  30.157  12.465  1.00  0.00     0.040 C 
HETATM    8  C25 UNL     1      18.128  30.168  14.751  1.00  0.00     0.040 C 
ENDROOT
BRANCH   1   9
HETATM    9  C13 UNL     1      21.216  29.071  14.698  1.00  0.00     0.126 C 
BRANCH   9  10
HETATM   10  C12 UNL     1      22.336  28.800  13.764  1.00  0.00     0.020 C 
BRANCH  10  11
HETATM   11  C11 UNL     1      21.812  27.779  12.743  1.00  0.00     0.002 C 
BRANCH  11  12
HETATM   12  C10 UNL     1      22.581  27.899  11.443  1.00  0.00     0.009 C 
BRANCH  12  13
HETATM   13  C9  UNL     1      23.985  27.410  11.568  1.00  0.00     0.103 C 
BRANCH  13  14
HETATM   14  C8  UNL     1      24.068  26.026  10.994  1.00  0.00     0.217 C 
HETATM   15  N2  UNL     1      23.508  25.768   9.713  1.00  0.00    -0.361 N 
ATOM     16  H2  UNL     1      23.043  26.534   9.226  1.00  0.00     0.162 HD
HETATM   17  O3  UNL     1      24.620  25.101  11.616  1.00  0.00    -0.274 OA
BRANCH  15  18
HETATM   18  C7  UNL     1      23.563  24.486   9.068  1.00  0.00     0.122 C 
BRANCH  18  19
HETATM   19  C6  UNL     1      23.875  24.656   7.622  1.00  0.00     0.021 C 
BRANCH  19  20
HETATM   20  C5  UNL     1      22.645  24.632   6.727  1.00  0.00     0.021 C 
BRANCH  20  21
HETATM   21  C4  UNL     1      21.470  24.008   7.416  1.00  0.00     0.125 C 
BRANCH  21  22
HETATM   22  N1  UNL     1      20.446  24.968   7.670  1.00  0.00    -0.337 N 
HETATM   23  C3  UNL     1      19.829  25.078   8.939  1.00  0.00     0.360 C 
HETATM   24  O2  UNL     1      20.083  24.376   9.937  1.00  0.00    -0.239 OA
ATOM     25  H1  UNL     1      20.150  25.590   6.918  1.00  0.00     0.164 HD
BRANCH  23  26
HETATM   26  O1  UNL     1      18.833  26.061   9.118  1.00  0.00    -0.304 OA
BRANCH  26  27
HETATM   27  C2  UNL     1      18.913  27.038  10.148  1.00  0.00     0.176 C 
HETATM   28  C1  UNL     1      17.559  27.735  10.192  1.00  0.00     0.034 C 
ENDBRANCH  26  27
ENDBRANCH  23  26
ENDBRANCH  21  22
ENDBRANCH  20  21
ENDBRANCH  19  20
ENDBRANCH  18  19
ENDBRANCH  15  18
ENDBRANCH  13  14
ENDBRANCH  12  13
ENDBRANCH  11  12
ENDBRANCH  10  11
ENDBRANCH   9  10
ENDBRANCH   1   9
BRANCH   4  29
HETATM   29  C15 UNL     1      20.221  33.736  15.708  1.00  0.00     0.149 C 
BRANCH  29  30
HETATM   30  C16 UNL     1      19.166  34.402  16.335  1.00  0.00     0.154 C 
BRANCH  30  31
HETATM   31  O4  UNL     1      19.600  35.648  16.733  1.00  0.00    -0.345 OA
ATOM     32  H4  UNL     1      18.942  36.035  17.299  1.00  0.00     0.219 HD
ENDBRANCH  30  31
BRANCH  30  33
HETATM   33  N5  UNL     1      17.864  34.238  16.682  1.00  0.00    -0.359 N 
HETATM   34  C17 UNL     1      17.036  35.489  16.666  1.00  0.00     0.126 C 
HETATM   35  C18 UNL     1      16.166  35.480  17.901  1.00  0.00     0.047 C 
HETATM   36  C19 UNL     1      14.825  34.849  17.643  1.00  0.00     0.234 C 
HETATM   37  N6  UNL     1      14.978  33.399  17.620  1.00  0.00    -0.074 N 
HETATM   38  C20 UNL     1      15.814  33.008  16.512  1.00  0.00     0.252 C 
ATOM     39  H62 UNL     1      15.327  33.038  18.509  1.00  0.00     0.277 HD
ATOM     40  H61 UNL     1      14.078  32.919  17.607  1.00  0.00     0.277 HD
HETATM   41  C21 UNL     1      17.286  32.954  16.941  1.00  0.00     0.152 C 
ENDBRANCH  30  33
ENDBRANCH  29  30
ENDBRANCH   4  29
TORSDOF 17
ENDMDL
MODEL 3
REMARK VINA RESULT: -7.626426899      2.195     11.022
REMARK  17 active torsions:
REMARK  status: ('A' for Active; 'I' for Inactive)
REMARK    1  A    between atoms: C2_2  and  O1_3 
REMARK    2  A    between atoms: O1_3  and  C3_4 
REMARK       I    between atoms: C3_4  and  N1_6 
REMARK    3  A    between atoms: N1_6  and  C4_8 
REMARK    4  A    between atoms: C4_8  and  C5_9 
REMARK    5  A    between atoms: C5_9  and  C6_10 
REMARK    6  A    between atoms: C6_10  and  C7_11 
REMARK    7  A    between atoms: C7_11  and  N2_12 
REMARK       I    between atoms: N2_12  and  C8_14 
REMARK    8  A    between atoms: C8_14  and  C9_16 
REMARK    9  A    between atoms: C9_16  and  C10_17 
REMARK   10  A    between atoms: C10_17  and  C11_18 
REMARK   11  A    between atoms: C11_18  and  C12_19 
REMARK   12  A    between atoms: C12_19  and  C13_20 
REMARK   13  A    between atoms: C13_20  and  N3_21 
REMARK   14  A    between atoms: N4_24  and  C15_25 
REMARK   15  A    between atoms: C15_25  and  C16_26 
REMARK   16  A    between atoms: C16_26  and  O4_27 
REMARK   17  A    between atoms: C16_26  and  N5_29 
ROOT
HETATM    1  N3  UNL     1      19.106  29.904  13.579  1.00  0.00    -0.348 N 
HETATM    2  C14 UNL     1      18.634  29.083  12.526  1.00  0.00     0.176 C 
HETATM    3  S1  UNL     1      17.098  28.858  12.023  1.00  0.00    -0.040 SA
HETATM    4  N4  UNL     1      19.787  28.408  11.897  1.00  0.00    -0.328 N 
HETATM    5  C22 UNL     1      20.829  29.381  12.098  1.00  0.00     0.161 C 
HETATM    6  C23 UNL     1      20.499  30.118  13.394  1.00  0.00     0.044 C 
HETATM    7  C24 UNL     1      20.906  31.556  13.194  1.00  0.00     0.040 C 
HETATM    8  C25 UNL     1      21.356  29.483  14.482  1.00  0.00     0.040 C 
ENDROOT
BRANCH   1   9
HETATM    9  C13 UNL     1      18.209  30.392  14.625  1.00  0.00     0.126 C 
BRANCH   9  10
HETATM   10  C12 UNL     1      17.742  31.778  14.385  1.00  0.00     0.020 C 
BRANCH  10  11
HETATM   11  C11 UNL     1      17.070  32.241  15.686  1.00  0.00     0.002 C 
BRANCH  11  12
HETATM   12  C10 UNL     1      16.681  33.702  15.582  1.00  0.00     0.009 C 
BRANCH  12  13
HETATM   13  C9  UNL     1      15.409  34.002  16.301  1.00  0.00     0.103 C 
BRANCH  13  14
HETATM   14  C8  UNL     1      15.737  34.640  17.619  1.00  0.00     0.217 C 
HETATM   15  N2  UNL     1      16.367  35.915  17.638  1.00  0.00    -0.361 N 
ATOM     16  H2  UNL     1      16.599  36.353  16.746  1.00  0.00     0.162 HD
HETATM   17  O3  UNL     1      15.466  34.078  18.695  1.00  0.00    -0.274 OA
BRANCH  15  18
HETATM   18  C7  UNL     1      16.694  36.619  18.847  1.00  0.00     0.122 C 
BRANCH  18  19
HETATM   19  C6  UNL     1      17.306  37.936  18.520  1.00  0.00     0.021 C 
BRANCH  19  20
HETATM   20  C5  UNL     1      18.401  37.855  17.467  1.00  0.00     0.021 C 
BRANCH  20  21
HETATM   21  C4  UNL     1      19.640  37.206  18.006  1.00  0.00     0.125 C 
BRANCH  21  22
HETATM   22  N1  UNL     1      20.175  36.259  17.083  1.00  0.00    -0.337 N 
HETATM   23  C3  UNL     1      19.853  34.883  17.161  1.00  0.00     0.360 C 
HETATM   24  O2  UNL     1      19.109  34.355  18.011  1.00  0.00    -0.239 OA
ATOM     25  H1  UNL     1      20.806  36.581  16.349  1.00  0.00     0.164 HD
BRANCH  23  26
HETATM   26  O1  UNL     1      20.410  34.009  16.204  1.00  0.00    -0.304 OA
BRANCH  26  27
HETATM   27  C2  UNL     1      20.736  32.659  16.514  1.00  0.00     0.176 C 
HETATM   28  C1  UNL     1      22.200  32.652  16.933  1.00  0.00     0.034 C 
ENDBRANCH  26  27
ENDBRANCH  23  26
ENDBRANCH  21  22
ENDBRANCH  20  21
ENDBRANCH  19  20
ENDBRANCH  18  19
ENDBRANCH  15  18
ENDBRANCH  13  14
ENDBRANCH  12  13
ENDBRANCH  11  12
ENDBRANCH  10  11
ENDBRANCH   9  10
ENDBRANCH   1   9
BRANCH   4  29
HETATM   29  C15 UNL     1      19.730  27.097  11.368  1.00  0.00     0.149 C 
BRANCH  29  30
HETATM   30  C16 UNL     1      20.745  26.141  11.295  1.00  0.00     0.154 C 
BRANCH  30  31
HETATM   31  O4  UNL     1      20.250  24.933  11.739  1.00  0.00    -0.345 OA
ATOM     32  H4  UNL     1      20.752  24.655  12.496  1.00  0.00     0.219 HD
ENDBRANCH  30  31
BRANCH  30  33
HETATM   33  N5  UNL     1      22.046  25.998  10.937  1.00  0.00    -0.359 N 
HETATM   34  C17 UNL     1      23.040  26.611  11.881  1.00  0.00     0.126 C 
HETATM   35  C18 UNL     1      24.089  27.313  11.052  1.00  0.00     0.047 C 
HETATM   36  C19 UNL     1      25.259  26.418  10.746  1.00  0.00     0.234 C 
HETATM   37  N6  UNL     1      24.888  25.499   9.676  1.00  0.00    -0.074 N 
HETATM   38  C20 UNL     1      23.832  24.623  10.122  1.00  0.00     0.252 C 
ATOM     39  H62 UNL     1      24.639  25.992   8.818  1.00  0.00     0.277 HD
ATOM     40  H61 UNL     1      25.691  24.979   9.322  1.00  0.00     0.277 HD
HETATM   41  C21 UNL     1      22.459  25.230   9.803  1.00  0.00     0.152 C 
ENDBRANCH  30  33
ENDBRANCH  29  30
ENDBRANCH   4  29
TORSDOF 17
ENDMDL
MODEL 4
REMARK VINA RESULT: -7.579470837      1.277      1.776
REMARK  17 active torsions:
REMARK  status: ('A' for Active; 'I' for Inactive)
REMARK    1  A    between atoms: C2_2  and  O1_3 
REMARK    2  A    between atoms: O1_3  and  C3_4 
REMARK       I    between atoms: C3_4  and  N1_6 
REMARK    3  A    between atoms: N1_6  and  C4_8 
REMARK    4  A    between atoms: C4_8  and  C5_9 
REMARK    5  A    between atoms: C5_9  and  C6_10 
REMARK    6  A    between atoms: C6_10  and  C7_11 
REMARK    7  A    between atoms: C7_11  and  N2_12 
REMARK       I    between atoms: N2_12  and  C8_14 
REMARK    8  A    between atoms: C8_14  and  C9_16 
REMARK    9  A    between atoms: C9_16  and  C10_17 
REMARK   10  A    between atoms: C10_17  and  C11_18 
REMARK   11  A    between atoms: C11_18  and  C12_19 
REMARK   12  A    between atoms: C12_19  and  C13_20 
REMARK   13  A    between atoms: C13_20  and  N3_21 
REMARK   14  A    between atoms: N4_24  and  C15_25 
REMARK   15  A    between atoms: C15_25  and  C16_26 
REMARK   16  A    between atoms: C16_26  and  O4_27 
REMARK   17  A    between atoms: C16_26  and  N5_29 
ROOT
HETATM    1  N3  UNL     1      20.774  31.300  15.143  1.00  0.00    -0.348 N 
HETATM    2  C14 UNL     1      21.648  32.374  15.441  1.00  0.00     0.176 C 
HETATM    3  S1  UNL     1      23.234  32.522  15.087  1.00  0.00    -0.040 SA
HETATM    4  N4  UNL     1      20.891  33.415  16.165  1.00  0.00    -0.328 N 
HETATM    5  C22 UNL     1      19.573  33.242  15.612  1.00  0.00     0.161 C 
HETATM    6  C23 UNL     1      19.436  31.764  15.255  1.00  0.00     0.044 C 
HETATM    7  C24 UNL     1      18.624  31.694  13.987  1.00  0.00     0.040 C 
HETATM    8  C25 UNL     1      18.667  31.114  16.399  1.00  0.00     0.040 C 
ENDROOT
BRANCH   1   9
HETATM    9  C13 UNL     1      21.286  29.978  14.788  1.00  0.00     0.126 C 
BRANCH   9  10
HETATM   10  C12 UNL     1      21.543  29.828  13.336  1.00  0.00     0.020 C 
BRANCH  10  11
HETATM   11  C11 UNL     1      21.747  28.327  13.083  1.00  0.00     0.002 C 
BRANCH  11  12
HETATM   12  C10 UNL     1      22.537  28.116  11.807  1.00  0.00     0.009 C 
BRANCH  12  13
HETATM   13  C9  UNL     1      23.866  27.488  12.062  1.00  0.00     0.103 C 
BRANCH  13  14
HETATM   14  C8  UNL     1      23.962  26.219  11.267  1.00  0.00     0.217 C 
HETATM   15  N2  UNL     1      23.398  26.169   9.963  1.00  0.00    -0.361 N 
ATOM     16  H2  UNL     1      22.921  26.999   9.610  1.00  0.00     0.162 HD
HETATM   17  O3  UNL     1      24.528  25.210  11.726  1.00  0.00    -0.274 OA
BRANCH  15  18
HETATM   18  C7  UNL     1      23.464  25.011   9.115  1.00  0.00     0.122 C 
BRANCH  18  19
HETATM   19  C6  UNL     1      22.095  24.476   8.877  1.00  0.00     0.021 C 
BRANCH  19  20
HETATM   20  C5  UNL     1      21.145  24.689  10.045  1.00  0.00     0.021 C 
BRANCH  20  21
HETATM   21  C4  UNL     1      19.813  25.204   9.590  1.00  0.00     0.125 C 
BRANCH  21  22
HETATM   22  N1  UNL     1      19.618  26.561   9.983  1.00  0.00    -0.337 N 
HETATM   23  C3  UNL     1      18.787  26.905  11.076  1.00  0.00     0.360 C 
HETATM   24  O2  UNL     1      18.145  26.105  11.785  1.00  0.00    -0.239 OA
ATOM     25  H1  UNL     1      20.088  27.302   9.463  1.00  0.00     0.164 HD
BRANCH  23  26
HETATM   26  O1  UNL     1      18.654  28.268  11.413  1.00  0.00    -0.304 OA
BRANCH  26  27
HETATM   27  C2  UNL     1      17.497  28.774  12.068  1.00  0.00     0.176 C 
HETATM   28  C1  UNL     1      16.429  28.940  10.995  1.00  0.00     0.034 C 
ENDBRANCH  26  27
ENDBRANCH  23  26
ENDBRANCH  21  22
ENDBRANCH  20  21
ENDBRANCH  19  20
ENDBRANCH  18  19
ENDBRANCH  15  18
ENDBRANCH  13  14
ENDBRANCH  12  13
ENDBRANCH  11  12
ENDBRANCH  10  11
ENDBRANCH   9  10
ENDBRANCH   1   9
BRANCH   4  29
HETATM   29  C15 UNL     1      21.452  34.222  17.182  1.00  0.00     0.149 C 
BRANCH  29  30
HETATM   30  C16 UNL     1      20.797  35.013  18.129  1.00  0.00     0.154 C 
BRANCH  30  31
HETATM   31  O4  UNL     1      21.610  35.147  19.235  1.00  0.00    -0.345 OA
ATOM     32  H4  UNL     1      21.188  35.728  19.857  1.00  0.00     0.219 HD
ENDBRANCH  30  31
BRANCH  30  33
HETATM   33  N5  UNL     1      19.638  35.690  18.329  1.00  0.00    -0.359 N 
HETATM   34  C17 UNL     1      19.615  37.090  17.788  1.00  0.00     0.126 C 
HETATM   35  C18 UNL     1      18.960  37.972  18.825  1.00  0.00     0.047 C 
HETATM   36  C19 UNL     1      17.477  38.095  18.607  1.00  0.00     0.234 C 
HETATM   37  N6  UNL     1      16.824  36.882  19.084  1.00  0.00    -0.074 N 
HETATM   38  C20 UNL     1      17.243  35.752  18.293  1.00  0.00     0.252 C 
ATOM     39  H62 UNL     1      16.982  36.730  20.081  1.00  0.00     0.277 HD
ATOM     40  H61 UNL     1      15.808  36.977  19.107  1.00  0.00     0.277 HD
HETATM   41  C21 UNL     1      18.479  35.088  18.914  1.00  0.00     0.152 C 
ENDBRANCH  30  33
ENDBRANCH  29  30
ENDBRANCH   4  29
TORSDOF 17
ENDMDL
MODEL 5
REMARK VINA RESULT: -7.496939284      2.484     11.039
REMARK  17 active torsions:
REMARK  status: ('A' for Active; 'I' for Inactive)
REMARK    1  A    between atoms: C2_2  and  O1_3 
REMARK    2  A    between atoms: O1_3  and  C3_4 
REMARK       I    between atoms: C3_4  and  N1_6 
REMARK    3  A    between atoms: N1_6  and  C4_8 
REMARK    4  A    between atoms: C4_8  and  C5_9 
REMARK    5  A    between atoms: C5_9  and  C6_10 
REMARK    6  A    between atoms: C6_10  and  C7_11 
REMARK    7  A    between atoms: C7_11  and  N2_12 
REMARK       I    between atoms: N2_12  and  C8_14 
REMARK    8  A    between atoms: C8_14  and  C9_16 
REMARK    9  A    between atoms: C9_16  and  C10_17 
REMARK   10  A    between atoms: C10_17  and  C11_18 
REMARK   11  A    between atoms: C11_18  and  C12_19 
REMARK   12  A    between atoms: C12_19  and  C13_20 
REMARK   13  A    between atoms: C13_20  and  N3_21 
REMARK   14  A    between atoms: N4_24  and  C15_25 
REMARK   15  A    between atoms: C15_25  and  C16_26 
REMARK   16  A    between atoms: C16_26  and  O4_27 
REMARK   17  A    between atoms: C16_26  and  N5_29 
ROOT
HETATM    1  N3  UNL     1      19.508  28.405  12.861  1.00  0.00    -0.348 N 
HETATM    2  C14 UNL     1      19.321  27.379  11.903  1.00  0.00     0.176 C 
HETATM    3  S1  UNL     1      17.930  26.873  11.214  1.00  0.00    -0.040 SA
HETATM    4  N4  UNL     1      20.634  26.783  11.583  1.00  0.00    -0.328 N 
HETATM    5  C22 UNL     1      21.510  27.910  11.775  1.00  0.00     0.161 C 
HETATM    6  C23 UNL     1      20.879  28.778  12.859  1.00  0.00     0.044 C 
HETATM    7  C24 UNL     1      21.153  30.213  12.485  1.00  0.00     0.040 C 
HETATM    8  C25 UNL     1      21.598  28.436  14.158  1.00  0.00     0.040 C 
ENDROOT
BRANCH   1   9
HETATM    9  C13 UNL     1      18.394  28.914  13.658  1.00  0.00     0.126 C 
BRANCH   9  10
HETATM   10  C12 UNL     1      17.875  30.211  13.163  1.00  0.00     0.020 C 
BRANCH  10  11
HETATM   11  C11 UNL     1      17.619  31.080  14.403  1.00  0.00     0.002 C 
BRANCH  11  12
HETATM   12  C10 UNL     1      18.867  31.862  14.759  1.00  0.00     0.009 C 
BRANCH  12  13
HETATM   13  C9  UNL     1      19.553  31.315  15.966  1.00  0.00     0.103 C 
BRANCH  13  14
HETATM   14  C8  UNL     1      20.814  32.092  16.200  1.00  0.00     0.217 C 
HETATM   15  N2  UNL     1      20.858  33.049  17.251  1.00  0.00    -0.361 N 
ATOM     16  H2  UNL     1      20.015  33.195  17.807  1.00  0.00     0.162 HD
HETATM   17  O3  UNL     1      21.824  31.914  15.495  1.00  0.00    -0.274 OA
BRANCH  15  18
HETATM   18  C7  UNL     1      22.026  33.820  17.571  1.00  0.00     0.122 C 
BRANCH  18  19
HETATM   19  C6  UNL     1      21.628  35.173  18.050  1.00  0.00     0.021 C 
BRANCH  19  20
HETATM   20  C5  UNL     1      20.253  35.610  17.568  1.00  0.00     0.021 C 
BRANCH  20  21
HETATM   21  C4  UNL     1      19.378  36.041  18.706  1.00  0.00     0.125 C 
BRANCH  21  22
HETATM   22  N1  UNL     1      18.293  35.136  18.900  1.00  0.00    -0.337 N 
HETATM   23  C3  UNL     1      16.950  35.533  18.696  1.00  0.00     0.360 C 
HETATM   24  O2  UNL     1      16.569  36.670  18.352  1.00  0.00    -0.239 OA
ATOM     25  H1  UNL     1      18.490  34.179  19.193  1.00  0.00     0.164 HD
BRANCH  23  26
HETATM   26  O1  UNL     1      15.931  34.578  18.894  1.00  0.00    -0.304 OA
BRANCH  26  27
HETATM   27  C2  UNL     1      15.028  34.212  17.857  1.00  0.00     0.176 C 
HETATM   28  C1  UNL     1      15.824  33.374  16.865  1.00  0.00     0.034 C 
ENDBRANCH  26  27
ENDBRANCH  23  26
ENDBRANCH  21  22
ENDBRANCH  20  21
ENDBRANCH  19  20
ENDBRANCH  18  19
ENDBRANCH  15  18
ENDBRANCH  13  14
ENDBRANCH  12  13
ENDBRANCH  11  12
ENDBRANCH  10  11
ENDBRANCH   9  10
ENDBRANCH   1   9
BRANCH   4  29
HETATM   29  C15 UNL     1      20.815  25.413  11.282  1.00  0.00     0.149 C 
BRANCH  29  30
HETATM   30  C16 UNL     1      21.032  24.814  10.039  1.00  0.00     0.154 C 
BRANCH  30  31
HETATM   31  O4  UNL     1      19.835  24.320   9.568  1.00  0.00    -0.345 OA
ATOM     32  H4  UNL     1      19.128  24.868   9.889  1.00  0.00     0.219 HD
ENDBRANCH  30  31
BRANCH  30  33
HETATM   33  N5  UNL     1      22.018  24.556   9.142  1.00  0.00    -0.359 N 
HETATM   34  C17 UNL     1      21.552  24.284   7.741  1.00  0.00     0.126 C 
HETATM   35  C18 UNL     1      22.350  23.116   7.211  1.00  0.00     0.047 C 
HETATM   36  C19 UNL     1      23.587  23.562   6.481  1.00  0.00     0.234 C 
HETATM   37  N6  UNL     1      24.604  23.940   7.455  1.00  0.00    -0.074 N 
HETATM   38  C20 UNL     1      24.162  25.086   8.211  1.00  0.00     0.252 C 
ATOM     39  H62 UNL     1      24.862  23.159   8.060  1.00  0.00     0.277 HD
ATOM     40  H61 UNL     1      25.513  24.097   7.019  1.00  0.00     0.277 HD
HETATM   41  C21 UNL     1      23.408  24.641   9.471  1.00  0.00     0.152 C 
ENDBRANCH  30  33
ENDBRANCH  29  30
ENDBRANCH   4  29
TORSDOF 17
ENDMDL
