MODEL 1
REMARK VINA RESULT: -7.965403725      0.000      0.000
REMARK  17 active torsions:
REMARK  status: ('A' for Active; 'I' for Inactive)
REMARK    1  A    between atoms: C3_3  and  C4_4 
REMARK    2  A    between atoms: C4_4  and  C5_5 
REMARK    3  A    between atoms: C5_5  and  C6_6 
REMARK    4  A    between atoms: C6_6  and  C7_7 
REMARK    5  A    between atoms: C7_7  and  N1_8 
REMARK    6  A    between atoms: N1_8  and  C8_10 
REMARK    7  A    between atoms: C9_13  and  N3_14 
REMARK    8  A    between atoms: N3_14  and  C10_16 
REMARK    9  A    between atoms: C12_20  and  N5_21 
REMARK   10  A    between atoms: N5_21  and  C13_23 
REMARK   11  A    between atoms: C13_23  and  C14_24 
REMARK   12  A    between atoms: C17_27  and  C18_28 
REMARK       I    between atoms: C18_28  and  N6_30 
REMARK   13  A    between atoms: N6_30  and  C19_32 
REMARK   14  A    between atoms: C19_32  and  C20_33 
REMARK   15  A    between atoms: C20_33  and  C21_34 
REMARK   16  A    between atoms: C21_34  and  C22_35 
REMARK   17  A    between atoms: C22_35  and  N7_36 
ROOT
HETATM    1  C1  UNL     1      19.759  31.789  12.697  1.00  0.00     0.012 C 
HETATM    2  C2  UNL     1      18.955  31.453  13.550  1.00  0.00    -0.117 C 
HETATM    3  C3  UNL     1      17.967  31.051  14.563  1.00  0.00     0.093 C 
ENDROOT
BRANCH   3   4
HETATM    4  C4  UNL     1      17.989  32.098  15.696  1.00  0.00     0.012 C 
BRANCH   4   5
HETATM    5  C5  UNL     1      17.377  33.336  15.131  1.00  0.00     0.002 C 
BRANCH   5   6
HETATM    6  C6  UNL     1      15.997  33.648  15.585  1.00  0.00     0.020 C 
BRANCH   6   7
HETATM    7  C7  UNL     1      15.599  33.059  16.880  1.00  0.00     0.138 C 
BRANCH   7   8
HETATM    8  N1  UNL     1      15.363  33.947  17.960  1.00  0.00    -0.225 N 
ATOM      9  H1  UNL     1      14.555  33.788  18.562  1.00  0.00     0.177 HD
BRANCH   8  10
HETATM   10  C8  UNL     1      16.129  34.940  18.203  1.00  0.00     0.707 A 
HETATM   11  N2  UNL     1      15.671  36.208  18.053  1.00  0.00    -0.022 N 
HETATM   12  C9  UNL     1      16.477  37.239  18.311  1.00  0.00     0.707 A 
ATOM     13  H2  UNL     1      14.713  36.373  17.744  1.00  0.00     0.203 HD
HETATM   14  N4  UNL     1      17.738  36.975  18.719  1.00  0.00    -0.022 N 
HETATM   15  C12 UNL     1      18.228  35.735  18.879  1.00  0.00     0.707 A 
ATOM     16  H4  UNL     1      18.353  37.763  18.917  1.00  0.00     0.203 HD
HETATM   17  N8  UNL     1      17.404  34.697  18.616  1.00  0.00    -0.022 N 
ATOM     18  H8  UNL     1      17.734  33.738  18.725  1.00  0.00     0.203 HD
BRANCH  12  19
HETATM   19  N3  UNL     1      16.038  38.437  18.165  1.00  0.00    -0.225 N 
ATOM     20  H3  UNL     1      15.183  38.725  18.640  1.00  0.00     0.177 HD
BRANCH  19  21
HETATM   21  C10 UNL     1      16.741  39.369  17.342  1.00  0.00     0.133 C 
HETATM   22  C11 UNL     1      16.192  40.774  17.441  1.00  0.00     0.027 C 
ENDBRANCH  19  21
ENDBRANCH  12  19
BRANCH  15  23
HETATM   23  N5  UNL     1      19.436  35.542  19.273  1.00  0.00    -0.221 N 
ATOM     24  H5  UNL     1      19.610  35.051  20.149  1.00  0.00     0.178 HD
BRANCH  23  25
HETATM   25  C13 UNL     1      20.549  36.016  18.483  1.00  0.00     0.176 C 
BRANCH  25  26
HETATM   26  C14 UNL     1      21.091  34.928  17.591  1.00  0.00    -0.040 A 
HETATM   27  C15 UNL     1      21.972  33.995  18.085  1.00  0.00     0.010 A 
HETATM   28  C16 UNL     1      22.468  33.003  17.281  1.00  0.00     0.017 A 
HETATM   29  C17 UNL     1      22.096  32.904  15.940  1.00  0.00     0.032 A 
HETATM   30  C27 UNL     1      21.221  33.836  15.465  1.00  0.00     0.017 A 
HETATM   31  C28 UNL     1      20.712  34.847  16.272  1.00  0.00     0.010 A 
BRANCH  29  32
HETATM   32  C18 UNL     1      22.645  31.827  15.084  1.00  0.00     0.255 C 
HETATM   33  O1  UNL     1      23.708  32.130  14.499  1.00  0.00    -0.267 OA
HETATM   34  N6  UNL     1      22.013  30.584  14.956  1.00  0.00    -0.337 N 
ATOM     35  H6  UNL     1      21.140  30.488  15.475  1.00  0.00     0.168 HD
BRANCH  34  36
HETATM   36  C19 UNL     1      22.396  29.447  14.218  1.00  0.00     0.064 C 
BRANCH  36  37
HETATM   37  C20 UNL     1      21.436  28.383  13.899  1.00  0.00     0.046 C 
BRANCH  37  38
HETATM   38  C21 UNL     1      21.520  27.732  12.569  1.00  0.00     0.035 C 
BRANCH  38  39
HETATM   39  C22 UNL     1      20.324  28.206  11.720  1.00  0.00     0.273 C 
BRANCH  39  40
HETATM   40  N7  UNL     1      19.096  27.651  12.150  1.00  0.00     0.092 N 
HETATM   41  C23 UNL     1      17.915  28.358  11.743  1.00  0.00     0.298 C 
HETATM   42  C24 UNL     1      17.472  28.008  10.352  1.00  0.00     0.198 C 
HETATM   43  O2  UNL     1      18.431  27.361   9.595  1.00  0.00    -0.388 OA
HETATM   44  C25 UNL     1      18.902  26.198  10.181  1.00  0.00     0.198 C 
HETATM   45  C26 UNL     1      18.971  26.287  11.684  1.00  0.00     0.298 C 
ENDBRANCH  39  40
ENDBRANCH  38  39
ENDBRANCH  37  38
ENDBRANCH  36  37
ENDBRANCH  34  36
ENDBRANCH  29  32
ENDBRANCH  25  26
ENDBRANCH  23  25
ENDBRANCH  15  23
ENDBRANCH   8  10
ENDBRANCH   7   8
ENDBRANCH   6   7
ENDBRANCH   5   6
ENDBRANCH   4   5
ENDBRANCH   3   4
TORSDOF 17
ENDMDL
MODEL 2
REMARK VINA RESULT: -7.917112857      1.199      1.647
REMARK  17 active torsions:
REMARK  status: ('A' for Active; 'I' for Inactive)
REMARK    1  A    between atoms: C3_3  and  C4_4 
REMARK    2  A    between atoms: C4_4  and  C5_5 
REMARK    3  A    between atoms: C5_5  and  C6_6 
REMARK    4  A    between atoms: C6_6  and  C7_7 
REMARK    5  A    between atoms: C7_7  and  N1_8 
REMARK    6  A    between atoms: N1_8  and  C8_10 
REMARK    7  A    between atoms: C9_13  and  N3_14 
REMARK    8  A    between atoms: N3_14  and  C10_16 
REMARK    9  A    between atoms: C12_20  and  N5_21 
REMARK   10  A    between atoms: N5_21  and  C13_23 
REMARK   11  A    between atoms: C13_23  and  C14_24 
REMARK   12  A    between atoms: C17_27  and  C18_28 
REMARK       I    between atoms: C18_28  and  N6_30 
REMARK   13  A    between atoms: N6_30  and  C19_32 
REMARK   14  A    between atoms: C19_32  and  C20_33 
REMARK   15  A    between atoms: C20_33  and  C21_34 
REMARK   16  A    between atoms: C21_34  and  C22_35 
REMARK   17  A    between atoms: C22_35  and  N7_36 
ROOT
HETATM    1  C1  UNL     1      18.267  30.636  13.574  1.00  0.00     0.012 C 
HETATM    2  C2  UNL     1      17.862  31.457  14.381  1.00  0.00    -0.117 C 
HETATM    3  C3  UNL     1      17.352  32.436  15.352  1.00  0.00     0.093 C 
ENDROOT
BRANCH   3   4
HETATM    4  C4  UNL     1      17.446  33.838  14.714  1.00  0.00     0.012 C 
BRANCH   4   5
HETATM    5  C5  UNL     1      16.307  34.625  15.270  1.00  0.00     0.002 C 
BRANCH   5   6
HETATM    6  C6  UNL     1      15.576  34.005  16.405  1.00  0.00     0.020 C 
BRANCH   6   7
HETATM    7  C7  UNL     1      14.948  34.946  17.355  1.00  0.00     0.138 C 
BRANCH   7   8
HETATM    8  N1  UNL     1      15.586  35.137  18.606  1.00  0.00    -0.225 N 
ATOM      9  H1  UNL     1      15.145  34.765  19.446  1.00  0.00     0.177 HD
BRANCH   8  10
HETATM   10  C8  UNL     1      16.695  35.762  18.716  1.00  0.00     0.707 A 
HETATM   11  N2  UNL     1      16.723  37.117  18.674  1.00  0.00    -0.022 N 
HETATM   12  C9  UNL     1      17.884  37.761  18.790  1.00  0.00     0.707 A 
ATOM     13  H2  UNL     1      15.857  37.643  18.553  1.00  0.00     0.203 HD
HETATM   14  N4  UNL     1      19.007  37.025  18.949  1.00  0.00    -0.022 N 
HETATM   15  C12 UNL     1      19.022  35.683  18.995  1.00  0.00     0.707 A 
ATOM     16  H4  UNL     1      19.895  37.518  19.039  1.00  0.00     0.203 HD
HETATM   17  N8  UNL     1      17.839  35.040  18.876  1.00  0.00    -0.022 N 
ATOM     18  H8  UNL     1      17.802  34.021  18.907  1.00  0.00     0.203 HD
BRANCH  12  19
HETATM   19  N3  UNL     1      17.904  39.044  18.748  1.00  0.00    -0.225 N 
ATOM     20  H3  UNL     1      18.639  39.556  19.235  1.00  0.00     0.177 HD
BRANCH  19  21
HETATM   21  C10 UNL     1      16.903  39.759  18.022  1.00  0.00     0.133 C 
HETATM   22  C11 UNL     1      17.404  40.298  16.701  1.00  0.00     0.027 C 
ENDBRANCH  19  21
ENDBRANCH  12  19
BRANCH  15  23
HETATM   23  N5  UNL     1      20.119  35.034  19.151  1.00  0.00    -0.221 N 
ATOM     24  H5  UNL     1      20.179  34.305  19.862  1.00  0.00     0.178 HD
BRANCH  23  25
HETATM   25  C13 UNL     1      21.268  35.328  18.326  1.00  0.00     0.176 C 
BRANCH  25  26
HETATM   26  C14 UNL     1      21.449  34.288  17.248  1.00  0.00    -0.040 A 
HETATM   27  C15 UNL     1      20.832  34.433  16.029  1.00  0.00     0.010 A 
HETATM   28  C16 UNL     1      20.993  33.493  15.045  1.00  0.00     0.017 A 
HETATM   29  C17 UNL     1      21.785  32.363  15.245  1.00  0.00     0.032 A 
HETATM   30  C27 UNL     1      22.391  32.233  16.461  1.00  0.00     0.017 A 
HETATM   31  C28 UNL     1      22.235  33.181  17.466  1.00  0.00     0.010 A 
BRANCH  29  32
HETATM   32  C18 UNL     1      21.945  31.355  14.172  1.00  0.00     0.255 C 
HETATM   33  O1  UNL     1      21.644  31.771  13.031  1.00  0.00    -0.267 OA
HETATM   34  N6  UNL     1      22.394  30.055  14.433  1.00  0.00    -0.337 N 
ATOM     35  H6  UNL     1      22.580  29.851  15.415  1.00  0.00     0.168 HD
BRANCH  34  36
HETATM   36  C19 UNL     1      22.629  28.985  13.547  1.00  0.00     0.064 C 
BRANCH  36  37
HETATM   37  C20 UNL     1      21.747  28.732  12.401  1.00  0.00     0.046 C 
BRANCH  37  38
HETATM   38  C21 UNL     1      20.503  27.956  12.625  1.00  0.00     0.035 C 
BRANCH  38  39
HETATM   39  C22 UNL     1      19.945  27.527  11.254  1.00  0.00     0.273 C 
BRANCH  39  40
HETATM   40  N7  UNL     1      18.541  27.678  11.166  1.00  0.00     0.092 N 
HETATM   41  C23 UNL     1      17.963  27.408   9.880  1.00  0.00     0.298 C 
HETATM   42  C24 UNL     1      17.722  25.946   9.641  1.00  0.00     0.198 C 
HETATM   43  O2  UNL     1      18.393  25.108  10.513  1.00  0.00    -0.388 OA
HETATM   44  C25 UNL     1      18.109  25.358  11.844  1.00  0.00     0.198 C 
HETATM   45  C26 UNL     1      17.883  26.822  12.129  1.00  0.00     0.298 C 
ENDBRANCH  39  40
ENDBRANCH  38  39
ENDBRANCH  37  38
ENDBRANCH  36  37
ENDBRANCH  34  36
ENDBRANCH  29  32
ENDBRANCH  25  26
ENDBRANCH  23  25
ENDBRANCH  15  23
ENDBRANCH   8  10
ENDBRANCH   7   8
ENDBRANCH   6   7
ENDBRANCH   5   6
ENDBRANCH   4   5
ENDBRANCH   3   4
TORSDOF 17
ENDMDL
MODEL 3
REMARK VINA RESULT: -7.906494854      3.440     11.360
REMARK  17 active torsions:
REMARK  status: ('A' for Active; 'I' for Inactive)
REMARK    1  A    between atoms: C3_3  and  C4_4 
REMARK    2  A    between atoms: C4_4  and  C5_5 
REMARK    3  A    between atoms: C5_5  and  C6_6 
REMARK    4  A    between atoms: C6_6  and  C7_7 
REMARK    5  A    between atoms: C7_7  and  N1_8 
REMARK    6  A    between atoms: N1_8  and  C8_10 
REMARK    7  A    between atoms: C9_13  and  N3_14 
REMARK    8  A    between atoms: N3_14  and  C10_16 
REMARK    9  A    between atoms: C12_20  and  N5_21 
REMARK   10  A    between atoms: N5_21  and  C13_23 
REMARK   11  A    between atoms: C13_23  and  C14_24 
REMARK   12  A    between atoms: C17_27  and  C18_28 
REMARK       I    between atoms: C18_28  and  N6_30 
REMARK   13  A    between atoms: N6_30  and  C19_32 
REMARK   14  A    between atoms: C19_32  and  C20_33 
REMARK   15  A    between atoms: C20_33  and  C21_34 
REMARK   16  A    between atoms: C21_34  and  C22_35 
REMARK   17  A    between atoms: C22_35  and  N7_36 
ROOT
HETATM    1  C1  UNL     1      21.851  31.423  13.560  1.00  0.00     0.012 C 
HETATM    2  C2  UNL     1      21.819  30.213  13.704  1.00  0.00    -0.117 C 
HETATM    3  C3  UNL     1      21.802  28.754  13.891  1.00  0.00     0.093 C 
ENDROOT
BRANCH   3   4
HETATM    4  C4  UNL     1      21.967  28.091  12.508  1.00  0.00     0.012 C 
BRANCH   4   5
HETATM    5  C5  UNL     1      23.391  27.654  12.423  1.00  0.00     0.002 C 
BRANCH   5   6
HETATM    6  C6  UNL     1      23.879  27.278  11.071  1.00  0.00     0.020 C 
BRANCH   6   7
HETATM    7  C7  UNL     1      24.038  25.829  10.827  1.00  0.00     0.138 C 
BRANCH   7   8
HETATM    8  N1  UNL     1      22.882  25.016  10.927  1.00  0.00    -0.225 N 
ATOM      9  H1  UNL     1      22.763  24.427  11.751  1.00  0.00     0.177 HD
BRANCH   8  10
HETATM   10  C8  UNL     1      21.983  24.997  10.019  1.00  0.00     0.707 A 
HETATM   11  N2  UNL     1      22.230  24.402   8.826  1.00  0.00    -0.022 N 
HETATM   12  C9  UNL     1      21.286  24.385   7.885  1.00  0.00     0.707 A 
ATOM     13  H2  UNL     1      23.136  23.967   8.650  1.00  0.00     0.203 HD
HETATM   14  N4  UNL     1      20.100  24.972   8.162  1.00  0.00    -0.022 N 
HETATM   15  C12 UNL     1      19.817  25.572   9.330  1.00  0.00     0.707 A 
ATOM     16  H4  UNL     1      19.379  24.958   7.442  1.00  0.00     0.203 HD
HETATM   17  N8  UNL     1      20.781  25.583  10.277  1.00  0.00    -0.022 N 
ATOM     18  H8  UNL     1      20.609  26.026  11.180  1.00  0.00     0.203 HD
BRANCH  12  19
HETATM   19  N3  UNL     1      21.527  23.821   6.757  1.00  0.00    -0.225 N 
ATOM     20  H3  UNL     1      21.622  22.807   6.707  1.00  0.00     0.177 HD
BRANCH  19  21
HETATM   21  C10 UNL     1      21.663  24.605   5.571  1.00  0.00     0.133 C 
HETATM   22  C11 UNL     1      20.577  24.331   4.555  1.00  0.00     0.027 C 
ENDBRANCH  19  21
ENDBRANCH  12  19
BRANCH  15  23
HETATM   23  N5  UNL     1      18.671  26.111   9.540  1.00  0.00    -0.221 N 
ATOM     24  H5  UNL     1      18.274  26.744   8.845  1.00  0.00     0.178 HD
BRANCH  23  25
HETATM   25  C13 UNL     1      17.939  25.830  10.754  1.00  0.00     0.176 C 
BRANCH  25  26
HETATM   26  C14 UNL     1      17.988  26.997  11.707  1.00  0.00    -0.040 A 
HETATM   27  C15 UNL     1      18.201  28.272  11.238  1.00  0.00     0.010 A 
HETATM   28  C16 UNL     1      18.246  29.337  12.098  1.00  0.00     0.017 A 
HETATM   29  C17 UNL     1      18.078  29.167  13.472  1.00  0.00     0.032 A 
HETATM   30  C27 UNL     1      17.867  27.897  13.922  1.00  0.00     0.017 A 
HETATM   31  C28 UNL     1      17.819  26.808  13.058  1.00  0.00     0.010 A 
BRANCH  29  32
HETATM   32  C18 UNL     1      18.134  30.330  14.387  1.00  0.00     0.255 C 
HETATM   33  O1  UNL     1      17.586  31.361  13.938  1.00  0.00    -0.267 OA
HETATM   34  N6  UNL     1      18.752  30.261  15.641  1.00  0.00    -0.337 N 
ATOM     35  H6  UNL     1      19.177  29.360  15.864  1.00  0.00     0.168 HD
BRANCH  34  36
HETATM   36  C19 UNL     1      18.877  31.243  16.643  1.00  0.00     0.064 C 
BRANCH  36  37
HETATM   37  C20 UNL     1      19.897  32.296  16.558  1.00  0.00     0.046 C 
BRANCH  37  38
HETATM   38  C21 UNL     1      19.452  33.692  16.326  1.00  0.00     0.035 C 
BRANCH  38  39
HETATM   39  C22 UNL     1      18.278  33.992  17.279  1.00  0.00     0.273 C 
BRANCH  39  40
HETATM   40  N7  UNL     1      17.156  34.532  16.607  1.00  0.00     0.092 N 
HETATM   41  C23 UNL     1      15.972  33.720  16.617  1.00  0.00     0.298 C 
HETATM   42  C24 UNL     1      15.168  33.870  17.875  1.00  0.00     0.198 C 
HETATM   43  O2  UNL     1      15.850  34.467  18.919  1.00  0.00    -0.388 OA
HETATM   44  C25 UNL     1      16.356  35.717  18.603  1.00  0.00     0.198 C 
HETATM   45  C26 UNL     1      16.807  35.819  17.168  1.00  0.00     0.298 C 
ENDBRANCH  39  40
ENDBRANCH  38  39
ENDBRANCH  37  38
ENDBRANCH  36  37
ENDBRANCH  34  36
ENDBRANCH  29  32
ENDBRANCH  25  26
ENDBRANCH  23  25
ENDBRANCH  15  23
ENDBRANCH   8  10
ENDBRANCH   7   8
ENDBRANCH   6   7
ENDBRANCH   5   6
ENDBRANCH   4   5
ENDBRANCH   3   4
TORSDOF 17
ENDMDL
MODEL 4
REMARK VINA RESULT: -7.895134999      1.172      1.720
REMARK  17 active torsions:
REMARK  status: ('A' for Active; 'I' for Inactive)
REMARK    1  A    between atoms: C3_3  and  C4_4 
REMARK    2  A    between atoms: C4_4  and  C5_5 
REMARK    3  A    between atoms: C5_5  and  C6_6 
REMARK    4  A    between atoms: C6_6  and  C7_7 
REMARK    5  A    between atoms: C7_7  and  N1_8 
REMARK    6  A    between atoms: N1_8  and  C8_10 
REMARK    7  A    between atoms: C9_13  and  N3_14 
REMARK    8  A    between atoms: N3_14  and  C10_16 
REMARK    9  A    between atoms: C12_20  and  N5_21 
REMARK   10  A    between atoms: N5_21  and  C13_23 
REMARK   11  A    between atoms: C13_23  and  C14_24 
REMARK   12  A    between atoms: C17_27  and  C18_28 
REMARK       I    between atoms: C18_28  and  N6_30 
REMARK   13  A    between atoms: N6_30  and  C19_32 
REMARK   14  A    between atoms: C19_32  and  C20_33 
REMARK   15  A    between atoms: C20_33  and  C21_34 
REMARK   16  A    between atoms: C21_34  and  C22_35 
REMARK   17  A    between atoms: C22_35  and  N7_36 
ROOT
HETATM    1  C1  UNL     1      17.143  29.118  12.064  1.00  0.00     0.012 C 
HETATM    2  C2  UNL     1      17.685  29.917  12.810  1.00  0.00    -0.117 C 
HETATM    3  C3  UNL     1      18.359  30.875  13.699  1.00  0.00     0.093 C 
ENDROOT
BRANCH   3   4
HETATM    4  C4  UNL     1      18.244  30.350  15.146  1.00  0.00     0.012 C 
BRANCH   4   5
HETATM    5  C5  UNL     1      17.805  31.510  15.975  1.00  0.00     0.002 C 
BRANCH   5   6
HETATM    6  C6  UNL     1      16.354  31.824  15.943  1.00  0.00     0.020 C 
BRANCH   6   7
HETATM    7  C7  UNL     1      15.999  33.240  16.168  1.00  0.00     0.138 C 
BRANCH   7   8
HETATM    8  N1  UNL     1      15.833  33.671  17.508  1.00  0.00    -0.225 N 
ATOM      9  H1  UNL     1      15.098  33.248  18.074  1.00  0.00     0.177 HD
BRANCH   8  10
HETATM   10  C8  UNL     1      16.575  34.571  18.030  1.00  0.00     0.707 A 
HETATM   11  N2  UNL     1      16.079  35.811  18.266  1.00  0.00    -0.022 N 
HETATM   12  C9  UNL     1      16.859  36.744  18.812  1.00  0.00     0.707 A 
ATOM     13  H2  UNL     1      15.112  36.030  18.026  1.00  0.00     0.203 HD
HETATM   14  N4  UNL     1      18.134  36.411  19.115  1.00  0.00    -0.022 N 
HETATM   15  C12 UNL     1      18.662  35.195  18.896  1.00  0.00     0.707 A 
ATOM     16  H4  UNL     1      18.730  37.124  19.533  1.00  0.00     0.203 HD
HETATM   17  N8  UNL     1      17.862  34.257  18.342  1.00  0.00    -0.022 N 
ATOM     18  H8  UNL     1      18.221  33.319  18.160  1.00  0.00     0.203 HD
BRANCH  12  19
HETATM   19  N3  UNL     1      16.385  37.917  19.032  1.00  0.00    -0.225 N 
ATOM     20  H3  UNL     1      15.987  38.140  19.943  1.00  0.00     0.177 HD
BRANCH  19  21
HETATM   21  C10 UNL     1      16.412  38.911  18.007  1.00  0.00     0.133 C 
HETATM   22  C11 UNL     1      15.602  40.139  18.354  1.00  0.00     0.027 C 
ENDBRANCH  19  21
ENDBRANCH  12  19
BRANCH  15  23
HETATM   23  N5  UNL     1      19.880  34.933  19.206  1.00  0.00    -0.221 N 
ATOM     24  H5  UNL     1      20.086  34.443  20.077  1.00  0.00     0.178 HD
BRANCH  23  25
HETATM   25  C13 UNL     1      20.961  35.326  18.331  1.00  0.00     0.176 C 
BRANCH  25  26
HETATM   26  C14 UNL     1      21.215  34.282  17.273  1.00  0.00    -0.040 A 
HETATM   27  C15 UNL     1      20.587  34.359  16.052  1.00  0.00     0.010 A 
HETATM   28  C16 UNL     1      20.814  33.415  15.086  1.00  0.00     0.017 A 
HETATM   29  C17 UNL     1      21.687  32.350  15.304  1.00  0.00     0.032 A 
HETATM   30  C27 UNL     1      22.303  32.287  16.520  1.00  0.00     0.017 A 
HETATM   31  C28 UNL     1      22.080  33.240  17.508  1.00  0.00     0.010 A 
BRANCH  29  32
HETATM   32  C18 UNL     1      21.918  31.336  14.249  1.00  0.00     0.255 C 
HETATM   33  O1  UNL     1      21.918  31.799  13.087  1.00  0.00    -0.267 OA
HETATM   34  N6  UNL     1      22.116  29.983  14.548  1.00  0.00    -0.337 N 
ATOM     35  H6  UNL     1      22.066  29.748  15.540  1.00  0.00     0.168 HD
BRANCH  34  36
HETATM   36  C19 UNL     1      22.372  28.895  13.690  1.00  0.00     0.064 C 
BRANCH  36  37
HETATM   37  C20 UNL     1      21.661  28.743  12.415  1.00  0.00     0.046 C 
BRANCH  37  38
HETATM   38  C21 UNL     1      20.566  27.746  12.331  1.00  0.00     0.035 C 
BRANCH  38  39
HETATM   39  C22 UNL     1      20.940  26.704  11.259  1.00  0.00     0.273 C 
BRANCH  39  40
HETATM   40  N7  UNL     1      20.220  25.494  11.400  1.00  0.00     0.092 N 
HETATM   41  C23 UNL     1      18.799  25.629  11.556  1.00  0.00     0.298 C 
HETATM   42  C24 UNL     1      18.077  25.791  10.250  1.00  0.00     0.198 C 
HETATM   43  O2  UNL     1      18.894  26.127   9.186  1.00  0.00    -0.388 OA
HETATM   44  C25 UNL     1      19.924  25.225   8.977  1.00  0.00     0.198 C 
HETATM   45  C26 UNL     1      20.454  24.635  10.259  1.00  0.00     0.298 C 
ENDBRANCH  39  40
ENDBRANCH  38  39
ENDBRANCH  37  38
ENDBRANCH  36  37
ENDBRANCH  34  36
ENDBRANCH  29  32
ENDBRANCH  25  26
ENDBRANCH  23  25
ENDBRANCH  15  23
ENDBRANCH   8  10
ENDBRANCH   7   8
ENDBRANCH   6   7
ENDBRANCH   5   6
ENDBRANCH   4   5
ENDBRANCH   3   4
TORSDOF 17
ENDMDL
MODEL 5
REMARK VINA RESULT: -7.863034210      1.652      3.874
REMARK  17 active torsions:
REMARK  status: ('A' for Active; 'I' for Inactive)
REMARK    1  A    between atoms: C3_3  and  C4_4 
REMARK    2  A    between atoms: C4_4  and  C5_5 
REMARK    3  A    between atoms: C5_5  and  C6_6 
REMARK    4  A    between atoms: C6_6  and  C7_7 
REMARK    5  A    between atoms: C7_7  and  N1_8 
REMARK    6  A    between atoms: N1_8  and  C8_10 
REMARK    7  A    between atoms: C9_13  and  N3_14 
REMARK    8  A    between atoms: N3_14  and  C10_16 
REMARK    9  A    between atoms: C12_20  and  N5_21 
REMARK   10  A    between atoms: N5_21  and  C13_23 
REMARK   11  A    between atoms: C13_23  and  C14_24 
REMARK   12  A    between atoms: C17_27  and  C18_28 
REMARK       I    between atoms: C18_28  and  N6_30 
REMARK   13  A    between atoms: N6_30  and  C19_32 
REMARK   14  A    between atoms: C19_32  and  C20_33 
REMARK   15  A    between atoms: C20_33  and  C21_34 
REMARK   16  A    between atoms: C21_34  and  C22_35 
REMARK   17  A    between atoms: C22_35  and  N7_36 
ROOT
HETATM    1  C1  UNL     1      23.570  32.348  14.717  1.00  0.00     0.012 C 
HETATM    2  C2  UNL     1      22.621  32.210  15.471  1.00  0.00    -0.117 C 
HETATM    3  C3  UNL     1      21.466  32.028  16.364  1.00  0.00     0.093 C 
ENDROOT
BRANCH   3   4
HETATM    4  C4  UNL     1      20.674  33.351  16.401  1.00  0.00     0.012 C 
BRANCH   4   5
HETATM    5  C5  UNL     1      21.407  34.248  17.342  1.00  0.00     0.002 C 
BRANCH   5   6
HETATM    6  C6  UNL     1      21.551  35.664  16.917  1.00  0.00     0.020 C 
BRANCH   6   7
HETATM    7  C7  UNL     1      21.003  36.672  17.847  1.00  0.00     0.138 C 
BRANCH   7   8
HETATM    8  N1  UNL     1      20.047  36.236  18.798  1.00  0.00    -0.225 N 
ATOM      9  H1  UNL     1      20.340  35.596  19.536  1.00  0.00     0.177 HD
BRANCH   8  10
HETATM   10  C8  UNL     1      18.828  36.618  18.761  1.00  0.00     0.707 A 
HETATM   11  N2  UNL     1      18.524  37.938  18.816  1.00  0.00    -0.022 N 
HETATM   12  C9  UNL     1      17.250  38.328  18.775  1.00  0.00     0.707 A 
ATOM     13  H2  UNL     1      19.269  38.632  18.889  1.00  0.00     0.203 HD
HETATM   14  N4  UNL     1      16.295  37.376  18.678  1.00  0.00    -0.022 N 
HETATM   15  C12 UNL     1      16.555  36.059  18.621  1.00  0.00     0.707 A 
ATOM     16  H4  UNL     1      15.321  37.675  18.646  1.00  0.00     0.203 HD
HETATM   17  N8  UNL     1      17.850  35.675  18.663  1.00  0.00    -0.022 N 
ATOM     18  H8  UNL     1      18.094  34.685  18.622  1.00  0.00     0.203 HD
BRANCH  12  19
HETATM   19  N3  UNL     1      16.969  39.580  18.830  1.00  0.00    -0.225 N 
ATOM     20  H3  UNL     1      17.333  40.149  19.594  1.00  0.00     0.177 HD
BRANCH  19  21
HETATM   21  C10 UNL     1      16.150  40.181  17.826  1.00  0.00     0.133 C 
HETATM   22  C11 UNL     1      16.945  40.703  16.651  1.00  0.00     0.027 C 
ENDBRANCH  19  21
ENDBRANCH  12  19
BRANCH  15  23
HETATM   23  N5  UNL     1      15.607  35.198  18.526  1.00  0.00    -0.221 N 
ATOM     24  H5  UNL     1      15.295  34.696  19.357  1.00  0.00     0.178 HD
BRANCH  23  25
HETATM   25  C13 UNL     1      14.981  34.934  17.252  1.00  0.00     0.176 C 
BRANCH  25  26
HETATM   26  C14 UNL     1      15.839  34.038  16.394  1.00  0.00    -0.040 A 
HETATM   27  C15 UNL     1      15.812  32.674  16.564  1.00  0.00     0.010 A 
HETATM   28  C16 UNL     1      16.589  31.854  15.789  1.00  0.00     0.017 A 
HETATM   29  C17 UNL     1      17.429  32.372  14.804  1.00  0.00     0.032 A 
HETATM   30  C27 UNL     1      17.445  33.728  14.646  1.00  0.00     0.017 A 
HETATM   31  C28 UNL     1      16.661  34.568  15.428  1.00  0.00     0.010 A 
BRANCH  29  32
HETATM   32  C18 UNL     1      18.265  31.471  13.976  1.00  0.00     0.255 C 
HETATM   33  O1  UNL     1      17.845  30.295  13.919  1.00  0.00    -0.267 OA
HETATM   34  N6  UNL     1      19.421  31.918  13.325  1.00  0.00    -0.337 N 
ATOM     35  H6  UNL     1      19.653  32.899  13.482  1.00  0.00     0.168 HD
BRANCH  34  36
HETATM   36  C19 UNL     1      20.313  31.222  12.487  1.00  0.00     0.064 C 
BRANCH  36  37
HETATM   37  C20 UNL     1      21.095  30.082  12.982  1.00  0.00     0.046 C 
BRANCH  37  38
HETATM   38  C21 UNL     1      21.499  29.030  12.017  1.00  0.00     0.035 C 
BRANCH  38  39
HETATM   39  C22 UNL     1      20.599  27.798  12.236  1.00  0.00     0.273 C 
BRANCH  39  40
HETATM   40  N7  UNL     1      19.925  27.399  11.058  1.00  0.00     0.092 N 
HETATM   41  C23 UNL     1      19.731  25.986  10.898  1.00  0.00     0.298 C 
HETATM   42  C24 UNL     1      18.533  25.470  11.640  1.00  0.00     0.198 C 
HETATM   43  O2  UNL     1      18.042  26.336  12.600  1.00  0.00    -0.388 OA
HETATM   44  C25 UNL     1      17.708  27.582  12.098  1.00  0.00     0.198 C 
HETATM   45  C26 UNL     1      18.624  28.029  10.987  1.00  0.00     0.298 C 
ENDBRANCH  39  40
ENDBRANCH  38  39
ENDBRANCH  37  38
ENDBRANCH  36  37
ENDBRANCH  34  36
ENDBRANCH  29  32
ENDBRANCH  25  26
ENDBRANCH  23  25
ENDBRANCH  15  23
ENDBRANCH   8  10
ENDBRANCH   7   8
ENDBRANCH   6   7
ENDBRANCH   5   6
ENDBRANCH   4   5
ENDBRANCH   3   4
TORSDOF 17
ENDMDL
