MODEL 1
REMARK VINA RESULT: -7.713673216      0.000      0.000
REMARK  15 active torsions:
REMARK  status: ('A' for Active; 'I' for Inactive)
REMARK    1  A    between atoms: C2_2  and  N1_3 
REMARK    2  A    between atoms: N1_3  and  C3_5 
REMARK    3  A    between atoms: C3_5  and  C4_6 
REMARK    4  A    between atoms: C3_5  and  C7_9 
REMARK    5  A    between atoms: C7_9  and  C8_10 
REMARK    6  A    between atoms: C7_9  and  N2_14 
REMARK    7  A    between atoms: C8_10  and  C9_11 
REMARK       I    between atoms: N2_14  and  C12_16 
REMARK    8  A    between atoms: C12_16  and  C13_18 
REMARK    9  A    between atoms: C13_18  and  C14_19 
REMARK   10  A    between atoms: C13_18  and  O5_37 
REMARK   11  A    between atoms: C14_19  and  C15_20 
REMARK       I    between atoms: C15_20  and  N3_22 
REMARK   12  A    between atoms: N3_22  and  C16_24 
REMARK   13  A    between atoms: C16_24  and  C22_34 
REMARK   14  A    between atoms: C17_25  and  O3_26 
REMARK   15  A    between atoms: C17_25  and  N4_28 
ROOT
HETATM    1  C13 UNL     1      20.882  31.908  14.009  1.00  0.00     0.221 C 
ENDROOT
BRANCH   1   2
HETATM    2  C12 UNL     1      20.962  30.872  12.917  1.00  0.00     0.251 C 
HETATM    3  N2  UNL     1      20.967  29.475  13.278  1.00  0.00    -0.327 N 
ATOM      4  H2  UNL     1      20.925  29.231  14.268  1.00  0.00     0.168 HD
HETATM    5  O1  UNL     1      21.023  31.160  11.747  1.00  0.00    -0.270 OA
BRANCH   3   6
HETATM    6  C7  UNL     1      21.027  28.406  12.313  1.00  0.00     0.035 C 
BRANCH   6   7
HETATM    7  C3  UNL     1      19.728  27.791  12.022  1.00  0.00     0.031 C 
BRANCH   7   8
HETATM    8  N1  UNL     1      19.465  27.517  10.637  1.00  0.00    -0.392 N 
ATOM      9  H1  UNL     1      19.433  28.235   9.915  1.00  0.00     0.159 HD
BRANCH   8  10
HETATM   10  C2  UNL     1      19.246  26.074  10.373  1.00  0.00     0.115 C 
HETATM   11  C1  UNL     1      17.841  25.911   9.774  1.00  0.00     0.026 C 
ENDBRANCH   8  10
ENDBRANCH   7   8
BRANCH   7  12
HETATM   12  C4  UNL     1      18.530  28.315  12.778  1.00  0.00     0.029 C 
HETATM   13  C5  UNL     1      17.606  29.095  11.885  1.00  0.00     0.016 C 
HETATM   14  C6  UNL     1      17.805  27.288  13.603  1.00  0.00     0.016 C 
ENDBRANCH   7  12
ENDBRANCH   6   7
BRANCH   6  15
HETATM   15  C8  UNL     1      22.218  27.544  12.557  1.00  0.00     0.063 C 
BRANCH  15  16
HETATM   16  C9  UNL     1      23.068  27.102  11.450  1.00  0.00    -0.017 C 
HETATM   17  C10 UNL     1      22.909  25.664  11.005  1.00  0.00     0.010 C 
HETATM   18  C11 UNL     1      24.519  27.155  12.024  1.00  0.00     0.010 C 
ENDBRANCH  15  16
ENDBRANCH   6  15
ENDBRANCH   3   6
ENDBRANCH   1   2
BRANCH   1  19
HETATM   19  C14 UNL     1      19.492  32.536  13.921  1.00  0.00     0.144 C 
BRANCH  19  20
HETATM   20  C15 UNL     1      18.919  32.931  15.232  1.00  0.00     0.225 C 
HETATM   21  O2  UNL     1      19.226  32.451  16.330  1.00  0.00    -0.273 OA
HETATM   22  N3  UNL     1      17.926  33.967  15.224  1.00  0.00    -0.327 N 
ATOM     23  H3  UNL     1      17.632  34.388  14.344  1.00  0.00     0.168 HD
BRANCH  22  24
HETATM   24  C16 UNL     1      17.340  34.414  16.486  1.00  0.00     0.066 C 
HETATM   25  C17 UNL     1      17.934  35.609  16.975  1.00  0.00     0.161 C 
BRANCH  25  26
HETATM   26  O3  UNL     1      19.261  35.643  16.718  1.00  0.00    -0.345 OA
ATOM     27  H3  UNL     1      19.633  36.493  16.924  1.00  0.00     0.219 HD
ENDBRANCH  25  26
BRANCH  25  28
HETATM   28  N4  UNL     1      17.545  36.761  17.648  1.00  0.00    -0.356 N 
HETATM   29  C18 UNL     1      18.004  37.296  18.897  1.00  0.00     0.151 C 
HETATM   30  C19 UNL     1      18.437  38.767  18.761  1.00  0.00     0.187 C 
HETATM   31  O4  UNL     1      18.328  39.156  17.433  1.00  0.00    -0.388 OA
HETATM   32  C20 UNL     1      16.972  39.046  17.035  1.00  0.00     0.187 C 
HETATM   33  C21 UNL     1      16.507  37.615  16.999  1.00  0.00     0.151 C 
ENDBRANCH  25  28
BRANCH  24  34
HETATM   34  C22 UNL     1      15.879  34.173  16.509  1.00  0.00     0.032 C 
HETATM   35  C23 UNL     1      15.460  32.881  15.837  1.00  0.00     0.016 C 
HETATM   36  C24 UNL     1      15.520  33.950  18.006  1.00  0.00     0.016 C 
ENDBRANCH  24  34
ENDBRANCH  22  24
ENDBRANCH  19  20
ENDBRANCH   1  19
BRANCH   1  37
HETATM   37  O5  UNL     1      21.875  32.770  13.954  1.00  0.00    -0.381 OA
HETATM   38  C25 UNL     1      23.124  32.413  14.389  1.00  0.00     0.202 C 
ENDBRANCH   1  37
TORSDOF 15
ENDMDL
MODEL 2
REMARK VINA RESULT: -7.616015551      2.491      9.380
REMARK  15 active torsions:
REMARK  status: ('A' for Active; 'I' for Inactive)
REMARK    1  A    between atoms: C2_2  and  N1_3 
REMARK    2  A    between atoms: N1_3  and  C3_5 
REMARK    3  A    between atoms: C3_5  and  C4_6 
REMARK    4  A    between atoms: C3_5  and  C7_9 
REMARK    5  A    between atoms: C7_9  and  C8_10 
REMARK    6  A    between atoms: C7_9  and  N2_14 
REMARK    7  A    between atoms: C8_10  and  C9_11 
REMARK       I    between atoms: N2_14  and  C12_16 
REMARK    8  A    between atoms: C12_16  and  C13_18 
REMARK    9  A    between atoms: C13_18  and  C14_19 
REMARK   10  A    between atoms: C13_18  and  O5_37 
REMARK   11  A    between atoms: C14_19  and  C15_20 
REMARK       I    between atoms: C15_20  and  N3_22 
REMARK   12  A    between atoms: N3_22  and  C16_24 
REMARK   13  A    between atoms: C16_24  and  C22_34 
REMARK   14  A    between atoms: C17_25  and  O3_26 
REMARK   15  A    between atoms: C17_25  and  N4_28 
ROOT
HETATM    1  C13 UNL     1      16.930  32.665  16.009  1.00  0.00     0.221 C 
ENDROOT
BRANCH   1   2
HETATM    2  C12 UNL     1      18.300  32.922  16.581  1.00  0.00     0.251 C 
HETATM    3  N2  UNL     1      19.014  34.110  16.179  1.00  0.00    -0.327 N 
ATOM      4  H2  UNL     1      18.570  34.738  15.509  1.00  0.00     0.168 HD
HETATM    5  O1  UNL     1      18.831  32.174  17.365  1.00  0.00    -0.270 OA
BRANCH   3   6
HETATM    6  C7  UNL     1      20.322  34.457  16.676  1.00  0.00     0.035 C 
BRANCH   6   7
HETATM    7  C3  UNL     1      20.403  35.803  17.253  1.00  0.00     0.031 C 
BRANCH   7   8
HETATM    8  N1  UNL     1      19.176  36.547  17.271  1.00  0.00    -0.392 N 
ATOM      9  H1  UNL     1      18.767  36.984  16.446  1.00  0.00     0.159 HD
BRANCH   8  10
HETATM   10  C2  UNL     1      18.568  36.613  18.622  1.00  0.00     0.115 C 
HETATM   11  C1  UNL     1      17.142  37.164  18.473  1.00  0.00     0.026 C 
ENDBRANCH   8  10
ENDBRANCH   7   8
BRANCH   7  12
HETATM   12  C4  UNL     1      21.615  36.633  16.905  1.00  0.00     0.029 C 
HETATM   13  C5  UNL     1      21.232  38.010  16.440  1.00  0.00     0.016 C 
HETATM   14  C6  UNL     1      22.688  36.656  17.958  1.00  0.00     0.016 C 
ENDBRANCH   7  12
ENDBRANCH   6   7
BRANCH   6  15
HETATM   15  C8  UNL     1      21.381  33.985  15.741  1.00  0.00     0.063 C 
BRANCH  15  16
HETATM   16  C9  UNL     1      22.058  32.704  15.952  1.00  0.00    -0.017 C 
HETATM   17  C10 UNL     1      22.435  32.364  17.378  1.00  0.00     0.010 C 
HETATM   18  C11 UNL     1      23.433  32.862  15.231  1.00  0.00     0.010 C 
ENDBRANCH  15  16
ENDBRANCH   6  15
ENDBRANCH   3   6
ENDBRANCH   1   2
BRANCH   1  19
HETATM   19  C14 UNL     1      17.129  32.247  14.553  1.00  0.00     0.144 C 
BRANCH  19  20
HETATM   20  C15 UNL     1      17.877  30.976  14.382  1.00  0.00     0.225 C 
HETATM   21  O2  UNL     1      17.863  30.018  15.165  1.00  0.00    -0.273 OA
HETATM   22  N3  UNL     1      18.681  30.847  13.202  1.00  0.00    -0.327 N 
ATOM     23  H3  UNL     1      18.733  31.612  12.530  1.00  0.00     0.168 HD
BRANCH  22  24
HETATM   24  C16 UNL     1      19.425  29.610  12.967  1.00  0.00     0.066 C 
HETATM   25  C17 UNL     1      18.721  28.694  12.139  1.00  0.00     0.161 C 
BRANCH  25  26
HETATM   26  O3  UNL     1      17.391  28.727  12.383  1.00  0.00    -0.345 OA
ATOM     27  H3  UNL     1      16.982  29.483  11.978  1.00  0.00     0.219 HD
ENDBRANCH  25  26
BRANCH  25  28
HETATM   28  N4  UNL     1      19.004  27.765  11.146  1.00  0.00    -0.356 N 
HETATM   29  C18 UNL     1      20.147  26.914  10.980  1.00  0.00     0.151 C 
HETATM   30  C19 UNL     1      19.738  25.441  10.798  1.00  0.00     0.187 C 
HETATM   31  O4  UNL     1      18.360  25.330  10.915  1.00  0.00    -0.388 OA
HETATM   32  C20 UNL     1      17.752  26.098   9.890  1.00  0.00     0.187 C 
HETATM   33  C21 UNL     1      17.982  27.573  10.076  1.00  0.00     0.151 C 
ENDBRANCH  25  28
BRANCH  24  34
HETATM   34  C22 UNL     1      20.874  29.881  12.819  1.00  0.00     0.032 C 
HETATM   35  C23 UNL     1      21.207  31.347  12.635  1.00  0.00     0.016 C 
HETATM   36  C24 UNL     1      21.504  29.522  14.195  1.00  0.00     0.016 C 
ENDBRANCH  24  34
ENDBRANCH  22  24
ENDBRANCH  19  20
ENDBRANCH   1  19
BRANCH   1  37
HETATM   37  O5  UNL     1      16.118  33.687  16.177  1.00  0.00    -0.381 OA
HETATM   38  C25 UNL     1      15.507  33.891  17.387  1.00  0.00     0.202 C 
ENDBRANCH   1  37
TORSDOF 15
ENDMDL
MODEL 3
REMARK VINA RESULT: -7.594203232      0.712      1.665
REMARK  15 active torsions:
REMARK  status: ('A' for Active; 'I' for Inactive)
REMARK    1  A    between atoms: C2_2  and  N1_3 
REMARK    2  A    between atoms: N1_3  and  C3_5 
REMARK    3  A    between atoms: C3_5  and  C4_6 
REMARK    4  A    between atoms: C3_5  and  C7_9 
REMARK    5  A    between atoms: C7_9  and  C8_10 
REMARK    6  A    between atoms: C7_9  and  N2_14 
REMARK    7  A    between atoms: C8_10  and  C9_11 
REMARK       I    between atoms: N2_14  and  C12_16 
REMARK    8  A    between atoms: C12_16  and  C13_18 
REMARK    9  A    between atoms: C13_18  and  C14_19 
REMARK   10  A    between atoms: C13_18  and  O5_37 
REMARK   11  A    between atoms: C14_19  and  C15_20 
REMARK       I    between atoms: C15_20  and  N3_22 
REMARK   12  A    between atoms: N3_22  and  C16_24 
REMARK   13  A    between atoms: C16_24  and  C22_34 
REMARK   14  A    between atoms: C17_25  and  O3_26 
REMARK   15  A    between atoms: C17_25  and  N4_28 
ROOT
HETATM    1  C13 UNL     1      21.094  31.919  13.888  1.00  0.00     0.221 C 
ENDROOT
BRANCH   1   2
HETATM    2  C12 UNL     1      21.077  30.854  12.822  1.00  0.00     0.251 C 
HETATM    3  N2  UNL     1      21.240  29.474  13.210  1.00  0.00    -0.327 N 
ATOM      4  H2  UNL     1      21.373  29.261  14.199  1.00  0.00     0.168 HD
HETATM    5  O1  UNL     1      20.932  31.105  11.651  1.00  0.00    -0.270 OA
BRANCH   3   6
HETATM    6  C7  UNL     1      21.225  28.379  12.273  1.00  0.00     0.035 C 
BRANCH   6   7
HETATM    7  C3  UNL     1      19.896  27.800  12.053  1.00  0.00     0.031 C 
BRANCH   7   8
HETATM    8  N1  UNL     1      19.206  27.360  13.233  1.00  0.00    -0.392 N 
ATOM      9  H1  UNL     1      19.586  26.678  13.890  1.00  0.00     0.159 HD
BRANCH   8  10
HETATM   10  C2  UNL     1      17.880  28.004  13.394  1.00  0.00     0.115 C 
HETATM   11  C1  UNL     1      18.057  29.232  14.299  1.00  0.00     0.026 C 
ENDBRANCH   8  10
ENDBRANCH   7   8
BRANCH   7  12
HETATM   12  C4  UNL     1      19.730  26.876  10.870  1.00  0.00     0.029 C 
HETATM   13  C5  UNL     1      19.665  25.435  11.294  1.00  0.00     0.016 C 
HETATM   14  C6  UNL     1      18.621  27.252   9.927  1.00  0.00     0.016 C 
ENDBRANCH   7  12
ENDBRANCH   6   7
BRANCH   6  15
HETATM   15  C8  UNL     1      22.398  27.485  12.490  1.00  0.00     0.063 C 
BRANCH  15  16
HETATM   16  C9  UNL     1      23.369  27.243  11.421  1.00  0.00    -0.017 C 
HETATM   17  C10 UNL     1      23.325  25.883  10.760  1.00  0.00     0.010 C 
HETATM   18  C11 UNL     1      24.755  27.263  12.140  1.00  0.00     0.010 C 
ENDBRANCH  15  16
ENDBRANCH   6  15
ENDBRANCH   3   6
ENDBRANCH   1   2
BRANCH   1  19
HETATM   19  C14 UNL     1      19.758  32.655  13.800  1.00  0.00     0.144 C 
BRANCH  19  20
HETATM   20  C15 UNL     1      19.151  32.974  15.116  1.00  0.00     0.225 C 
HETATM   21  O2  UNL     1      19.502  32.507  16.207  1.00  0.00    -0.273 OA
HETATM   22  N3  UNL     1      18.066  33.912  15.123  1.00  0.00    -0.327 N 
ATOM     23  H3  UNL     1      17.733  34.319  14.249  1.00  0.00     0.168 HD
BRANCH  22  24
HETATM   24  C16 UNL     1      17.440  34.282  16.392  1.00  0.00     0.066 C 
HETATM   25  C17 UNL     1      17.953  35.496  16.923  1.00  0.00     0.161 C 
BRANCH  25  26
HETATM   26  O3  UNL     1      19.277  35.622  16.683  1.00  0.00    -0.345 OA
ATOM     27  H3  UNL     1      19.483  35.459  15.770  1.00  0.00     0.219 HD
ENDBRANCH  25  26
BRANCH  25  28
HETATM   28  N4  UNL     1      17.485  36.599  17.627  1.00  0.00    -0.356 N 
HETATM   29  C18 UNL     1      17.889  37.117  18.902  1.00  0.00     0.151 C 
HETATM   30  C19 UNL     1      18.238  38.614  18.824  1.00  0.00     0.187 C 
HETATM   31  O4  UNL     1      18.131  39.042  17.508  1.00  0.00    -0.388 OA
HETATM   32  C20 UNL     1      16.791  38.868  17.080  1.00  0.00     0.187 C 
HETATM   33  C21 UNL     1      16.411  37.414  16.987  1.00  0.00     0.151 C 
ENDBRANCH  25  28
BRANCH  24  34
HETATM   34  C22 UNL     1      15.997  33.949  16.390  1.00  0.00     0.032 C 
HETATM   35  C23 UNL     1      15.686  32.572  15.837  1.00  0.00     0.016 C 
HETATM   36  C24 UNL     1      15.593  33.851  17.889  1.00  0.00     0.016 C 
ENDBRANCH  24  34
ENDBRANCH  22  24
ENDBRANCH  19  20
ENDBRANCH   1  19
BRANCH   1  37
HETATM   37  O5  UNL     1      22.153  32.696  13.801  1.00  0.00    -0.381 OA
HETATM   38  C25 UNL     1      23.288  32.399  14.509  1.00  0.00     0.202 C 
ENDBRANCH   1  37
TORSDOF 15
ENDMDL
MODEL 4
REMARK VINA RESULT: -7.586491126      1.830      2.218
REMARK  15 active torsions:
REMARK  status: ('A' for Active; 'I' for Inactive)
REMARK    1  A    between atoms: C2_2  and  N1_3 
REMARK    2  A    between atoms: N1_3  and  C3_5 
REMARK    3  A    between atoms: C3_5  and  C4_6 
REMARK    4  A    between atoms: C3_5  and  C7_9 
REMARK    5  A    between atoms: C7_9  and  C8_10 
REMARK    6  A    between atoms: C7_9  and  N2_14 
REMARK    7  A    between atoms: C8_10  and  C9_11 
REMARK       I    between atoms: N2_14  and  C12_16 
REMARK    8  A    between atoms: C12_16  and  C13_18 
REMARK    9  A    between atoms: C13_18  and  C14_19 
REMARK   10  A    between atoms: C13_18  and  O5_37 
REMARK   11  A    between atoms: C14_19  and  C15_20 
REMARK       I    between atoms: C15_20  and  N3_22 
REMARK   12  A    between atoms: N3_22  and  C16_24 
REMARK   13  A    between atoms: C16_24  and  C22_34 
REMARK   14  A    between atoms: C17_25  and  O3_26 
REMARK   15  A    between atoms: C17_25  and  N4_28 
ROOT
HETATM    1  C13 UNL     1      21.210  29.918  14.564  1.00  0.00     0.221 C 
ENDROOT
BRANCH   1   2
HETATM    2  C12 UNL     1      21.219  29.363  13.163  1.00  0.00     0.251 C 
HETATM    3  N2  UNL     1      21.216  27.931  12.978  1.00  0.00    -0.327 N 
ATOM      4  H2  UNL     1      21.218  27.336  13.806  1.00  0.00     0.168 HD
HETATM    5  O1  UNL     1      21.229  30.066  12.182  1.00  0.00    -0.270 OA
BRANCH   3   6
HETATM    6  C7  UNL     1      21.211  27.298  11.683  1.00  0.00     0.035 C 
BRANCH   6   7
HETATM    7  C3  UNL     1      19.892  26.815  11.260  1.00  0.00     0.031 C 
BRANCH   7   8
HETATM    8  N1  UNL     1      19.627  26.883   9.851  1.00  0.00    -0.392 N 
ATOM      9  H1  UNL     1      19.697  27.739   9.302  1.00  0.00     0.159 HD
BRANCH   8  10
HETATM   10  C2  UNL     1      19.240  25.571   9.279  1.00  0.00     0.115 C 
HETATM   11  C1  UNL     1      17.787  25.676   8.794  1.00  0.00     0.026 C 
ENDBRANCH   8  10
ENDBRANCH   7   8
BRANCH   7  12
HETATM   12  C4  UNL     1      18.710  27.189  12.122  1.00  0.00     0.029 C 
HETATM   13  C5  UNL     1      17.919  28.318  11.522  1.00  0.00     0.016 C 
HETATM   14  C6  UNL     1      17.843  26.033  12.539  1.00  0.00     0.016 C 
ENDBRANCH   7  12
ENDBRANCH   6   7
BRANCH   6  15
HETATM   15  C8  UNL     1      22.409  26.427  11.519  1.00  0.00     0.063 C 
BRANCH  15  16
HETATM   16  C9  UNL     1      23.614  26.920  10.850  1.00  0.00    -0.017 C 
HETATM   17  C10 UNL     1      24.187  26.046   9.755  1.00  0.00     0.010 C 
HETATM   18  C11 UNL     1      24.715  26.897  11.957  1.00  0.00     0.010 C 
ENDBRANCH  15  16
ENDBRANCH   6  15
ENDBRANCH   3   6
ENDBRANCH   1   2
BRANCH   1  19
HETATM   19  C14 UNL     1      19.847  29.577  15.166  1.00  0.00     0.144 C 
BRANCH  19  20
HETATM   20  C15 UNL     1      19.359  30.560  16.165  1.00  0.00     0.225 C 
HETATM   21  O2  UNL     1      19.362  30.406  17.392  1.00  0.00    -0.273 OA
HETATM   22  N3  UNL     1      18.845  31.800  15.661  1.00  0.00    -0.327 N 
ATOM     23  H3  UNL     1      18.813  31.972  14.656  1.00  0.00     0.168 HD
BRANCH  22  24
HETATM   24  C16 UNL     1      18.369  32.817  16.597  1.00  0.00     0.066 C 
HETATM   25  C17 UNL     1      19.369  33.771  16.927  1.00  0.00     0.161 C 
BRANCH  25  26
HETATM   26  O3  UNL     1      20.591  33.199  17.010  1.00  0.00    -0.345 OA
ATOM     27  H3  UNL     1      21.280  33.818  16.800  1.00  0.00     0.219 HD
ENDBRANCH  25  26
BRANCH  25  28
HETATM   28  N4  UNL     1      19.456  35.132  17.196  1.00  0.00    -0.356 N 
HETATM   29  C18 UNL     1      18.451  36.046  17.657  1.00  0.00     0.151 C 
HETATM   30  C19 UNL     1      18.918  36.825  18.900  1.00  0.00     0.187 C 
HETATM   31  O4  UNL     1      20.174  36.372  19.280  1.00  0.00    -0.388 OA
HETATM   32  C20 UNL     1      21.086  36.620  18.223  1.00  0.00     0.187 C 
HETATM   33  C21 UNL     1      20.786  35.782  17.009  1.00  0.00     0.151 C 
ENDBRANCH  25  28
BRANCH  24  34
HETATM   34  C22 UNL     1      16.964  33.190  16.308  1.00  0.00     0.032 C 
HETATM   35  C23 UNL     1      16.792  33.986  15.031  1.00  0.00     0.016 C 
HETATM   36  C24 UNL     1      16.232  31.849  16.016  1.00  0.00     0.016 C 
ENDBRANCH  24  34
ENDBRANCH  22  24
ENDBRANCH  19  20
ENDBRANCH   1  19
BRANCH   1  37
HETATM   37  O5  UNL     1      21.516  31.197  14.596  1.00  0.00    -0.381 OA
HETATM   38  C25 UNL     1      22.802  31.593  14.857  1.00  0.00     0.202 C 
ENDBRANCH   1  37
TORSDOF 15
ENDMDL
MODEL 5
REMARK VINA RESULT: -7.475676088      2.366      9.938
REMARK  15 active torsions:
REMARK  status: ('A' for Active; 'I' for Inactive)
REMARK    1  A    between atoms: C2_2  and  N1_3 
REMARK    2  A    between atoms: N1_3  and  C3_5 
REMARK    3  A    between atoms: C3_5  and  C4_6 
REMARK    4  A    between atoms: C3_5  and  C7_9 
REMARK    5  A    between atoms: C7_9  and  C8_10 
REMARK    6  A    between atoms: C7_9  and  N2_14 
REMARK    7  A    between atoms: C8_10  and  C9_11 
REMARK       I    between atoms: N2_14  and  C12_16 
REMARK    8  A    between atoms: C12_16  and  C13_18 
REMARK    9  A    between atoms: C13_18  and  C14_19 
REMARK   10  A    between atoms: C13_18  and  O5_37 
REMARK   11  A    between atoms: C14_19  and  C15_20 
REMARK       I    between atoms: C15_20  and  N3_22 
REMARK   12  A    between atoms: N3_22  and  C16_24 
REMARK   13  A    between atoms: C16_24  and  C22_34 
REMARK   14  A    between atoms: C17_25  and  O3_26 
REMARK   15  A    between atoms: C17_25  and  N4_28 
ROOT
HETATM    1  C13 UNL     1      19.901  30.803  14.627  1.00  0.00     0.221 C 
ENDROOT
BRANCH   1   2
HETATM    2  C12 UNL     1      19.389  31.498  15.863  1.00  0.00     0.251 C 
HETATM    3  N2  UNL     1      19.276  32.936  15.860  1.00  0.00    -0.327 N 
ATOM      4  H2  UNL     1      19.557  33.442  15.020  1.00  0.00     0.168 HD
HETATM    5  O1  UNL     1      19.068  30.901  16.861  1.00  0.00    -0.270 OA
BRANCH   3   6
HETATM    6  C7  UNL     1      18.786  33.696  16.983  1.00  0.00     0.035 C 
BRANCH   6   7
HETATM    7  C3  UNL     1      17.452  34.269  16.779  1.00  0.00     0.031 C 
BRANCH   7   8
HETATM    8  N1  UNL     1      16.644  34.401  17.959  1.00  0.00    -0.392 N 
ATOM      9  H1  UNL     1      16.002  33.680  18.288  1.00  0.00     0.159 HD
BRANCH   8  10
HETATM   10  C2  UNL     1      16.845  35.699  18.646  1.00  0.00     0.115 C 
HETATM   11  C1  UNL     1      16.712  36.815  17.600  1.00  0.00     0.026 C 
ENDBRANCH   8  10
ENDBRANCH   7   8
BRANCH   7  12
HETATM   12  C4  UNL     1      16.683  33.815  15.561  1.00  0.00     0.029 C 
HETATM   13  C5  UNL     1      15.703  32.726  15.895  1.00  0.00     0.016 C 
HETATM   14  C6  UNL     1      16.062  34.924  14.757  1.00  0.00     0.016 C 
ENDBRANCH   7  12
ENDBRANCH   6   7
BRANCH   6  15
HETATM   15  C8  UNL     1      19.873  34.534  17.564  1.00  0.00     0.063 C 
BRANCH  15  16
HETATM   16  C9  UNL     1      21.202  34.578  16.951  1.00  0.00    -0.017 C 
HETATM   17  C10 UNL     1      22.240  33.633  17.516  1.00  0.00     0.010 C 
HETATM   18  C11 UNL     1      21.753  35.993  17.309  1.00  0.00     0.010 C 
ENDBRANCH  15  16
ENDBRANCH   6  15
ENDBRANCH   3   6
ENDBRANCH   1   2
BRANCH   1  19
HETATM   19  C14 UNL     1      18.792  29.863  14.157  1.00  0.00     0.144 C 
BRANCH  19  20
HETATM   20  C15 UNL     1      19.105  29.131  12.904  1.00  0.00     0.225 C 
HETATM   21  O2  UNL     1      18.773  29.476  11.763  1.00  0.00    -0.273 OA
HETATM   22  N3  UNL     1      19.864  27.920  13.029  1.00  0.00    -0.327 N 
ATOM     23  H3  UNL     1      20.153  27.588  13.949  1.00  0.00     0.168 HD
BRANCH  22  24
HETATM   24  C16 UNL     1      20.220  27.166  11.829  1.00  0.00     0.066 C 
HETATM   25  C17 UNL     1      21.625  27.026  11.665  1.00  0.00     0.161 C 
BRANCH  25  26
HETATM   26  O3  UNL     1      22.284  28.136  12.069  1.00  0.00    -0.345 OA
ATOM     27  H3  UNL     1      23.141  28.197  11.665  1.00  0.00     0.219 HD
ENDBRANCH  25  26
BRANCH  25  28
HETATM   28  N4  UNL     1      22.526  26.073  11.205  1.00  0.00    -0.356 N 
HETATM   29  C18 UNL     1      22.329  24.986  10.290  1.00  0.00     0.151 C 
HETATM   30  C19 UNL     1      23.361  25.009   9.148  1.00  0.00     0.187 C 
HETATM   31  O4  UNL     1      24.167  26.131   9.281  1.00  0.00    -0.388 OA
HETATM   32  C20 UNL     1      24.860  26.050  10.515  1.00  0.00     0.187 C 
HETATM   33  C21 UNL     1      23.932  26.169  11.694  1.00  0.00     0.151 C 
ENDBRANCH  25  28
BRANCH  24  34
HETATM   34  C22 UNL     1      19.267  26.056  11.596  1.00  0.00     0.032 C 
HETATM   35  C23 UNL     1      18.018  26.131  12.450  1.00  0.00     0.016 C 
HETATM   36  C24 UNL     1      18.743  26.258  10.145  1.00  0.00     0.016 C 
ENDBRANCH  24  34
ENDBRANCH  22  24
ENDBRANCH  19  20
ENDBRANCH   1  19
BRANCH   1  37
HETATM   37  O5  UNL     1      21.063  30.220  14.827  1.00  0.00    -0.381 OA
HETATM   38  C25 UNL     1      22.224  30.852  14.466  1.00  0.00     0.202 C 
ENDBRANCH   1  37
TORSDOF 15
ENDMDL
