MODEL 1
REMARK VINA RESULT: -8.222161518      0.000      0.000
REMARK  16 active torsions:
REMARK  status: ('A' for Active; 'I' for Inactive)
REMARK    1  A    between atoms: C2_2  and  C3_3 
REMARK    2  A    between atoms: C3_3  and  C4_4 
REMARK    3  A    between atoms: C4_4  and  C5_5 
REMARK    4  A    between atoms: C5_5  and  C6_6 
REMARK    5  A    between atoms: C6_6  and  C7_7 
REMARK    6  A    between atoms: C7_7  and  C8_8 
REMARK    7  A    between atoms: C8_8  and  C9_9 
REMARK    8  A    between atoms: C9_9  and  C10_10 
REMARK    9  A    between atoms: C10_10  and  C11_11 
REMARK   10  A    between atoms: C11_11  and  C12_12 
REMARK       I    between atoms: C12_12  and  N1_14 
REMARK   11  A    between atoms: C16_18  and  C17_19 
REMARK       I    between atoms: C17_19  and  N2_21 
REMARK   12  A    between atoms: C18_23  and  C19_24 
REMARK   13  A    between atoms: C18_23  and  N3_27 
REMARK   14  A    between atoms: C22_29  and  O4_30 
REMARK   15  A    between atoms: C23_32  and  O5_33 
REMARK   16  A    between atoms: N4_36  and  O6_37 
ROOT
HETATM    1  C17 UNL     1      22.204  31.173  14.688  1.00  0.00     0.246 C 
HETATM    2  O2  UNL     1      23.050  31.826  14.041  1.00  0.00    -0.271 OA
HETATM    3  N2  UNL     1      21.543  30.101  14.093  1.00  0.00    -0.307 N 
ATOM      4  H2  UNL     1      21.925  29.185  14.330  1.00  0.00     0.170 HD
HETATM    5  C18 UNL     1      20.553  30.067  13.309  1.00  0.00     0.173 C 
ENDROOT
BRANCH   1   6
HETATM    6  C16 UNL     1      21.914  31.547  16.094  1.00  0.00     0.179 C 
HETATM    7  N1  UNL     1      20.593  32.104  16.245  1.00  0.00    -0.339 N 
HETATM    8  C12 UNL     1      19.365  31.496  16.543  1.00  0.00     0.220 C 
HETATM    9  C13 UNL     1      20.728  33.556  16.008  1.00  0.00     0.127 C 
HETATM   10  O1  UNL     1      19.384  30.250  16.743  1.00  0.00    -0.273 OA
HETATM   11  C14 UNL     1      22.088  33.922  16.481  1.00  0.00     0.022 C 
HETATM   12  C15 UNL     1      22.874  32.662  16.465  1.00  0.00     0.037 C 
BRANCH   8  13
HETATM   13  C11 UNL     1      18.098  32.243  16.630  1.00  0.00     0.103 C 
BRANCH  13  14
HETATM   14  C10 UNL     1      16.858  31.512  16.262  1.00  0.00     0.009 C 
BRANCH  14  15
HETATM   15  C9  UNL     1      15.760  32.459  15.865  1.00  0.00     0.000 C 
BRANCH  15  16
HETATM   16  C8  UNL     1      16.324  33.756  15.341  1.00  0.00     0.000 C 
BRANCH  16  17
HETATM   17  C7  UNL     1      15.571  34.961  15.862  1.00  0.00     0.000 C 
BRANCH  17  18
HETATM   18  C6  UNL     1      15.132  34.626  17.279  1.00  0.00     0.000 C 
BRANCH  18  19
HETATM   19  C5  UNL     1      16.122  35.129  18.298  1.00  0.00     0.000 C 
BRANCH  19  20
HETATM   20  C4  UNL     1      16.785  36.424  17.868  1.00  0.00     0.000 C 
BRANCH  20  21
HETATM   21  C3  UNL     1      18.295  36.283  17.851  1.00  0.00    -0.000 C 
BRANCH  21  22
HETATM   22  C2  UNL     1      18.654  35.145  18.786  1.00  0.00    -0.005 C 
HETATM   23  C1  UNL     1      20.103  35.316  19.248  1.00  0.00     0.005 C 
ENDBRANCH  21  22
ENDBRANCH  20  21
ENDBRANCH  19  20
ENDBRANCH  18  19
ENDBRANCH  17  18
ENDBRANCH  16  17
ENDBRANCH  15  16
ENDBRANCH  14  15
ENDBRANCH  13  14
ENDBRANCH   8  13
ENDBRANCH   1   6
BRANCH   5  24
HETATM   24  C19 UNL     1      19.901  31.274  12.877  1.00  0.00     0.190 C 
HETATM   25  C20 UNL     1      18.501  31.503  13.332  1.00  0.00     0.100 C 
HETATM   26  O3  UNL     1      20.451  32.117  12.152  1.00  0.00    -0.290 OA
ENDBRANCH   5  24
BRANCH   5  27
HETATM   27  N3  UNL     1      20.108  28.755  12.876  1.00  0.00    -0.249 N 
HETATM   28  C21 UNL     1      20.596  28.218  11.626  1.00  0.00     0.187 C 
HETATM   29  C22 UNL     1      20.020  26.866  11.409  1.00  0.00     0.168 C 
HETATM   30  C23 UNL     1      18.543  26.740  11.665  1.00  0.00     0.170 C 
HETATM   31  C24 UNL     1      18.161  27.210  13.049  1.00  0.00     0.211 C 
HETATM   32  N4  UNL     1      19.217  28.028  13.630  1.00  0.00    -0.195 N 
BRANCH  29  33
HETATM   33  O4  UNL     1      20.755  25.938  12.159  1.00  0.00    -0.391 OA
ATOM     34  H4  UNL     1      20.369  25.078  12.043  1.00  0.00     0.210 HD
ENDBRANCH  29  33
BRANCH  30  35
HETATM   35  O5  UNL     1      18.229  25.381  11.549  1.00  0.00    -0.391 OA
ATOM     36  H5  UNL     1      17.662  25.167  12.280  1.00  0.00     0.210 HD
ENDBRANCH  30  35
BRANCH  32  37
HETATM   37  O6  UNL     1      19.290  28.062  14.870  1.00  0.00    -0.272 OA
ATOM     38  H6  UNL     1      18.799  28.716  15.353  1.00  0.00     0.246 HD
ENDBRANCH  32  37
ENDBRANCH   5  27
TORSDOF 16
ENDMDL
MODEL 2
REMARK VINA RESULT: -7.961889684      0.553      1.069
REMARK  16 active torsions:
REMARK  status: ('A' for Active; 'I' for Inactive)
REMARK    1  A    between atoms: C2_2  and  C3_3 
REMARK    2  A    between atoms: C3_3  and  C4_4 
REMARK    3  A    between atoms: C4_4  and  C5_5 
REMARK    4  A    between atoms: C5_5  and  C6_6 
REMARK    5  A    between atoms: C6_6  and  C7_7 
REMARK    6  A    between atoms: C7_7  and  C8_8 
REMARK    7  A    between atoms: C8_8  and  C9_9 
REMARK    8  A    between atoms: C9_9  and  C10_10 
REMARK    9  A    between atoms: C10_10  and  C11_11 
REMARK   10  A    between atoms: C11_11  and  C12_12 
REMARK       I    between atoms: C12_12  and  N1_14 
REMARK   11  A    between atoms: C16_18  and  C17_19 
REMARK       I    between atoms: C17_19  and  N2_21 
REMARK   12  A    between atoms: C18_23  and  C19_24 
REMARK   13  A    between atoms: C18_23  and  N3_27 
REMARK   14  A    between atoms: C22_29  and  O4_30 
REMARK   15  A    between atoms: C23_32  and  O5_33 
REMARK   16  A    between atoms: N4_36  and  O6_37 
ROOT
HETATM    1  C17 UNL     1      22.201  31.158  14.700  1.00  0.00     0.246 C 
HETATM    2  O2  UNL     1      23.057  31.801  14.057  1.00  0.00    -0.271 OA
HETATM    3  N2  UNL     1      21.534  30.091  14.101  1.00  0.00    -0.307 N 
ATOM      4  H2  UNL     1      21.904  29.172  14.343  1.00  0.00     0.170 HD
HETATM    5  C18 UNL     1      20.549  30.065  13.311  1.00  0.00     0.173 C 
ENDROOT
BRANCH   1   6
HETATM    6  C16 UNL     1      21.905  31.537  16.103  1.00  0.00     0.179 C 
HETATM    7  N1  UNL     1      20.580  32.086  16.247  1.00  0.00    -0.339 N 
HETATM    8  C12 UNL     1      19.355  31.472  16.546  1.00  0.00     0.220 C 
HETATM    9  C13 UNL     1      20.706  33.537  16.004  1.00  0.00     0.127 C 
HETATM   10  O1  UNL     1      19.382  30.226  16.753  1.00  0.00    -0.273 OA
HETATM   11  C14 UNL     1      22.063  33.915  16.478  1.00  0.00     0.022 C 
HETATM   12  C15 UNL     1      22.857  32.660  16.470  1.00  0.00     0.037 C 
BRANCH   8  13
HETATM   13  C11 UNL     1      18.084  32.210  16.626  1.00  0.00     0.103 C 
BRANCH  13  14
HETATM   14  C10 UNL     1      16.850  31.471  16.255  1.00  0.00     0.009 C 
BRANCH  14  15
HETATM   15  C9  UNL     1      15.675  32.399  16.111  1.00  0.00     0.000 C 
BRANCH  15  16
HETATM   16  C8  UNL     1      16.097  33.721  15.517  1.00  0.00     0.000 C 
BRANCH  16  17
HETATM   17  C7  UNL     1      15.540  34.899  16.286  1.00  0.00     0.000 C 
BRANCH  17  18
HETATM   18  C6  UNL     1      15.492  34.486  17.749  1.00  0.00     0.000 C 
BRANCH  18  19
HETATM   19  C5  UNL     1      16.292  35.425  18.614  1.00  0.00     0.000 C 
BRANCH  19  20
HETATM   20  C4  UNL     1      17.773  35.388  18.292  1.00  0.00     0.000 C 
BRANCH  20  21
HETATM   21  C3  UNL     1      18.283  36.766  17.916  1.00  0.00    -0.000 C 
BRANCH  21  22
HETATM   22  C2  UNL     1      17.195  37.762  18.263  1.00  0.00    -0.005 C 
HETATM   23  C1  UNL     1      16.848  38.578  17.016  1.00  0.00     0.005 C 
ENDBRANCH  21  22
ENDBRANCH  20  21
ENDBRANCH  19  20
ENDBRANCH  18  19
ENDBRANCH  17  18
ENDBRANCH  16  17
ENDBRANCH  15  16
ENDBRANCH  14  15
ENDBRANCH  13  14
ENDBRANCH   8  13
ENDBRANCH   1   6
BRANCH   5  24
HETATM   24  C19 UNL     1      19.911  31.278  12.873  1.00  0.00     0.190 C 
HETATM   25  C20 UNL     1      18.522  31.537  13.344  1.00  0.00     0.100 C 
HETATM   26  O3  UNL     1      20.465  32.102  12.130  1.00  0.00    -0.290 OA
ENDBRANCH   5  24
BRANCH   5  27
HETATM   27  N3  UNL     1      20.094  28.757  12.877  1.00  0.00    -0.249 N 
HETATM   28  C21 UNL     1      20.572  28.220  11.624  1.00  0.00     0.187 C 
HETATM   29  C22 UNL     1      19.988  26.872  11.407  1.00  0.00     0.168 C 
HETATM   30  C23 UNL     1      18.511  26.754  11.669  1.00  0.00     0.170 C 
HETATM   31  C24 UNL     1      18.138  27.224  13.056  1.00  0.00     0.211 C 
HETATM   32  N4  UNL     1      19.201  28.034  13.634  1.00  0.00    -0.195 N 
BRANCH  29  33
HETATM   33  O4  UNL     1      20.720  25.938  12.152  1.00  0.00    -0.391 OA
ATOM     34  H4  UNL     1      21.621  25.947  11.852  1.00  0.00     0.210 HD
ENDBRANCH  29  33
BRANCH  30  35
HETATM   35  O5  UNL     1      18.188  25.397  11.551  1.00  0.00    -0.391 OA
ATOM     36  H5  UNL     1      17.292  25.355  11.240  1.00  0.00     0.210 HD
ENDBRANCH  30  35
BRANCH  32  37
HETATM   37  O6  UNL     1      19.280  28.065  14.874  1.00  0.00    -0.272 OA
ATOM     38  H6  UNL     1      18.524  28.323  15.388  1.00  0.00     0.246 HD
ENDBRANCH  32  37
ENDBRANCH   5  27
TORSDOF 16
ENDMDL
MODEL 3
REMARK VINA RESULT: -7.770161133      0.877      1.066
REMARK  16 active torsions:
REMARK  status: ('A' for Active; 'I' for Inactive)
REMARK    1  A    between atoms: C2_2  and  C3_3 
REMARK    2  A    between atoms: C3_3  and  C4_4 
REMARK    3  A    between atoms: C4_4  and  C5_5 
REMARK    4  A    between atoms: C5_5  and  C6_6 
REMARK    5  A    between atoms: C6_6  and  C7_7 
REMARK    6  A    between atoms: C7_7  and  C8_8 
REMARK    7  A    between atoms: C8_8  and  C9_9 
REMARK    8  A    between atoms: C9_9  and  C10_10 
REMARK    9  A    between atoms: C10_10  and  C11_11 
REMARK   10  A    between atoms: C11_11  and  C12_12 
REMARK       I    between atoms: C12_12  and  N1_14 
REMARK   11  A    between atoms: C16_18  and  C17_19 
REMARK       I    between atoms: C17_19  and  N2_21 
REMARK   12  A    between atoms: C18_23  and  C19_24 
REMARK   13  A    between atoms: C18_23  and  N3_27 
REMARK   14  A    between atoms: C22_29  and  O4_30 
REMARK   15  A    between atoms: C23_32  and  O5_33 
REMARK   16  A    between atoms: N4_36  and  O6_37 
ROOT
HETATM    1  C17 UNL     1      22.414  31.323  15.635  1.00  0.00     0.246 C 
HETATM    2  O2  UNL     1      23.467  31.879  15.257  1.00  0.00    -0.271 OA
HETATM    3  N2  UNL     1      21.848  30.305  14.871  1.00  0.00    -0.307 N 
ATOM      4  H2  UNL     1      22.056  29.363  15.201  1.00  0.00     0.170 HD
HETATM    5  C18 UNL     1      21.120  30.347  13.839  1.00  0.00     0.173 C 
ENDROOT
BRANCH   1   6
HETATM    6  C16 UNL     1      21.777  31.753  16.903  1.00  0.00     0.179 C 
HETATM    7  N1  UNL     1      20.487  32.358  16.684  1.00  0.00    -0.339 N 
HETATM    8  C12 UNL     1      19.200  31.802  16.659  1.00  0.00     0.220 C 
HETATM    9  C13 UNL     1      20.740  33.796  16.458  1.00  0.00     0.127 C 
HETATM   10  O1  UNL     1      19.114  30.563  16.886  1.00  0.00    -0.273 OA
HETATM   11  C14 UNL     1      21.940  34.133  17.267  1.00  0.00     0.022 C 
HETATM   12  C15 UNL     1      22.650  32.847  17.490  1.00  0.00     0.037 C 
BRANCH   8  13
HETATM   13  C11 UNL     1      17.988  32.593  16.388  1.00  0.00     0.103 C 
BRANCH  13  14
HETATM   14  C10 UNL     1      16.767  31.843  15.996  1.00  0.00     0.009 C 
BRANCH  14  15
HETATM   15  C9  UNL     1      15.564  32.742  15.938  1.00  0.00     0.000 C 
BRANCH  15  16
HETATM   16  C8  UNL     1      15.369  33.473  17.244  1.00  0.00     0.000 C 
BRANCH  16  17
HETATM   17  C7  UNL     1      14.907  34.899  17.039  1.00  0.00     0.000 C 
BRANCH  17  18
HETATM   18  C6  UNL     1      16.070  35.652  16.411  1.00  0.00     0.000 C 
BRANCH  18  19
HETATM   19  C5  UNL     1      16.346  36.944  17.135  1.00  0.00     0.000 C 
BRANCH  19  20
HETATM   20  C4  UNL     1      17.071  36.727  18.450  1.00  0.00     0.000 C 
BRANCH  20  21
HETATM   21  C3  UNL     1      18.121  35.641  18.320  1.00  0.00    -0.000 C 
BRANCH  21  22
HETATM   22  C2  UNL     1      19.386  36.152  18.981  1.00  0.00    -0.005 C 
HETATM   23  C1  UNL     1      19.891  37.376  18.214  1.00  0.00     0.005 C 
ENDBRANCH  21  22
ENDBRANCH  20  21
ENDBRANCH  19  20
ENDBRANCH  18  19
ENDBRANCH  17  18
ENDBRANCH  16  17
ENDBRANCH  15  16
ENDBRANCH  14  15
ENDBRANCH  13  14
ENDBRANCH   8  13
ENDBRANCH   1   6
BRANCH   5  24
HETATM   24  C19 UNL     1      20.735  31.601  13.247  1.00  0.00     0.190 C 
HETATM   25  C20 UNL     1      19.281  31.858  13.058  1.00  0.00     0.100 C 
HETATM   26  O3  UNL     1      21.556  32.461  12.895  1.00  0.00    -0.290 OA
ENDBRANCH   5  24
BRANCH   5  27
HETATM   27  N3  UNL     1      20.691  29.074  13.290  1.00  0.00    -0.249 N 
HETATM   28  C21 UNL     1      21.273  28.602  12.055  1.00  0.00     0.187 C 
HETATM   29  C22 UNL     1      20.695  27.278  11.708  1.00  0.00     0.168 C 
HETATM   30  C23 UNL     1      19.199  27.171  11.831  1.00  0.00     0.170 C 
HETATM   31  C24 UNL     1      18.710  27.566  13.204  1.00  0.00     0.211 C 
HETATM   32  N4  UNL     1      19.726  28.323  13.921  1.00  0.00    -0.195 N 
BRANCH  29  33
HETATM   33  O4  UNL     1      21.347  26.291  12.459  1.00  0.00    -0.391 OA
ATOM     34  H4  UNL     1      21.350  25.482  11.962  1.00  0.00     0.210 HD
ENDBRANCH  29  33
BRANCH  30  35
HETATM   35  O5  UNL     1      18.873  25.828  11.605  1.00  0.00    -0.391 OA
ATOM     36  H5  UNL     1      19.134  25.349  12.383  1.00  0.00     0.210 HD
ENDBRANCH  30  35
BRANCH  32  37
HETATM   37  O6  UNL     1      19.694  28.281  15.163  1.00  0.00    -0.272 OA
ATOM     38  H6  UNL     1      18.879  28.456  15.619  1.00  0.00     0.246 HD
ENDBRANCH  32  37
ENDBRANCH   5  27
TORSDOF 16
ENDMDL
MODEL 4
REMARK VINA RESULT: -7.597518004      2.714      8.165
REMARK  16 active torsions:
REMARK  status: ('A' for Active; 'I' for Inactive)
REMARK    1  A    between atoms: C2_2  and  C3_3 
REMARK    2  A    between atoms: C3_3  and  C4_4 
REMARK    3  A    between atoms: C4_4  and  C5_5 
REMARK    4  A    between atoms: C5_5  and  C6_6 
REMARK    5  A    between atoms: C6_6  and  C7_7 
REMARK    6  A    between atoms: C7_7  and  C8_8 
REMARK    7  A    between atoms: C8_8  and  C9_9 
REMARK    8  A    between atoms: C9_9  and  C10_10 
REMARK    9  A    between atoms: C10_10  and  C11_11 
REMARK   10  A    between atoms: C11_11  and  C12_12 
REMARK       I    between atoms: C12_12  and  N1_14 
REMARK   11  A    between atoms: C16_18  and  C17_19 
REMARK       I    between atoms: C17_19  and  N2_21 
REMARK   12  A    between atoms: C18_23  and  C19_24 
REMARK   13  A    between atoms: C18_23  and  N3_27 
REMARK   14  A    between atoms: C22_29  and  O4_30 
REMARK   15  A    between atoms: C23_32  and  O5_33 
REMARK   16  A    between atoms: N4_36  and  O6_37 
ROOT
HETATM    1  C17 UNL     1      21.136  31.778  13.661  1.00  0.00     0.246 C 
HETATM    2  O2  UNL     1      22.254  32.333  13.731  1.00  0.00    -0.271 OA
HETATM    3  N2  UNL     1      20.044  32.321  14.335  1.00  0.00    -0.307 N 
ATOM      4  H2  UNL     1      19.421  32.877  13.750  1.00  0.00     0.170 HD
HETATM    5  C18 UNL     1      19.692  32.241  15.545  1.00  0.00     0.173 C 
ENDROOT
BRANCH   1   6
HETATM    6  C16 UNL     1      20.984  30.545  12.853  1.00  0.00     0.179 C 
HETATM    7  N1  UNL     1      20.047  29.622  13.444  1.00  0.00    -0.339 N 
HETATM    8  C12 UNL     1      18.665  29.468  13.262  1.00  0.00     0.220 C 
HETATM    9  C13 UNL     1      20.828  28.779  14.371  1.00  0.00     0.127 C 
HETATM   10  O1  UNL     1      18.115  30.238  12.426  1.00  0.00    -0.273 OA
HETATM   11  C14 UNL     1      22.187  28.669  13.779  1.00  0.00     0.022 C 
HETATM   12  C15 UNL     1      22.325  29.835  12.868  1.00  0.00     0.037 C 
BRANCH   8  13
HETATM   13  C11 UNL     1      17.865  28.468  13.988  1.00  0.00     0.103 C 
BRANCH  13  14
HETATM   14  C10 UNL     1      17.833  27.093  13.428  1.00  0.00     0.009 C 
BRANCH  14  15
HETATM   15  C9  UNL     1      18.098  27.096  11.948  1.00  0.00     0.000 C 
BRANCH  15  16
HETATM   16  C8  UNL     1      19.130  26.059  11.578  1.00  0.00     0.000 C 
BRANCH  16  17
HETATM   17  C7  UNL     1      20.455  26.680  11.193  1.00  0.00     0.000 C 
BRANCH  17  18
HETATM   18  C6  UNL     1      21.525  25.633  11.456  1.00  0.00     0.000 C 
BRANCH  18  19
HETATM   19  C5  UNL     1      21.943  24.939  10.185  1.00  0.00     0.000 C 
BRANCH  19  20
HETATM   20  C4  UNL     1      23.451  24.841  10.048  1.00  0.00     0.000 C 
BRANCH  20  21
HETATM   21  C3  UNL     1      24.077  26.215   9.918  1.00  0.00    -0.000 C 
BRANCH  21  22
HETATM   22  C2  UNL     1      25.310  26.237  10.798  1.00  0.00    -0.005 C 
HETATM   23  C1  UNL     1      24.976  26.950  12.110  1.00  0.00     0.005 C 
ENDBRANCH  21  22
ENDBRANCH  20  21
ENDBRANCH  19  20
ENDBRANCH  18  19
ENDBRANCH  17  18
ENDBRANCH  16  17
ENDBRANCH  15  16
ENDBRANCH  14  15
ENDBRANCH  13  14
ENDBRANCH   8  13
ENDBRANCH   1   6
BRANCH   5  24
HETATM   24  C19 UNL     1      20.465  31.493  16.500  1.00  0.00     0.190 C 
HETATM   25  C20 UNL     1      21.742  32.092  16.977  1.00  0.00     0.100 C 
HETATM   26  O3  UNL     1      20.113  30.386  16.935  1.00  0.00    -0.290 OA
ENDBRANCH   5  24
BRANCH   5  27
HETATM   27  N3  UNL     1      18.473  32.935  15.918  1.00  0.00    -0.249 N 
HETATM   28  C21 UNL     1      18.553  34.111  16.752  1.00  0.00     0.187 C 
HETATM   29  C22 UNL     1      17.188  34.653  16.978  1.00  0.00     0.168 C 
HETATM   30  C23 UNL     1      16.139  33.639  17.345  1.00  0.00     0.170 C 
HETATM   31  C24 UNL     1      16.052  32.518  16.336  1.00  0.00     0.211 C 
HETATM   32  N4  UNL     1      17.244  32.475  15.501  1.00  0.00    -0.195 N 
BRANCH  29  33
HETATM   33  O4  UNL     1      16.810  35.404  15.858  1.00  0.00    -0.391 OA
ATOM     34  H4  UNL     1      15.873  35.312  15.729  1.00  0.00     0.210 HD
ENDBRANCH  29  33
BRANCH  30  35
HETATM   35  O5  UNL     1      14.915  34.317  17.371  1.00  0.00    -0.391 OA
ATOM     36  H5  UNL     1      14.913  34.906  16.626  1.00  0.00     0.210 HD
ENDBRANCH  30  35
BRANCH  32  37
HETATM   37  O6  UNL     1      17.124  31.987  14.365  1.00  0.00    -0.272 OA
ATOM     38  H6  UNL     1      16.519  32.380  13.746  1.00  0.00     0.246 HD
ENDBRANCH  32  37
ENDBRANCH   5  27
TORSDOF 16
ENDMDL
MODEL 5
REMARK VINA RESULT: -7.563310980      1.252      1.789
REMARK  16 active torsions:
REMARK  status: ('A' for Active; 'I' for Inactive)
REMARK    1  A    between atoms: C2_2  and  C3_3 
REMARK    2  A    between atoms: C3_3  and  C4_4 
REMARK    3  A    between atoms: C4_4  and  C5_5 
REMARK    4  A    between atoms: C5_5  and  C6_6 
REMARK    5  A    between atoms: C6_6  and  C7_7 
REMARK    6  A    between atoms: C7_7  and  C8_8 
REMARK    7  A    between atoms: C8_8  and  C9_9 
REMARK    8  A    between atoms: C9_9  and  C10_10 
REMARK    9  A    between atoms: C10_10  and  C11_11 
REMARK   10  A    between atoms: C11_11  and  C12_12 
REMARK       I    between atoms: C12_12  and  N1_14 
REMARK   11  A    between atoms: C16_18  and  C17_19 
REMARK       I    between atoms: C17_19  and  N2_21 
REMARK   12  A    between atoms: C18_23  and  C19_24 
REMARK   13  A    between atoms: C18_23  and  N3_27 
REMARK   14  A    between atoms: C22_29  and  O4_30 
REMARK   15  A    between atoms: C23_32  and  O5_33 
REMARK   16  A    between atoms: N4_36  and  O6_37 
ROOT
HETATM    1  C17 UNL     1      22.283  31.294  14.045  1.00  0.00     0.246 C 
HETATM    2  O2  UNL     1      22.694  32.306  13.438  1.00  0.00    -0.271 OA
HETATM    3  N2  UNL     1      21.916  30.153  13.334  1.00  0.00    -0.307 N 
ATOM      4  H2  UNL     1      22.628  29.424  13.308  1.00  0.00     0.170 HD
HETATM    5  C18 UNL     1      20.852  29.867  12.716  1.00  0.00     0.173 C 
ENDROOT
BRANCH   1   6
HETATM    6  C16 UNL     1      22.193  31.318  15.525  1.00  0.00     0.179 C 
HETATM    7  N1  UNL     1      20.891  31.734  15.982  1.00  0.00    -0.339 N 
HETATM    8  C12 UNL     1      19.743  30.992  16.295  1.00  0.00     0.220 C 
HETATM    9  C13 UNL     1      20.939  33.207  16.077  1.00  0.00     0.127 C 
HETATM   10  O1  UNL     1      19.835  29.736  16.192  1.00  0.00    -0.273 OA
HETATM   11  C14 UNL     1      22.341  33.549  16.431  1.00  0.00     0.022 C 
HETATM   12  C15 UNL     1      23.159  32.382  16.012  1.00  0.00     0.037 C 
BRANCH   8  13
HETATM   13  C11 UNL     1      18.479  31.610  16.728  1.00  0.00     0.103 C 
BRANCH  13  14
HETATM   14  C10 UNL     1      17.227  31.063  16.146  1.00  0.00     0.009 C 
BRANCH  14  15
HETATM   15  C9  UNL     1      16.390  32.146  15.524  1.00  0.00     0.000 C 
BRANCH  15  16
HETATM   16  C8  UNL     1      17.252  33.283  15.032  1.00  0.00     0.000 C 
BRANCH  16  17
HETATM   17  C7  UNL     1      16.493  34.590  14.965  1.00  0.00     0.000 C 
BRANCH  17  18
HETATM   18  C6  UNL     1      15.255  34.425  15.832  1.00  0.00     0.000 C 
BRANCH  18  19
HETATM   19  C5  UNL     1      15.254  35.394  16.986  1.00  0.00     0.000 C 
BRANCH  19  20
HETATM   20  C4  UNL     1      15.933  34.826  18.218  1.00  0.00     0.000 C 
BRANCH  20  21
HETATM   21  C3  UNL     1      17.149  35.648  18.597  1.00  0.00    -0.000 C 
BRANCH  21  22
HETATM   22  C2  UNL     1      18.375  34.804  18.307  1.00  0.00    -0.005 C 
HETATM   23  C1  UNL     1      19.552  35.331  19.130  1.00  0.00     0.005 C 
ENDBRANCH  21  22
ENDBRANCH  20  21
ENDBRANCH  19  20
ENDBRANCH  18  19
ENDBRANCH  17  18
ENDBRANCH  16  17
ENDBRANCH  15  16
ENDBRANCH  14  15
ENDBRANCH  13  14
ENDBRANCH   8  13
ENDBRANCH   1   6
BRANCH   5  24
HETATM   24  C19 UNL     1      19.750  30.789  12.657  1.00  0.00     0.190 C 
HETATM   25  C20 UNL     1      18.412  30.294  13.083  1.00  0.00     0.100 C 
HETATM   26  O3  UNL     1      19.871  31.962  12.271  1.00  0.00    -0.290 OA
ENDBRANCH   5  24
BRANCH   5  27
HETATM   27  N3  UNL     1      20.799  28.564  12.077  1.00  0.00    -0.249 N 
HETATM   28  C21 UNL     1      19.581  27.790  12.145  1.00  0.00     0.187 C 
HETATM   29  C22 UNL     1      19.762  26.514  11.407  1.00  0.00     0.168 C 
HETATM   30  C23 UNL     1      21.043  25.777  11.689  1.00  0.00     0.170 C 
HETATM   31  C24 UNL     1      22.260  26.642  11.461  1.00  0.00     0.211 C 
HETATM   32  N4  UNL     1      21.898  28.052  11.426  1.00  0.00    -0.195 N 
BRANCH  29  33
HETATM   33  O4  UNL     1      19.597  26.758  10.038  1.00  0.00    -0.391 OA
ATOM     34  H4  UNL     1      18.857  26.252   9.724  1.00  0.00     0.210 HD
ENDBRANCH  29  33
BRANCH  30  35
HETATM   35  O5  UNL     1      21.087  24.695  10.801  1.00  0.00    -0.391 OA
ATOM     36  H5  UNL     1      21.867  24.197  11.017  1.00  0.00     0.210 HD
ENDBRANCH  30  35
BRANCH  32  37
HETATM   37  O6  UNL     1      22.636  28.812  10.777  1.00  0.00    -0.272 OA
ATOM     38  H6  UNL     1      22.785  29.699  11.084  1.00  0.00     0.246 HD
ENDBRANCH  32  37
ENDBRANCH   5  27
TORSDOF 16
ENDMDL
