MODEL 1
REMARK VINA RESULT: -8.905676923      0.000      0.000
REMARK  13 active torsions:
REMARK  status: ('A' for Active; 'I' for Inactive)
REMARK    1  A    between atoms: C3_3  and  O1_4 
REMARK    2  A    between atoms: O1_4  and  C4_5 
REMARK    3  A    between atoms: C4_5  and  C5_6 
REMARK    4  A    between atoms: C5_6  and  O2_7 
REMARK    5  A    between atoms: O2_7  and  C6_8 
REMARK    6  A    between atoms: C6_8  and  C7_9 
REMARK    7  A    between atoms: C7_9  and  O3_10 
REMARK    8  A    between atoms: O3_10  and  C8_11 
REMARK    9  A    between atoms: C8_11  and  C9_12 
REMARK   10  A    between atoms: C9_12  and  N1_13 
REMARK   11  A    between atoms: C13_22  and  N4_23 
REMARK       I    between atoms: N4_23  and  C14_25 
REMARK   12  A    between atoms: C14_25  and  C15_27 
REMARK   13  A    between atoms: C15_27  and  C16_28 
ROOT
HETATM    1  C1  UNL     1      25.035  26.908  12.114  1.00  0.00     0.014 C 
HETATM    2  C2  UNL     1      24.067  26.464  11.556  1.00  0.00    -0.091 C 
HETATM    3  C3  UNL     1      22.872  25.909  10.841  1.00  0.00     0.267 C 
ENDROOT
BRANCH   3   4
HETATM    4  O1  UNL     1      22.297  25.035  11.687  1.00  0.00    -0.349 OA
BRANCH   4   5
HETATM    5  C4  UNL     1      21.064  24.648  11.468  1.00  0.00     0.159 C 
BRANCH   5   6
HETATM    6  C5  UNL     1      19.945  25.478  11.063  1.00  0.00     0.158 C 
BRANCH   6   7
HETATM    7  O2  UNL     1      18.735  25.571  11.602  1.00  0.00    -0.359 OA
BRANCH   7   8
HETATM    8  C6  UNL     1      18.227  26.719  12.042  1.00  0.00     0.200 C 
BRANCH   8   9
HETATM    9  C7  UNL     1      18.747  27.964  11.361  1.00  0.00     0.194 C 
BRANCH   9  10
HETATM   10  O3  UNL     1      19.418  28.867  12.076  1.00  0.00    -0.387 OA
BRANCH  10  11
HETATM   11  C8  UNL     1      20.765  28.927  12.005  1.00  0.00     0.187 C 
BRANCH  11  12
HETATM   12  C9  UNL     1      21.473  28.680  13.326  1.00  0.00     0.152 C 
BRANCH  12  13
HETATM   13  N1  UNL     1      21.376  29.794  14.251  1.00  0.00    -0.346 N 
HETATM   14  C10 UNL     1      22.091  31.005  13.910  1.00  0.00     0.133 C 
HETATM   15  C11 UNL     1      22.924  31.514  15.053  1.00  0.00     0.095 C 
HETATM   16  C12 UNL     1      22.079  32.111  16.131  1.00  0.00     0.073 C 
HETATM   17  N2  UNL     1      22.333  33.357  16.390  1.00  0.00    -0.389 N 
HETATM   18  N3  UNL     1      21.062  31.483  16.869  1.00  0.00    -0.351 N 
ATOM     19  H22 UNL     1      23.071  33.814  15.854  1.00  0.00     0.157 HD
ATOM     20  H21 UNL     1      21.756  33.765  17.127  1.00  0.00     0.157 HD
HETATM   21  C13 UNL     1      20.150  30.442  16.501  1.00  0.00     0.279 C 
ATOM     22  H3  UNL     1      20.956  31.824  17.824  1.00  0.00     0.163 HD
HETATM   23  C26 UNL     1      20.591  29.566  15.396  1.00  0.00     0.262 C 
HETATM   24  O5  UNL     1      20.175  28.364  15.497  1.00  0.00    -0.269 OA
BRANCH  21  25
HETATM   25  N4  UNL     1      18.819  30.961  16.257  1.00  0.00    -0.332 N 
HETATM   26  C14 UNL     1      18.632  31.945  15.230  1.00  0.00     0.220 C 
HETATM   27  O4  UNL     1      19.648  32.305  14.591  1.00  0.00    -0.274 OA
ATOM     28  H4  UNL     1      18.026  30.631  16.808  1.00  0.00     0.165 HD
BRANCH  26  29
HETATM   29  C15 UNL     1      17.301  32.499  14.957  1.00  0.00     0.112 C 
BRANCH  29  30
HETATM   30  C16 UNL     1      16.818  33.580  15.862  1.00  0.00    -0.031 C 
HETATM   31  C17 UNL     1      17.903  33.976  16.809  1.00  0.00     0.014 C 
HETATM   32  C18 UNL     1      17.478  35.134  17.698  1.00  0.00    -0.013 C 
HETATM   33  C19 UNL     1      16.946  36.247  16.846  1.00  0.00     0.009 C 
HETATM   34  C23 UNL     1      16.376  34.580  18.587  1.00  0.00     0.009 C 
HETATM   35  C20 UNL     1      15.763  35.803  16.030  1.00  0.00    -0.013 C 
HETATM   36  C21 UNL     1      14.665  35.235  16.885  1.00  0.00     0.009 C 
HETATM   37  C25 UNL     1      16.235  34.707  15.084  1.00  0.00     0.014 C 
HETATM   38  C22 UNL     1      15.263  34.096  17.695  1.00  0.00    -0.013 C 
HETATM   39  C24 UNL     1      15.684  33.026  16.756  1.00  0.00     0.014 C 
ENDBRANCH  29  30
ENDBRANCH  26  29
ENDBRANCH  21  25
ENDBRANCH  12  13
ENDBRANCH  11  12
ENDBRANCH  10  11
ENDBRANCH   9  10
ENDBRANCH   8   9
ENDBRANCH   7   8
ENDBRANCH   6   7
ENDBRANCH   5   6
ENDBRANCH   4   5
ENDBRANCH   3   4
TORSDOF 13
ENDMDL
MODEL 2
REMARK VINA RESULT: -8.847713504      0.264      1.241
REMARK  13 active torsions:
REMARK  status: ('A' for Active; 'I' for Inactive)
REMARK    1  A    between atoms: C3_3  and  O1_4 
REMARK    2  A    between atoms: O1_4  and  C4_5 
REMARK    3  A    between atoms: C4_5  and  C5_6 
REMARK    4  A    between atoms: C5_6  and  O2_7 
REMARK    5  A    between atoms: O2_7  and  C6_8 
REMARK    6  A    between atoms: C6_8  and  C7_9 
REMARK    7  A    between atoms: C7_9  and  O3_10 
REMARK    8  A    between atoms: O3_10  and  C8_11 
REMARK    9  A    between atoms: C8_11  and  C9_12 
REMARK   10  A    between atoms: C9_12  and  N1_13 
REMARK   11  A    between atoms: C13_22  and  N4_23 
REMARK       I    between atoms: N4_23  and  C14_25 
REMARK   12  A    between atoms: C14_25  and  C15_27 
REMARK   13  A    between atoms: C15_27  and  C16_28 
ROOT
HETATM    1  C1  UNL     1      25.005  27.076  12.120  1.00  0.00     0.014 C 
HETATM    2  C2  UNL     1      24.071  26.584  11.544  1.00  0.00    -0.091 C 
HETATM    3  C3  UNL     1      22.918  25.970  10.808  1.00  0.00     0.267 C 
ENDROOT
BRANCH   3   4
HETATM    4  O1  UNL     1      22.388  25.050  11.634  1.00  0.00    -0.349 OA
BRANCH   4   5
HETATM    5  C4  UNL     1      21.085  24.915  11.692  1.00  0.00     0.159 C 
BRANCH   5   6
HETATM    6  C5  UNL     1      20.122  25.280  10.670  1.00  0.00     0.158 C 
BRANCH   6   7
HETATM    7  O2  UNL     1      18.822  25.519  10.794  1.00  0.00    -0.359 OA
BRANCH   7   8
HETATM    8  C6  UNL     1      18.324  26.337  11.717  1.00  0.00     0.200 C 
BRANCH   8   9
HETATM    9  C7  UNL     1      18.575  27.810  11.485  1.00  0.00     0.194 C 
BRANCH   9  10
HETATM   10  O3  UNL     1      19.329  28.487  12.352  1.00  0.00    -0.387 OA
BRANCH  10  11
HETATM   11  C8  UNL     1      20.658  28.609  12.146  1.00  0.00     0.187 C 
BRANCH  11  12
HETATM   12  C9  UNL     1      21.500  28.484  13.404  1.00  0.00     0.152 C 
BRANCH  12  13
HETATM   13  N1  UNL     1      21.431  29.649  14.265  1.00  0.00    -0.346 N 
HETATM   14  C10 UNL     1      22.173  30.822  13.858  1.00  0.00     0.133 C 
HETATM   15  C11 UNL     1      23.018  31.374  14.970  1.00  0.00     0.095 C 
HETATM   16  C12 UNL     1      22.189  32.050  16.014  1.00  0.00     0.073 C 
HETATM   17  N2  UNL     1      22.472  33.303  16.203  1.00  0.00    -0.389 N 
HETATM   18  N3  UNL     1      21.159  31.488  16.785  1.00  0.00    -0.351 N 
ATOM     19  H22 UNL     1      23.220  33.712  15.642  1.00  0.00     0.157 HD
ATOM     20  H21 UNL     1      21.906  33.764  16.915  1.00  0.00     0.157 HD
HETATM   21  C13 UNL     1      20.223  30.450  16.476  1.00  0.00     0.279 C 
ATOM     22  H3  UNL     1      21.062  31.884  17.720  1.00  0.00     0.163 HD
HETATM   23  C26 UNL     1      20.642  29.504  15.421  1.00  0.00     0.262 C 
HETATM   24  O5  UNL     1      20.197  28.319  15.589  1.00  0.00    -0.269 OA
BRANCH  21  25
HETATM   25  N4  UNL     1      18.904  30.985  16.203  1.00  0.00    -0.332 N 
HETATM   26  C14 UNL     1      18.754  31.989  15.189  1.00  0.00     0.220 C 
HETATM   27  O4  UNL     1      19.791  32.350  14.585  1.00  0.00    -0.274 OA
ATOM     28  H4  UNL     1      18.092  30.653  16.725  1.00  0.00     0.165 HD
BRANCH  26  29
HETATM   29  C15 UNL     1      17.437  32.559  14.887  1.00  0.00     0.112 C 
BRANCH  29  30
HETATM   30  C16 UNL     1      16.909  33.583  15.834  1.00  0.00    -0.031 C 
HETATM   31  C17 UNL     1      15.830  32.991  16.678  1.00  0.00     0.014 C 
HETATM   32  C18 UNL     1      15.319  33.979  17.713  1.00  0.00    -0.013 C 
HETATM   33  C19 UNL     1      16.479  34.543  18.477  1.00  0.00     0.009 C 
HETATM   34  C23 UNL     1      14.629  35.078  16.921  1.00  0.00     0.009 C 
HETATM   35  C20 UNL     1      17.449  35.250  17.571  1.00  0.00    -0.013 C 
HETATM   36  C21 UNL     1      16.787  36.330  16.762  1.00  0.00     0.009 C 
HETATM   37  C25 UNL     1      18.015  34.219  16.602  1.00  0.00     0.014 C 
HETATM   38  C22 UNL     1      15.645  35.685  15.992  1.00  0.00    -0.013 C 
HETATM   39  C24 UNL     1      16.222  34.712  15.031  1.00  0.00     0.014 C 
ENDBRANCH  29  30
ENDBRANCH  26  29
ENDBRANCH  21  25
ENDBRANCH  12  13
ENDBRANCH  11  12
ENDBRANCH  10  11
ENDBRANCH   9  10
ENDBRANCH   8   9
ENDBRANCH   7   8
ENDBRANCH   6   7
ENDBRANCH   5   6
ENDBRANCH   4   5
ENDBRANCH   3   4
TORSDOF 13
ENDMDL
MODEL 3
REMARK VINA RESULT: -8.706275577      0.898      2.643
REMARK  13 active torsions:
REMARK  status: ('A' for Active; 'I' for Inactive)
REMARK    1  A    between atoms: C3_3  and  O1_4 
REMARK    2  A    between atoms: O1_4  and  C4_5 
REMARK    3  A    between atoms: C4_5  and  C5_6 
REMARK    4  A    between atoms: C5_6  and  O2_7 
REMARK    5  A    between atoms: O2_7  and  C6_8 
REMARK    6  A    between atoms: C6_8  and  C7_9 
REMARK    7  A    between atoms: C7_9  and  O3_10 
REMARK    8  A    between atoms: O3_10  and  C8_11 
REMARK    9  A    between atoms: C8_11  and  C9_12 
REMARK   10  A    between atoms: C9_12  and  N1_13 
REMARK   11  A    between atoms: C13_22  and  N4_23 
REMARK       I    between atoms: N4_23  and  C14_25 
REMARK   12  A    between atoms: C14_25  and  C15_27 
REMARK   13  A    between atoms: C15_27  and  C16_28 
ROOT
HETATM    1  C1  UNL     1      17.552  29.764  12.452  1.00  0.00     0.014 C 
HETATM    2  C2  UNL     1      17.667  28.629  12.831  1.00  0.00    -0.091 C 
HETATM    3  C3  UNL     1      17.794  27.217  13.319  1.00  0.00     0.267 C 
ENDROOT
BRANCH   3   4
HETATM    4  O1  UNL     1      17.879  26.443  12.221  1.00  0.00    -0.349 OA
BRANCH   4   5
HETATM    5  C4  UNL     1      18.911  26.571  11.423  1.00  0.00     0.159 C 
BRANCH   5   6
HETATM    6  C5  UNL     1      20.025  25.653  11.280  1.00  0.00     0.158 C 
BRANCH   6   7
HETATM    7  O2  UNL     1      21.149  25.805  10.588  1.00  0.00    -0.359 OA
BRANCH   7   8
HETATM    8  C6  UNL     1      22.317  25.312  10.993  1.00  0.00     0.200 C 
BRANCH   8   9
HETATM    9  C7  UNL     1      23.226  26.289  11.701  1.00  0.00     0.194 C 
BRANCH   9  10
HETATM   10  O3  UNL     1      22.895  27.580  11.737  1.00  0.00    -0.387 OA
BRANCH  10  11
HETATM   11  C8  UNL     1      22.784  28.221  12.921  1.00  0.00     0.187 C 
BRANCH  11  12
HETATM   12  C9  UNL     1      21.364  28.616  13.287  1.00  0.00     0.152 C 
BRANCH  12  13
HETATM   13  N1  UNL     1      21.294  29.738  14.204  1.00  0.00    -0.346 N 
HETATM   14  C10 UNL     1      22.032  30.932  13.852  1.00  0.00     0.133 C 
HETATM   15  C11 UNL     1      22.880  31.432  14.987  1.00  0.00     0.095 C 
HETATM   16  C12 UNL     1      22.053  32.053  16.066  1.00  0.00     0.073 C 
HETATM   17  N2  UNL     1      22.334  33.296  16.315  1.00  0.00    -0.389 N 
HETATM   18  N3  UNL     1      21.028  31.451  16.813  1.00  0.00    -0.351 N 
ATOM     19  H22 UNL     1      23.079  33.734  15.772  1.00  0.00     0.157 HD
ATOM     20  H21 UNL     1      21.769  33.719  17.052  1.00  0.00     0.157 HD
HETATM   21  C13 UNL     1      20.093  30.426  16.457  1.00  0.00     0.279 C 
ATOM     22  H3  UNL     1      20.934  31.800  17.766  1.00  0.00     0.163 HD
HETATM   23  C26 UNL     1      20.511  29.534  15.355  1.00  0.00     0.262 C 
HETATM   24  O5  UNL     1      20.070  28.341  15.467  1.00  0.00    -0.269 OA
BRANCH  21  25
HETATM   25  N4  UNL     1      18.772  30.970  16.216  1.00  0.00    -0.332 N 
HETATM   26  C14 UNL     1      18.607  31.984  15.214  1.00  0.00     0.220 C 
HETATM   27  O4  UNL     1      19.634  32.346  14.593  1.00  0.00    -0.274 OA
ATOM     28  H4  UNL     1      17.970  30.637  16.751  1.00  0.00     0.165 HD
BRANCH  26  29
HETATM   29  C15 UNL     1      17.286  32.564  14.945  1.00  0.00     0.112 C 
BRANCH  29  30
HETATM   30  C16 UNL     1      16.822  33.645  15.860  1.00  0.00    -0.031 C 
HETATM   31  C17 UNL     1      17.939  34.074  16.752  1.00  0.00     0.014 C 
HETATM   32  C18 UNL     1      17.531  35.233  17.648  1.00  0.00    -0.013 C 
HETATM   33  C19 UNL     1      16.937  36.325  16.809  1.00  0.00     0.009 C 
HETATM   34  C23 UNL     1      16.481  34.666  18.591  1.00  0.00     0.009 C 
HETATM   35  C20 UNL     1      15.728  35.848  16.052  1.00  0.00    -0.013 C 
HETATM   36  C21 UNL     1      14.682  35.267  16.961  1.00  0.00     0.009 C 
HETATM   37  C25 UNL     1      16.181  34.751  15.097  1.00  0.00     0.014 C 
HETATM   38  C22 UNL     1      15.340  34.150  17.755  1.00  0.00    -0.013 C 
HETATM   39  C24 UNL     1      15.741  33.078  16.809  1.00  0.00     0.014 C 
ENDBRANCH  29  30
ENDBRANCH  26  29
ENDBRANCH  21  25
ENDBRANCH  12  13
ENDBRANCH  11  12
ENDBRANCH  10  11
ENDBRANCH   9  10
ENDBRANCH   8   9
ENDBRANCH   7   8
ENDBRANCH   6   7
ENDBRANCH   5   6
ENDBRANCH   4   5
ENDBRANCH   3   4
TORSDOF 13
ENDMDL
MODEL 4
REMARK VINA RESULT: -8.687140485      0.917      2.801
REMARK  13 active torsions:
REMARK  status: ('A' for Active; 'I' for Inactive)
REMARK    1  A    between atoms: C3_3  and  O1_4 
REMARK    2  A    between atoms: O1_4  and  C4_5 
REMARK    3  A    between atoms: C4_5  and  C5_6 
REMARK    4  A    between atoms: C5_6  and  O2_7 
REMARK    5  A    between atoms: O2_7  and  C6_8 
REMARK    6  A    between atoms: C6_8  and  C7_9 
REMARK    7  A    between atoms: C7_9  and  O3_10 
REMARK    8  A    between atoms: O3_10  and  C8_11 
REMARK    9  A    between atoms: C8_11  and  C9_12 
REMARK   10  A    between atoms: C9_12  and  N1_13 
REMARK   11  A    between atoms: C13_22  and  N4_23 
REMARK       I    between atoms: N4_23  and  C14_25 
REMARK   12  A    between atoms: C14_25  and  C15_27 
REMARK   13  A    between atoms: C15_27  and  C16_28 
ROOT
HETATM    1  C1  UNL     1      17.781  29.491  12.636  1.00  0.00     0.014 C 
HETATM    2  C2  UNL     1      17.802  28.671  11.757  1.00  0.00    -0.091 C 
HETATM    3  C3  UNL     1      17.842  27.661  10.650  1.00  0.00     0.267 C 
ENDROOT
BRANCH   3   4
HETATM    4  O1  UNL     1      17.883  26.452  11.241  1.00  0.00    -0.349 OA
BRANCH   4   5
HETATM    5  C4  UNL     1      19.038  25.853  11.394  1.00  0.00     0.159 C 
BRANCH   5   6
HETATM    6  C5  UNL     1      20.052  25.634  10.379  1.00  0.00     0.158 C 
BRANCH   6   7
HETATM    7  O2  UNL     1      21.204  24.982  10.476  1.00  0.00    -0.359 OA
BRANCH   7   8
HETATM    8  C6  UNL     1      22.117  25.264  11.402  1.00  0.00     0.200 C 
BRANCH   8   9
HETATM    9  C7  UNL     1      22.945  26.501  11.144  1.00  0.00     0.194 C 
BRANCH   9  10
HETATM   10  O3  UNL     1      22.978  27.467  12.064  1.00  0.00    -0.387 OA
BRANCH  10  11
HETATM   11  C8  UNL     1      21.965  28.357  12.151  1.00  0.00     0.187 C 
BRANCH  11  12
HETATM   12  C9  UNL     1      21.154  28.258  13.430  1.00  0.00     0.152 C 
BRANCH  12  13
HETATM   13  N1  UNL     1      21.182  29.469  14.229  1.00  0.00    -0.346 N 
HETATM   14  C10 UNL     1      21.960  30.579  13.725  1.00  0.00     0.133 C 
HETATM   15  C11 UNL     1      22.884  31.145  14.766  1.00  0.00     0.095 C 
HETATM   16  C12 UNL     1      22.139  31.916  15.807  1.00  0.00     0.073 C 
HETATM   17  N2  UNL     1      22.492  33.161  15.915  1.00  0.00    -0.389 N 
HETATM   18  N3  UNL     1      21.121  31.449  16.654  1.00  0.00    -0.351 N 
ATOM     19  H22 UNL     1      23.232  33.501  15.300  1.00  0.00     0.157 HD
ATOM     20  H21 UNL     1      21.983  33.687  16.626  1.00  0.00     0.157 HD
HETATM   21  C13 UNL     1      20.121  30.445  16.445  1.00  0.00     0.279 C 
ATOM     22  H3  UNL     1      21.088  31.898  17.569  1.00  0.00     0.163 HD
HETATM   23  C26 UNL     1      20.443  29.425  15.425  1.00  0.00     0.262 C 
HETATM   24  O5  UNL     1      19.950  28.275  15.678  1.00  0.00    -0.269 OA
BRANCH  21  25
HETATM   25  N4  UNL     1      18.818  31.032  16.202  1.00  0.00    -0.332 N 
HETATM   26  C14 UNL     1      18.667  31.976  15.133  1.00  0.00     0.220 C 
HETATM   27  O4  UNL     1      19.688  32.243  14.456  1.00  0.00    -0.274 OA
ATOM     28  H4  UNL     1      18.020  30.778  16.784  1.00  0.00     0.165 HD
BRANCH  26  29
HETATM   29  C15 UNL     1      17.366  32.597  14.860  1.00  0.00     0.112 C 
BRANCH  29  30
HETATM   30  C16 UNL     1      16.886  33.620  15.832  1.00  0.00    -0.031 C 
HETATM   31  C17 UNL     1      15.820  33.038  16.701  1.00  0.00     0.014 C 
HETATM   32  C18 UNL     1      15.359  34.023  17.762  1.00  0.00    -0.013 C 
HETATM   33  C19 UNL     1      16.551  34.558  18.497  1.00  0.00     0.009 C 
HETATM   34  C23 UNL     1      14.666  35.143  17.002  1.00  0.00     0.009 C 
HETATM   35  C20 UNL     1      17.507  35.257  17.570  1.00  0.00    -0.013 C 
HETATM   36  C21 UNL     1      16.842  36.358  16.793  1.00  0.00     0.009 C 
HETATM   37  C25 UNL     1      18.025  34.227  16.573  1.00  0.00     0.014 C 
HETATM   38  C22 UNL     1      15.666  35.743  16.050  1.00  0.00    -0.013 C 
HETATM   39  C24 UNL     1      16.196  34.769  15.062  1.00  0.00     0.014 C 
ENDBRANCH  29  30
ENDBRANCH  26  29
ENDBRANCH  21  25
ENDBRANCH  12  13
ENDBRANCH  11  12
ENDBRANCH  10  11
ENDBRANCH   9  10
ENDBRANCH   8   9
ENDBRANCH   7   8
ENDBRANCH   6   7
ENDBRANCH   5   6
ENDBRANCH   4   5
ENDBRANCH   3   4
TORSDOF 13
ENDMDL
MODEL 5
REMARK VINA RESULT: -8.377843574      3.431      6.133
REMARK  13 active torsions:
REMARK  status: ('A' for Active; 'I' for Inactive)
REMARK    1  A    between atoms: C3_3  and  O1_4 
REMARK    2  A    between atoms: O1_4  and  C4_5 
REMARK    3  A    between atoms: C4_5  and  C5_6 
REMARK    4  A    between atoms: C5_6  and  O2_7 
REMARK    5  A    between atoms: O2_7  and  C6_8 
REMARK    6  A    between atoms: C6_8  and  C7_9 
REMARK    7  A    between atoms: C7_9  and  O3_10 
REMARK    8  A    between atoms: O3_10  and  C8_11 
REMARK    9  A    between atoms: C8_11  and  C9_12 
REMARK   10  A    between atoms: C9_12  and  N1_13 
REMARK   11  A    between atoms: C13_22  and  N4_23 
REMARK       I    between atoms: N4_23  and  C14_25 
REMARK   12  A    between atoms: C14_25  and  C15_27 
REMARK   13  A    between atoms: C15_27  and  C16_28 
ROOT
HETATM    1  C1  UNL     1      17.868  27.470  13.667  1.00  0.00     0.014 C 
HETATM    2  C2  UNL     1      17.801  27.844  12.527  1.00  0.00    -0.091 C 
HETATM    3  C3  UNL     1      17.717  28.332  11.112  1.00  0.00     0.267 C 
ENDROOT
BRANCH   3   4
HETATM    4  O1  UNL     1      18.592  27.594  10.404  1.00  0.00    -0.349 OA
BRANCH   4   5
HETATM    5  C4  UNL     1      18.205  27.046   9.278  1.00  0.00     0.159 C 
BRANCH   5   6
HETATM    6  C5  UNL     1      17.546  25.764   9.111  1.00  0.00     0.158 C 
BRANCH   6   7
HETATM    7  O2  UNL     1      17.996  24.664   8.519  1.00  0.00    -0.359 OA
BRANCH   7   8
HETATM    8  C6  UNL     1      17.933  24.474   7.204  1.00  0.00     0.200 C 
BRANCH   8   9
HETATM    9  C7  UNL     1      19.106  25.006   6.413  1.00  0.00     0.194 C 
BRANCH   9  10
HETATM   10  O3  UNL     1      20.266  24.349   6.446  1.00  0.00    -0.387 OA
BRANCH  10  11
HETATM   11  C8  UNL     1      21.312  24.852   7.135  1.00  0.00     0.187 C 
BRANCH  11  12
HETATM   12  C9  UNL     1      21.556  24.185   8.478  1.00  0.00     0.152 C 
BRANCH  12  13
HETATM   13  N1  UNL     1      22.312  25.007   9.404  1.00  0.00    -0.346 N 
HETATM   14  C10 UNL     1      23.677  25.328   9.047  1.00  0.00     0.133 C 
HETATM   15  C11 UNL     1      24.637  25.057  10.170  1.00  0.00     0.095 C 
HETATM   16  C12 UNL     1      24.506  26.063  11.267  1.00  0.00     0.073 C 
HETATM   17  N2  UNL     1      25.588  26.733  11.519  1.00  0.00    -0.389 N 
HETATM   18  N3  UNL     1      23.362  26.356  12.028  1.00  0.00    -0.351 N 
ATOM     19  H22 UNL     1      26.419  26.520  10.967  1.00  0.00     0.157 HD
ATOM     20  H21 UNL     1      25.498  27.420  12.268  1.00  0.00     0.157 HD
HETATM   21  C13 UNL     1      21.974  26.306  11.681  1.00  0.00     0.279 C 
ATOM     22  H3  UNL     1      23.551  26.653  12.985  1.00  0.00     0.163 HD
HETATM   23  C26 UNL     1      21.624  25.402  10.567  1.00  0.00     0.262 C 
HETATM   24  O5  UNL     1      20.467  24.874  10.678  1.00  0.00    -0.269 OA
BRANCH  21  25
HETATM   25  N4  UNL     1      21.430  27.633  11.467  1.00  0.00    -0.332 N 
HETATM   26  C14 UNL     1      21.665  28.650  12.451  1.00  0.00     0.220 C 
HETATM   27  O4  UNL     1      22.340  28.328  13.456  1.00  0.00    -0.274 OA
ATOM     28  H4  UNL     1      20.887  27.840  10.628  1.00  0.00     0.165 HD
BRANCH  26  29
HETATM   29  C15 UNL     1      21.126  30.003  12.273  1.00  0.00     0.112 C 
BRANCH  29  30
HETATM   30  C16 UNL     1      20.520  30.654  13.469  1.00  0.00    -0.031 C 
HETATM   31  C17 UNL     1      20.383  29.661  14.576  1.00  0.00     0.014 C 
HETATM   32  C18 UNL     1      19.843  30.303  15.844  1.00  0.00    -0.013 C 
HETATM   33  C19 UNL     1      20.664  31.512  16.178  1.00  0.00     0.009 C 
HETATM   34  C23 UNL     1      18.416  30.713  15.516  1.00  0.00     0.009 C 
HETATM   35  C20 UNL     1      20.633  32.528  15.070  1.00  0.00    -0.013 C 
HETATM   36  C21 UNL     1      19.231  32.937  14.714  1.00  0.00     0.009 C 
HETATM   37  C25 UNL     1      21.262  31.891  13.837  1.00  0.00     0.014 C 
HETATM   38  C22 UNL     1      18.466  31.672  14.357  1.00  0.00    -0.013 C 
HETATM   39  C24 UNL     1      19.074  31.088  13.134  1.00  0.00     0.014 C 
ENDBRANCH  29  30
ENDBRANCH  26  29
ENDBRANCH  21  25
ENDBRANCH  12  13
ENDBRANCH  11  12
ENDBRANCH  10  11
ENDBRANCH   9  10
ENDBRANCH   8   9
ENDBRANCH   7   8
ENDBRANCH   6   7
ENDBRANCH   5   6
ENDBRANCH   4   5
ENDBRANCH   3   4
TORSDOF 13
ENDMDL
