MODEL 1
REMARK VINA RESULT: -8.390126114      0.000      0.000
REMARK  15 active torsions:
REMARK  status: ('A' for Active; 'I' for Inactive)
REMARK    1  A    between atoms: C2_2  and  C3_3 
REMARK    2  A    between atoms: C3_3  and  C4_4 
REMARK    3  A    between atoms: C4_4  and  C5_5 
REMARK    4  A    between atoms: C5_5  and  C6_6 
REMARK    5  A    between atoms: C6_6  and  N1_7 
REMARK    6  A    between atoms: N1_7  and  C7_9 
REMARK    7  A    between atoms: C8_12  and  C9_13 
REMARK    8  A    between atoms: C9_13  and  N3_14 
REMARK    9  A    between atoms: N3_14  and  S1_16 
REMARK   10  A    between atoms: S1_16  and  N4_19 
REMARK   11  A    between atoms: C15_25  and  N5_26 
REMARK   12  A    between atoms: N5_26  and  C16_28 
REMARK   13  A    between atoms: C16_28  and  C17_29 
REMARK   14  A    between atoms: C17_29  and  C18_30 
REMARK   15  A    between atoms: C18_30  and  N6_31 
ROOT
HETATM    1  C7  UNL     1      20.664  30.087  12.988  1.00  0.00     0.679 A 
HETATM    2  N2  UNL     1      20.553  28.971  12.250  1.00  0.00    -0.194 N 
ATOM      3  H2  UNL     1      21.226  28.807  11.501  1.00  0.00     0.184 HD
HETATM    4  C8  UNL     1      19.584  28.062  12.464  1.00  0.00     0.048 A 
HETATM    5  C14 UNL     1      18.696  28.312  13.477  1.00  0.00     0.076 A 
HETATM    6  C15 UNL     1      18.763  29.467  14.285  1.00  0.00     0.122 A 
HETATM    7  N7  UNL     1      19.763  30.297  13.982  1.00  0.00    -0.177 N 
ATOM      8  H7  UNL     1      19.857  31.148  14.536  1.00  0.00     0.186 HD
ENDROOT
BRANCH   4   9
HETATM    9  C9  UNL     1      19.479  26.824  11.617  1.00  0.00     0.191 C 
BRANCH   9  10
HETATM   10  N3  UNL     1      20.647  26.789  10.757  1.00  0.00    -0.301 N 
ATOM     11  H3  UNL     1      21.002  27.579  10.218  1.00  0.00     0.173 HD
BRANCH  10  12
HETATM   12  S1  UNL     1      21.347  25.211  10.784  1.00  0.00     0.299 S 
HETATM   13  O1  UNL     1      21.273  24.661   9.410  1.00  0.00    -0.188 OA
HETATM   14  O2  UNL     1      20.640  24.325  11.763  1.00  0.00    -0.188 OA
BRANCH  12  15
HETATM   15  N4  UNL     1      22.975  25.377  11.335  1.00  0.00    -0.194 NA
HETATM   16  C10 UNL     1      23.925  25.243  10.272  1.00  0.00     0.109 C 
HETATM   17  C11 UNL     1      25.174  25.992  10.735  1.00  0.00     0.017 C 
HETATM   18  C12 UNL     1      24.731  26.662  12.042  1.00  0.00     0.017 C 
HETATM   19  C13 UNL     1      23.229  26.761  11.771  1.00  0.00     0.109 C 
ENDBRANCH  12  15
ENDBRANCH  10  12
ENDBRANCH   9  10
ENDBRANCH   4   9
BRANCH   1  20
HETATM   20  N1  UNL     1      21.596  30.955  12.793  1.00  0.00    -0.226 N 
ATOM     21  H1  UNL     1      22.151  30.932  11.938  1.00  0.00     0.177 HD
BRANCH  20  22
HETATM   22  C6  UNL     1      21.845  31.949  13.791  1.00  0.00     0.138 C 
BRANCH  22  23
HETATM   23  C5  UNL     1      23.057  31.614  14.647  1.00  0.00     0.020 C 
BRANCH  23  24
HETATM   24  C4  UNL     1      23.254  32.794  15.572  1.00  0.00     0.002 C 
BRANCH  24  25
HETATM   25  C3  UNL     1      22.593  32.501  16.881  1.00  0.00    -0.000 C 
BRANCH  25  26
HETATM   26  C2  UNL     1      22.143  33.787  17.530  1.00  0.00    -0.005 C 
HETATM   27  C1  UNL     1      21.404  34.580  16.465  1.00  0.00     0.005 C 
ENDBRANCH  25  26
ENDBRANCH  24  25
ENDBRANCH  23  24
ENDBRANCH  22  23
ENDBRANCH  20  22
ENDBRANCH   1  20
BRANCH   6  28
HETATM   28  N5  UNL     1      17.901  29.638  15.213  1.00  0.00    -0.355 N 
ATOM     29  H5  UNL     1      17.380  28.822  15.534  1.00  0.00     0.166 HD
BRANCH  28  30
HETATM   30  C16 UNL     1      17.622  30.873  15.821  1.00  0.00     0.064 C 
BRANCH  30  31
HETATM   31  C17 UNL     1      17.011  31.895  14.884  1.00  0.00     0.074 C 
BRANCH  31  32
HETATM   32  C18 UNL     1      17.475  33.282  15.171  1.00  0.00     0.277 C 
BRANCH  32  33
HETATM   33  N6  UNL     1      16.904  33.810  16.362  1.00  0.00     0.092 N 
HETATM   34  C19 UNL     1      15.571  34.301  16.239  1.00  0.00     0.298 C 
HETATM   35  C20 UNL     1      14.942  34.450  17.611  1.00  0.00     0.198 C 
HETATM   36  O3  UNL     1      15.896  34.428  18.631  1.00  0.00    -0.388 OA
HETATM   37  C21 UNL     1      16.973  35.229  18.304  1.00  0.00     0.198 C 
HETATM   38  C22 UNL     1      17.731  34.701  17.104  1.00  0.00     0.298 C 
ENDBRANCH  32  33
ENDBRANCH  31  32
ENDBRANCH  30  31
ENDBRANCH  28  30
ENDBRANCH   6  28
TORSDOF 15
ENDMDL
MODEL 2
REMARK VINA RESULT: -8.377549873      3.063      8.461
REMARK  15 active torsions:
REMARK  status: ('A' for Active; 'I' for Inactive)
REMARK    1  A    between atoms: C2_2  and  C3_3 
REMARK    2  A    between atoms: C3_3  and  C4_4 
REMARK    3  A    between atoms: C4_4  and  C5_5 
REMARK    4  A    between atoms: C5_5  and  C6_6 
REMARK    5  A    between atoms: C6_6  and  N1_7 
REMARK    6  A    between atoms: N1_7  and  C7_9 
REMARK    7  A    between atoms: C8_12  and  C9_13 
REMARK    8  A    between atoms: C9_13  and  N3_14 
REMARK    9  A    between atoms: N3_14  and  S1_16 
REMARK   10  A    between atoms: S1_16  and  N4_19 
REMARK   11  A    between atoms: C15_25  and  N5_26 
REMARK   12  A    between atoms: N5_26  and  C16_28 
REMARK   13  A    between atoms: C16_28  and  C17_29 
REMARK   14  A    between atoms: C17_29  and  C18_30 
REMARK   15  A    between atoms: C18_30  and  N6_31 
ROOT
HETATM    1  C7  UNL     1      18.523  29.784  15.248  1.00  0.00     0.679 A 
HETATM    2  N2  UNL     1      19.794  30.213  15.188  1.00  0.00    -0.194 N 
ATOM      3  H2  UNL     1      20.073  31.009  15.762  1.00  0.00     0.184 HD
HETATM    4  C8  UNL     1      20.713  29.628  14.398  1.00  0.00     0.048 A 
HETATM    5  C14 UNL     1      20.307  28.561  13.640  1.00  0.00     0.076 A 
HETATM    6  C15 UNL     1      18.985  28.067  13.661  1.00  0.00     0.122 A 
HETATM    7  N7  UNL     1      18.162  28.724  14.481  1.00  0.00    -0.177 N 
ATOM      8  H7  UNL     1      17.194  28.407  14.534  1.00  0.00     0.186 HD
ENDROOT
BRANCH   4   9
HETATM    9  C9  UNL     1      22.128  30.134  14.346  1.00  0.00     0.191 C 
BRANCH   9  10
HETATM   10  N3  UNL     1      22.307  31.032  15.470  1.00  0.00    -0.301 N 
ATOM     11  H3  UNL     1      22.160  30.783  16.448  1.00  0.00     0.173 HD
BRANCH  10  12
HETATM   12  S1  UNL     1      22.810  32.584  14.906  1.00  0.00     0.299 S 
HETATM   13  O1  UNL     1      22.307  32.746  13.521  1.00  0.00    -0.188 OA
HETATM   14  O2  UNL     1      24.301  32.721  14.963  1.00  0.00    -0.188 OA
BRANCH  12  15
HETATM   15  N4  UNL     1      22.151  33.764  15.982  1.00  0.00    -0.194 NA
HETATM   16  C10 UNL     1      20.722  33.815  15.923  1.00  0.00     0.109 C 
HETATM   17  C11 UNL     1      20.272  34.382  17.269  1.00  0.00     0.017 C 
HETATM   18  C12 UNL     1      21.571  34.458  18.083  1.00  0.00     0.017 C 
HETATM   19  C13 UNL     1      22.365  33.355  17.381  1.00  0.00     0.109 C 
ENDBRANCH  12  15
ENDBRANCH  10  12
ENDBRANCH   9  10
ENDBRANCH   4   9
BRANCH   1  20
HETATM   20  N1  UNL     1      17.643  30.334  16.011  1.00  0.00    -0.226 N 
ATOM     21  H1  UNL     1      16.964  29.761  16.511  1.00  0.00     0.177 HD
BRANCH  20  22
HETATM   22  C6  UNL     1      17.629  31.758  16.149  1.00  0.00     0.138 C 
BRANCH  22  23
HETATM   23  C5  UNL     1      16.877  32.438  15.015  1.00  0.00     0.020 C 
BRANCH  23  24
HETATM   24  C4  UNL     1      17.029  33.925  15.246  1.00  0.00     0.002 C 
BRANCH  24  25
HETATM   25  C3  UNL     1      15.675  34.528  15.438  1.00  0.00    -0.000 C 
BRANCH  25  26
HETATM   26  C2  UNL     1      15.663  35.380  16.684  1.00  0.00    -0.005 C 
HETATM   27  C1  UNL     1      15.589  34.428  17.865  1.00  0.00     0.005 C 
ENDBRANCH  25  26
ENDBRANCH  24  25
ENDBRANCH  23  24
ENDBRANCH  22  23
ENDBRANCH  20  22
ENDBRANCH   1  20
BRANCH   6  28
HETATM   28  N5  UNL     1      18.674  27.068  12.928  1.00  0.00    -0.355 N 
ATOM     29  H5  UNL     1      18.508  26.173  13.388  1.00  0.00     0.166 HD
BRANCH  28  30
HETATM   30  C16 UNL     1      18.544  27.117  11.530  1.00  0.00     0.064 C 
BRANCH  30  31
HETATM   31  C17 UNL     1      19.793  26.694  10.782  1.00  0.00     0.074 C 
BRANCH  31  32
HETATM   32  C18 UNL     1      20.368  25.423  11.306  1.00  0.00     0.277 C 
BRANCH  32  33
HETATM   33  N6  UNL     1      21.788  25.395  11.224  1.00  0.00     0.092 N 
HETATM   34  C19 UNL     1      22.448  26.610  11.574  1.00  0.00     0.298 C 
HETATM   35  C20 UNL     1      23.917  26.347  11.841  1.00  0.00     0.198 C 
HETATM   36  O3  UNL     1      24.328  25.110  11.342  1.00  0.00    -0.388 OA
HETATM   37  C21 UNL     1      23.841  24.917  10.063  1.00  0.00     0.198 C 
HETATM   38  C22 UNL     1      22.331  24.820  10.039  1.00  0.00     0.298 C 
ENDBRANCH  32  33
ENDBRANCH  31  32
ENDBRANCH  30  31
ENDBRANCH  28  30
ENDBRANCH   6  28
TORSDOF 15
ENDMDL
MODEL 3
REMARK VINA RESULT: -8.374804257      2.240      5.165
REMARK  15 active torsions:
REMARK  status: ('A' for Active; 'I' for Inactive)
REMARK    1  A    between atoms: C2_2  and  C3_3 
REMARK    2  A    between atoms: C3_3  and  C4_4 
REMARK    3  A    between atoms: C4_4  and  C5_5 
REMARK    4  A    between atoms: C5_5  and  C6_6 
REMARK    5  A    between atoms: C6_6  and  N1_7 
REMARK    6  A    between atoms: N1_7  and  C7_9 
REMARK    7  A    between atoms: C8_12  and  C9_13 
REMARK    8  A    between atoms: C9_13  and  N3_14 
REMARK    9  A    between atoms: N3_14  and  S1_16 
REMARK   10  A    between atoms: S1_16  and  N4_19 
REMARK   11  A    between atoms: C15_25  and  N5_26 
REMARK   12  A    between atoms: N5_26  and  C16_28 
REMARK   13  A    between atoms: C16_28  and  C17_29 
REMARK   14  A    between atoms: C17_29  and  C18_30 
REMARK   15  A    between atoms: C18_30  and  N6_31 
ROOT
HETATM    1  C7  UNL     1      21.895  28.209  13.368  1.00  0.00     0.679 A 
HETATM    2  N2  UNL     1      20.888  28.029  12.499  1.00  0.00    -0.194 N 
ATOM      3  H2  UNL     1      21.107  27.757  11.541  1.00  0.00     0.184 HD
HETATM    4  C8  UNL     1      19.599  28.195  12.849  1.00  0.00     0.048 A 
HETATM    5  C14 UNL     1      19.338  28.561  14.144  1.00  0.00     0.076 A 
HETATM    6  C15 UNL     1      20.355  28.765  15.100  1.00  0.00     0.122 A 
HETATM    7  N7  UNL     1      21.593  28.572  14.642  1.00  0.00    -0.177 N 
ATOM      8  H7  UNL     1      22.366  28.706  15.294  1.00  0.00     0.186 HD
ENDROOT
BRANCH   4   9
HETATM    9  C9  UNL     1      18.491  27.994  11.852  1.00  0.00     0.191 C 
BRANCH   9  10
HETATM   10  N3  UNL     1      19.080  27.403  10.666  1.00  0.00    -0.301 N 
ATOM     11  H3  UNL     1      19.482  27.927   9.888  1.00  0.00     0.173 HD
BRANCH  10  12
HETATM   12  S1  UNL     1      19.002  25.682  10.768  1.00  0.00     0.299 S 
HETATM   13  O1  UNL     1      18.032  25.336  11.834  1.00  0.00    -0.188 OA
HETATM   14  O2  UNL     1      20.352  25.097  11.050  1.00  0.00    -0.188 OA
BRANCH  12  15
HETATM   15  N4  UNL     1      18.508  25.094   9.220  1.00  0.00    -0.194 NA
HETATM   16  C10 UNL     1      17.431  25.857   8.667  1.00  0.00     0.109 C 
HETATM   17  C11 UNL     1      17.519  25.661   7.154  1.00  0.00     0.017 C 
HETATM   18  C12 UNL     1      18.824  24.877   6.965  1.00  0.00     0.017 C 
HETATM   19  C13 UNL     1      19.566  25.329   8.223  1.00  0.00     0.109 C 
ENDBRANCH  12  15
ENDBRANCH  10  12
ENDBRANCH   9  10
ENDBRANCH   4   9
BRANCH   1  20
HETATM   20  N1  UNL     1      23.129  28.041  13.041  1.00  0.00    -0.226 N 
ATOM     21  H1  UNL     1      23.870  28.500  13.570  1.00  0.00     0.177 HD
BRANCH  20  22
HETATM   22  C6  UNL     1      23.449  27.203  11.926  1.00  0.00     0.138 C 
BRANCH  22  23
HETATM   23  C5  UNL     1      24.903  26.756  11.941  1.00  0.00     0.020 C 
BRANCH  23  24
HETATM   24  C4  UNL     1      25.131  26.033  10.633  1.00  0.00     0.002 C 
BRANCH  24  25
HETATM   25  C3  UNL     1      23.824  25.893   9.921  1.00  0.00    -0.000 C 
BRANCH  25  26
HETATM   26  C2  UNL     1      23.772  24.571   9.194  1.00  0.00    -0.005 C 
HETATM   27  C1  UNL     1      23.496  24.884   7.734  1.00  0.00     0.005 C 
ENDBRANCH  25  26
ENDBRANCH  24  25
ENDBRANCH  23  24
ENDBRANCH  22  23
ENDBRANCH  20  22
ENDBRANCH   1  20
BRANCH   6  28
HETATM   28  N5  UNL     1      20.041  29.107  16.291  1.00  0.00    -0.355 N 
ATOM     29  H5  UNL     1      19.792  28.367  16.948  1.00  0.00     0.166 HD
BRANCH  28  30
HETATM   30  C16 UNL     1      20.014  30.432  16.758  1.00  0.00     0.064 C 
BRANCH  30  31
HETATM   31  C17 UNL     1      18.632  31.054  16.760  1.00  0.00     0.074 C 
BRANCH  31  32
HETATM   32  C18 UNL     1      18.662  32.512  16.449  1.00  0.00     0.277 C 
BRANCH  32  33
HETATM   33  N6  UNL     1      17.661  33.238  17.152  1.00  0.00     0.092 N 
HETATM   34  C19 UNL     1      16.384  33.294  16.520  1.00  0.00     0.298 C 
HETATM   35  C20 UNL     1      15.326  33.721  17.518  1.00  0.00     0.198 C 
HETATM   36  O3  UNL     1      15.885  34.290  18.664  1.00  0.00    -0.388 OA
HETATM   37  C21 UNL     1      16.879  35.188  18.326  1.00  0.00     0.198 C 
HETATM   38  C22 UNL     1      18.057  34.507  17.661  1.00  0.00     0.298 C 
ENDBRANCH  32  33
ENDBRANCH  31  32
ENDBRANCH  30  31
ENDBRANCH  28  30
ENDBRANCH   6  28
TORSDOF 15
ENDMDL
MODEL 4
REMARK VINA RESULT: -8.371625998      2.814      8.997
REMARK  15 active torsions:
REMARK  status: ('A' for Active; 'I' for Inactive)
REMARK    1  A    between atoms: C2_2  and  C3_3 
REMARK    2  A    between atoms: C3_3  and  C4_4 
REMARK    3  A    between atoms: C4_4  and  C5_5 
REMARK    4  A    between atoms: C5_5  and  C6_6 
REMARK    5  A    between atoms: C6_6  and  N1_7 
REMARK    6  A    between atoms: N1_7  and  C7_9 
REMARK    7  A    between atoms: C8_12  and  C9_13 
REMARK    8  A    between atoms: C9_13  and  N3_14 
REMARK    9  A    between atoms: N3_14  and  S1_16 
REMARK   10  A    between atoms: S1_16  and  N4_19 
REMARK   11  A    between atoms: C15_25  and  N5_26 
REMARK   12  A    between atoms: N5_26  and  C16_28 
REMARK   13  A    between atoms: C16_28  and  C17_29 
REMARK   14  A    between atoms: C17_29  and  C18_30 
REMARK   15  A    between atoms: C18_30  and  N6_31 
ROOT
HETATM    1  C7  UNL     1      20.244  30.711  16.596  1.00  0.00     0.679 A 
HETATM    2  N2  UNL     1      19.075  31.369  16.648  1.00  0.00    -0.194 N 
ATOM      3  H2  UNL     1      19.000  32.194  17.243  1.00  0.00     0.184 HD
HETATM    4  C8  UNL     1      17.998  30.977  15.943  1.00  0.00     0.048 A 
HETATM    5  C14 UNL     1      18.131  29.864  15.154  1.00  0.00     0.076 A 
HETATM    6  C15 UNL     1      19.334  29.132  15.060  1.00  0.00     0.122 A 
HETATM    7  N7  UNL     1      20.333  29.613  15.802  1.00  0.00    -0.177 N 
ATOM      8  H7  UNL     1      21.226  29.121  15.770  1.00  0.00     0.186 HD
ENDROOT
BRANCH   4   9
HETATM    9  C9  UNL     1      16.699  31.728  16.026  1.00  0.00     0.191 C 
BRANCH   9  10
HETATM   10  N3  UNL     1      16.957  33.087  15.590  1.00  0.00    -0.301 N 
ATOM     11  H3  UNL     1      17.234  33.357  14.646  1.00  0.00     0.173 HD
BRANCH  10  12
HETATM   12  S1  UNL     1      16.724  34.179  16.906  1.00  0.00     0.299 S 
HETATM   13  O1  UNL     1      15.643  33.633  17.760  1.00  0.00    -0.188 OA
HETATM   14  O2  UNL     1      16.386  35.553  16.412  1.00  0.00    -0.188 OA
BRANCH  12  15
HETATM   15  N4  UNL     1      18.226  34.300  17.750  1.00  0.00    -0.194 NA
HETATM   16  C10 UNL     1      19.296  34.725  16.899  1.00  0.00     0.109 C 
HETATM   17  C11 UNL     1      20.332  35.364  17.823  1.00  0.00     0.017 C 
HETATM   18  C12 UNL     1      19.634  35.384  19.190  1.00  0.00     0.017 C 
HETATM   19  C13 UNL     1      18.178  35.404  18.722  1.00  0.00     0.109 C 
ENDBRANCH  12  15
ENDBRANCH  10  12
ENDBRANCH   9  10
ENDBRANCH   4   9
BRANCH   1  20
HETATM   20  N1  UNL     1      21.280  31.089  17.261  1.00  0.00    -0.226 N 
ATOM     21  H1  UNL     1      21.547  30.606  18.118  1.00  0.00     0.177 HD
BRANCH  20  22
HETATM   22  C6  UNL     1      22.052  32.196  16.784  1.00  0.00     0.138 C 
BRANCH  22  23
HETATM   23  C5  UNL     1      23.184  31.755  15.868  1.00  0.00     0.020 C 
BRANCH  23  24
HETATM   24  C4  UNL     1      23.155  32.698  14.686  1.00  0.00     0.002 C 
BRANCH  24  25
HETATM   25  C3  UNL     1      21.766  32.746  14.137  1.00  0.00    -0.000 C 
BRANCH  25  26
HETATM   26  C2  UNL     1      21.546  31.593  13.188  1.00  0.00    -0.005 C 
HETATM   27  C1  UNL     1      20.133  31.734  12.647  1.00  0.00     0.005 C 
ENDBRANCH  25  26
ENDBRANCH  24  25
ENDBRANCH  23  24
ENDBRANCH  22  23
ENDBRANCH  20  22
ENDBRANCH   1  20
BRANCH   6  28
HETATM   28  N5  UNL     1      19.388  28.102  14.305  1.00  0.00    -0.355 N 
ATOM     29  H5  UNL     1      19.401  27.186  14.752  1.00  0.00     0.166 HD
BRANCH  28  30
HETATM   30  C16 UNL     1      19.432  28.147  12.902  1.00  0.00     0.064 C 
BRANCH  30  31
HETATM   31  C17 UNL     1      20.823  27.981  12.325  1.00  0.00     0.074 C 
BRANCH  31  32
HETATM   32  C18 UNL     1      21.002  26.674  11.632  1.00  0.00     0.277 C 
BRANCH  32  33
HETATM   33  N6  UNL     1      22.365  26.268  11.582  1.00  0.00     0.092 N 
HETATM   34  C19 UNL     1      23.323  27.320  11.672  1.00  0.00     0.298 C 
HETATM   35  C20 UNL     1      24.688  26.754  12.014  1.00  0.00     0.198 C 
HETATM   36  O3  UNL     1      24.753  25.376  11.802  1.00  0.00    -0.388 OA
HETATM   37  C21 UNL     1      24.183  25.045  10.588  1.00  0.00     0.198 C 
HETATM   38  C22 UNL     1      22.697  25.334  10.560  1.00  0.00     0.298 C 
ENDBRANCH  32  33
ENDBRANCH  31  32
ENDBRANCH  30  31
ENDBRANCH  28  30
ENDBRANCH   6  28
TORSDOF 15
ENDMDL
MODEL 5
REMARK VINA RESULT: -8.318070375      3.617      8.872
REMARK  15 active torsions:
REMARK  status: ('A' for Active; 'I' for Inactive)
REMARK    1  A    between atoms: C2_2  and  C3_3 
REMARK    2  A    between atoms: C3_3  and  C4_4 
REMARK    3  A    between atoms: C4_4  and  C5_5 
REMARK    4  A    between atoms: C5_5  and  C6_6 
REMARK    5  A    between atoms: C6_6  and  N1_7 
REMARK    6  A    between atoms: N1_7  and  C7_9 
REMARK    7  A    between atoms: C8_12  and  C9_13 
REMARK    8  A    between atoms: C9_13  and  N3_14 
REMARK    9  A    between atoms: N3_14  and  S1_16 
REMARK   10  A    between atoms: S1_16  and  N4_19 
REMARK   11  A    between atoms: C15_25  and  N5_26 
REMARK   12  A    between atoms: N5_26  and  C16_28 
REMARK   13  A    between atoms: C16_28  and  C17_29 
REMARK   14  A    between atoms: C17_29  and  C18_30 
REMARK   15  A    between atoms: C18_30  and  N6_31 
ROOT
HETATM    1  C7  UNL     1      19.854  30.971  16.128  1.00  0.00     0.679 A 
HETATM    2  N2  UNL     1      20.487  32.016  16.684  1.00  0.00    -0.194 N 
ATOM      3  H2  UNL     1      20.000  32.567  17.392  1.00  0.00     0.184 HD
HETATM    4  C8  UNL     1      21.741  32.362  16.341  1.00  0.00     0.048 A 
HETATM    5  C14 UNL     1      22.367  31.602  15.387  1.00  0.00     0.076 A 
HETATM    6  C15 UNL     1      21.752  30.494  14.767  1.00  0.00     0.122 A 
HETATM    7  N7  UNL     1      20.510  30.245  15.186  1.00  0.00    -0.177 N 
ATOM      8  H7  UNL     1      20.020  29.453  14.770  1.00  0.00     0.186 HD
ENDROOT
BRANCH   4   9
HETATM    9  C9  UNL     1      22.423  33.542  16.976  1.00  0.00     0.191 C 
BRANCH   9  10
HETATM   10  N3  UNL     1      21.773  33.783  18.249  1.00  0.00    -0.301 N 
ATOM     11  H3  UNL     1      21.274  33.080  18.795  1.00  0.00     0.173 HD
BRANCH  10  12
HETATM   12  S1  UNL     1      21.968  35.437  18.704  1.00  0.00     0.299 S 
HETATM   13  O1  UNL     1      22.718  36.117  17.621  1.00  0.00    -0.188 OA
HETATM   14  O2  UNL     1      22.682  35.554  20.016  1.00  0.00    -0.188 OA
BRANCH  12  15
HETATM   15  N4  UNL     1      20.390  36.103  18.924  1.00  0.00    -0.194 NA
HETATM   16  C10 UNL     1      20.027  36.999  17.868  1.00  0.00     0.109 C 
HETATM   17  C11 UNL     1      18.498  37.010  17.842  1.00  0.00     0.017 C 
HETATM   18  C12 UNL     1      18.111  35.923  18.853  1.00  0.00     0.017 C 
HETATM   19  C13 UNL     1      19.367  35.055  18.773  1.00  0.00     0.109 C 
ENDBRANCH  12  15
ENDBRANCH  10  12
ENDBRANCH   9  10
ENDBRANCH   4   9
BRANCH   1  20
HETATM   20  N1  UNL     1      18.657  30.630  16.461  1.00  0.00    -0.226 N 
ATOM     21  H1  UNL     1      18.422  29.648  16.604  1.00  0.00     0.177 HD
BRANCH  20  22
HETATM   22  C6  UNL     1      17.662  31.644  16.627  1.00  0.00     0.138 C 
BRANCH  22  23
HETATM   23  C5  UNL     1      17.135  32.156  15.296  1.00  0.00     0.020 C 
BRANCH  23  24
HETATM   24  C4  UNL     1      15.867  32.917  15.614  1.00  0.00     0.002 C 
BRANCH  24  25
HETATM   25  C3  UNL     1      16.117  34.379  15.425  1.00  0.00    -0.000 C 
BRANCH  25  26
HETATM   26  C2  UNL     1      15.393  35.167  16.490  1.00  0.00    -0.005 C 
HETATM   27  C1  UNL     1      15.074  34.195  17.613  1.00  0.00     0.005 C 
ENDBRANCH  25  26
ENDBRANCH  24  25
ENDBRANCH  23  24
ENDBRANCH  22  23
ENDBRANCH  20  22
ENDBRANCH   1  20
BRANCH   6  28
HETATM   28  N5  UNL     1      22.394  29.830  13.884  1.00  0.00    -0.355 N 
ATOM     29  H5  UNL     1      23.132  30.311  13.371  1.00  0.00     0.166 HD
BRANCH  28  30
HETATM   30  C16 UNL     1      22.153  28.481  13.573  1.00  0.00     0.064 C 
BRANCH  30  31
HETATM   31  C17 UNL     1      22.025  28.207  12.088  1.00  0.00     0.074 C 
BRANCH  31  32
HETATM   32  C18 UNL     1      20.764  27.490  11.746  1.00  0.00     0.277 C 
BRANCH  32  33
HETATM   33  N6  UNL     1      19.648  27.972  12.484  1.00  0.00     0.092 N 
HETATM   34  C19 UNL     1      18.619  27.018  12.736  1.00  0.00     0.298 C 
HETATM   35  C20 UNL     1      17.709  27.513  13.844  1.00  0.00     0.198 C 
HETATM   36  O3  UNL     1      17.866  28.879  14.081  1.00  0.00    -0.388 OA
HETATM   37  C21 UNL     1      17.902  29.578  12.890  1.00  0.00     0.198 C 
HETATM   38  C22 UNL     1      19.117  29.224  12.060  1.00  0.00     0.298 C 
ENDBRANCH  32  33
ENDBRANCH  31  32
ENDBRANCH  30  31
ENDBRANCH  28  30
ENDBRANCH   6  28
TORSDOF 15
ENDMDL
