MODEL 1
REMARK VINA RESULT: -7.590057065      0.000      0.000
REMARK  14 active torsions:
REMARK  status: ('A' for Active; 'I' for Inactive)
REMARK    1  A    between atoms: C2_2  and  O1_3 
REMARK    2  A    between atoms: O1_3  and  C3_4 
REMARK       I    between atoms: C3_4  and  N1_6 
REMARK       I    between atoms: N2_9  and  C6_10 
REMARK    3  A    between atoms: C6_10  and  C7_12 
REMARK    4  A    between atoms: C7_12  and  C8_13 
REMARK    5  A    between atoms: C7_12  and  N3_16 
REMARK    6  A    between atoms: C8_13  and  C9_14 
REMARK       I    between atoms: N3_16  and  C10_18 
REMARK    7  A    between atoms: C10_18  and  C11_20 
REMARK    8  A    between atoms: C11_20  and  C12_21 
REMARK    9  A    between atoms: C11_20  and  C18_32 
REMARK   10  A    between atoms: C12_21  and  C13_22 
REMARK   11  A    between atoms: C13_22  and  C14_23 
REMARK   12  A    between atoms: C14_23  and  C15_24 
REMARK   13  A    between atoms: C15_24  and  N4_25 
REMARK       I    between atoms: N4_25  and  C16_27 
REMARK   14  A    between atoms: C18_32  and  C19_33 
ROOT
HETATM    1  N3  UNL     1      21.439  29.782  12.488  1.00  0.00    -0.347 N 
ATOM      2  H3  UNL     1      21.361  30.189  11.556  1.00  0.00     0.163 HD
HETATM    3  C10 UNL     1      21.729  28.387  12.583  1.00  0.00     0.222 C 
HETATM    4  O5  UNL     1      21.807  27.935  13.753  1.00  0.00    -0.273 OA
ENDROOT
BRANCH   1   5
HETATM    5  C7  UNL     1      21.248  30.656  13.628  1.00  0.00     0.183 C 
BRANCH   5   6
HETATM    6  C6  UNL     1      19.846  31.153  13.552  1.00  0.00     0.243 C 
HETATM    7  N2  UNL     1      19.105  31.685  14.627  1.00  0.00    -0.347 N 
HETATM    8  C5  UNL     1      17.760  32.146  14.409  1.00  0.00     0.146 C 
HETATM    9  C22 UNL     1      19.674  31.748  15.964  1.00  0.00     0.146 C 
HETATM   10  C4  UNL     1      17.280  33.249  15.269  1.00  0.00     0.148 C 
HETATM   11  N1  UNL     1      17.881  33.198  16.574  1.00  0.00    -0.325 N 
HETATM   12  C3  UNL     1      17.835  34.330  17.407  1.00  0.00     0.362 C 
HETATM   13  C23 UNL     1      18.523  31.950  16.972  1.00  0.00     0.148 C 
HETATM   14  O2  UNL     1      18.336  34.378  18.559  1.00  0.00    -0.238 OA
HETATM   15  O3  UNL     1      19.236  31.100  12.422  1.00  0.00    -0.271 OA
BRANCH  12  16
HETATM   16  O1  UNL     1      17.207  35.478  16.955  1.00  0.00    -0.304 OA
BRANCH  16  17
HETATM   17  C2  UNL     1      15.968  35.926  17.475  1.00  0.00     0.176 C 
HETATM   18  C1  UNL     1      14.797  35.097  17.061  1.00  0.00     0.034 C 
ENDBRANCH  16  17
ENDBRANCH  12  16
ENDBRANCH   5   6
BRANCH   5  19
HETATM   19  C8  UNL     1      22.245  31.769  13.452  1.00  0.00     0.104 C 
BRANCH  19  20
HETATM   20  C9  UNL     1      23.080  31.994  14.660  1.00  0.00     0.233 C 
HETATM   21  O4  UNL     1      24.149  32.563  14.680  1.00  0.00    -0.307 OA
ENDBRANCH  19  20
ENDBRANCH   5  19
ENDBRANCH   1   5
BRANCH   3  22
HETATM   22  C11 UNL     1      21.927  27.532  11.415  1.00  0.00     0.078 C 
BRANCH  22  23
HETATM   23  C12 UNL     1      21.479  26.143  11.684  1.00  0.00     0.014 C 
BRANCH  23  24
HETATM   24  C13 UNL     1      20.047  25.837  11.432  1.00  0.00     0.002 C 
BRANCH  24  25
HETATM   25  C14 UNL     1      19.595  26.239  10.046  1.00  0.00     0.020 C 
BRANCH  25  26
HETATM   26  C15 UNL     1      18.380  27.123  10.076  1.00  0.00     0.122 C 
BRANCH  26  27
HETATM   27  N4  UNL     1      18.506  28.101  11.123  1.00  0.00    -0.365 N 
HETATM   28  C16 UNL     1      17.400  28.639  11.831  1.00  0.00     0.183 C 
HETATM   29  N5  UNL     1      16.367  29.280  11.095  1.00  0.00    -0.064 NA
HETATM   30  N6  UNL     1      17.312  28.562  13.096  1.00  0.00    -0.369 N 
HETATM   31  C17 UNL     1      18.276  27.945  13.957  1.00  0.00     0.148 C 
ATOM     32  H6  UNL     1      16.487  28.973  13.534  1.00  0.00     0.161 HD
ATOM     33  H4  UNL     1      19.441  28.425  11.370  1.00  0.00     0.162 HD
ENDBRANCH  26  27
ENDBRANCH  25  26
ENDBRANCH  24  25
ENDBRANCH  23  24
ENDBRANCH  22  23
BRANCH  22  34
HETATM   34  C18 UNL     1      23.386  27.610  11.013  1.00  0.00     0.018 C 
BRANCH  34  35
HETATM   35  C19 UNL     1      24.099  26.300  11.081  1.00  0.00    -0.022 C 
HETATM   36  C20 UNL     1      25.316  26.511  11.984  1.00  0.00     0.009 C 
HETATM   37  C21 UNL     1      24.590  25.846   9.738  1.00  0.00     0.009 C 
ENDBRANCH  34  35
ENDBRANCH  22  34
ENDBRANCH   3  22
TORSDOF 14
ENDMDL
MODEL 2
REMARK VINA RESULT: -7.454088128      2.688      9.214
REMARK  14 active torsions:
REMARK  status: ('A' for Active; 'I' for Inactive)
REMARK    1  A    between atoms: C2_2  and  O1_3 
REMARK    2  A    between atoms: O1_3  and  C3_4 
REMARK       I    between atoms: C3_4  and  N1_6 
REMARK       I    between atoms: N2_9  and  C6_10 
REMARK    3  A    between atoms: C6_10  and  C7_12 
REMARK    4  A    between atoms: C7_12  and  C8_13 
REMARK    5  A    between atoms: C7_12  and  N3_16 
REMARK    6  A    between atoms: C8_13  and  C9_14 
REMARK       I    between atoms: N3_16  and  C10_18 
REMARK    7  A    between atoms: C10_18  and  C11_20 
REMARK    8  A    between atoms: C11_20  and  C12_21 
REMARK    9  A    between atoms: C11_20  and  C18_32 
REMARK   10  A    between atoms: C12_21  and  C13_22 
REMARK   11  A    between atoms: C13_22  and  C14_23 
REMARK   12  A    between atoms: C14_23  and  C15_24 
REMARK   13  A    between atoms: C15_24  and  N4_25 
REMARK       I    between atoms: N4_25  and  C16_27 
REMARK   14  A    between atoms: C18_32  and  C19_33 
ROOT
HETATM    1  N3  UNL     1      20.362  29.581  13.915  1.00  0.00    -0.347 N 
ATOM      2  H3  UNL     1      20.520  30.463  13.427  1.00  0.00     0.163 HD
HETATM    3  C10 UNL     1      20.280  29.612  15.339  1.00  0.00     0.222 C 
HETATM    4  O5  UNL     1      20.092  28.499  15.890  1.00  0.00    -0.273 OA
ENDROOT
BRANCH   1   5
HETATM    5  C7  UNL     1      20.238  28.379  13.115  1.00  0.00     0.183 C 
BRANCH   5   6
HETATM    6  C6  UNL     1      21.616  27.999  12.699  1.00  0.00     0.243 C 
HETATM    7  N2  UNL     1      21.953  26.903  11.879  1.00  0.00    -0.347 N 
HETATM    8  C5  UNL     1      23.330  26.662  11.540  1.00  0.00     0.146 C 
HETATM    9  C22 UNL     1      20.928  25.994  11.395  1.00  0.00     0.146 C 
HETATM   10  C4  UNL     1      23.598  26.015  10.238  1.00  0.00     0.148 C 
HETATM   11  N1  UNL     1      22.539  25.115   9.870  1.00  0.00    -0.325 N 
HETATM   12  C3  UNL     1      22.426  24.679   8.539  1.00  0.00     0.362 C 
HETATM   13  C23 UNL     1      21.616  24.696  10.919  1.00  0.00     0.148 C 
HETATM   14  O2  UNL     1      21.531  23.897   8.126  1.00  0.00    -0.238 OA
HETATM   15  O3  UNL     1      22.601  28.715  13.112  1.00  0.00    -0.271 OA
BRANCH  12  16
HETATM   16  O1  UNL     1      23.342  25.123   7.600  1.00  0.00    -0.304 OA
BRANCH  16  17
HETATM   17  C2  UNL     1      24.052  24.242   6.749  1.00  0.00     0.176 C 
HETATM   18  C1  UNL     1      23.667  24.338   5.310  1.00  0.00     0.034 C 
ENDBRANCH  16  17
ENDBRANCH  12  16
ENDBRANCH   5   6
BRANCH   5  19
HETATM   19  C8  UNL     1      19.385  28.766  11.937  1.00  0.00     0.104 C 
BRANCH  19  20
HETATM   20  C9  UNL     1      17.974  29.044  12.310  1.00  0.00     0.233 C 
HETATM   21  O4  UNL     1      17.534  30.120  12.647  1.00  0.00    -0.307 OA
ENDBRANCH  19  20
ENDBRANCH   5  19
ENDBRANCH   1   5
BRANCH   3  22
HETATM   22  C11 UNL     1      20.399  30.843  16.119  1.00  0.00     0.078 C 
BRANCH  22  23
HETATM   23  C12 UNL     1      19.064  31.363  16.507  1.00  0.00     0.014 C 
BRANCH  23  24
HETATM   24  C13 UNL     1      18.283  32.064  15.456  1.00  0.00     0.002 C 
BRANCH  24  25
HETATM   25  C14 UNL     1      16.875  32.399  15.894  1.00  0.00     0.020 C 
BRANCH  25  26
HETATM   26  C15 UNL     1      16.473  33.794  15.507  1.00  0.00     0.122 C 
BRANCH  26  27
HETATM   27  N4  UNL     1      17.111  34.750  16.371  1.00  0.00    -0.365 N 
HETATM   28  C16 UNL     1      17.169  34.615  17.783  1.00  0.00     0.183 C 
HETATM   29  N5  UNL     1      15.953  34.489  18.505  1.00  0.00    -0.064 NA
HETATM   30  N6  UNL     1      18.274  34.605  18.410  1.00  0.00    -0.369 N 
HETATM   31  C17 UNL     1      19.569  34.723  17.810  1.00  0.00     0.148 C 
ATOM     32  H6  UNL     1      18.236  34.506  19.425  1.00  0.00     0.161 HD
ATOM     33  H4  UNL     1      17.546  35.569  15.946  1.00  0.00     0.162 HD
ENDBRANCH  26  27
ENDBRANCH  25  26
ENDBRANCH  24  25
ENDBRANCH  23  24
ENDBRANCH  22  23
BRANCH  22  34
HETATM   34  C18 UNL     1      21.206  31.839  15.311  1.00  0.00     0.018 C 
BRANCH  34  35
HETATM   35  C19 UNL     1      22.647  31.896  15.695  1.00  0.00    -0.022 C 
HETATM   36  C20 UNL     1      22.739  32.819  16.912  1.00  0.00     0.009 C 
HETATM   37  C21 UNL     1      23.506  32.472  14.608  1.00  0.00     0.009 C 
ENDBRANCH  34  35
ENDBRANCH  22  34
ENDBRANCH   3  22
TORSDOF 14
ENDMDL
MODEL 3
REMARK VINA RESULT: -7.444484332      2.707      4.884
REMARK  14 active torsions:
REMARK  status: ('A' for Active; 'I' for Inactive)
REMARK    1  A    between atoms: C2_2  and  O1_3 
REMARK    2  A    between atoms: O1_3  and  C3_4 
REMARK       I    between atoms: C3_4  and  N1_6 
REMARK       I    between atoms: N2_9  and  C6_10 
REMARK    3  A    between atoms: C6_10  and  C7_12 
REMARK    4  A    between atoms: C7_12  and  C8_13 
REMARK    5  A    between atoms: C7_12  and  N3_16 
REMARK    6  A    between atoms: C8_13  and  C9_14 
REMARK       I    between atoms: N3_16  and  C10_18 
REMARK    7  A    between atoms: C10_18  and  C11_20 
REMARK    8  A    between atoms: C11_20  and  C12_21 
REMARK    9  A    between atoms: C11_20  and  C18_32 
REMARK   10  A    between atoms: C12_21  and  C13_22 
REMARK   11  A    between atoms: C13_22  and  C14_23 
REMARK   12  A    between atoms: C14_23  and  C15_24 
REMARK   13  A    between atoms: C15_24  and  N4_25 
REMARK       I    between atoms: N4_25  and  C16_27 
REMARK   14  A    between atoms: C18_32  and  C19_33 
ROOT
HETATM    1  N3  UNL     1      20.260  31.422  15.224  1.00  0.00    -0.347 N 
ATOM      2  H3  UNL     1      20.487  31.528  14.235  1.00  0.00     0.163 HD
HETATM    3  C10 UNL     1      20.155  30.098  15.746  1.00  0.00     0.222 C 
HETATM    4  O5  UNL     1      19.866  30.024  16.966  1.00  0.00    -0.273 OA
ENDROOT
BRANCH   1   5
HETATM    5  C7  UNL     1      20.064  32.627  16.006  1.00  0.00     0.183 C 
BRANCH   5   6
HETATM    6  C6  UNL     1      18.732  33.171  15.624  1.00  0.00     0.243 C 
HETATM    7  N2  UNL     1      17.976  34.094  16.374  1.00  0.00    -0.347 N 
HETATM    8  C5  UNL     1      16.707  34.551  15.876  1.00  0.00     0.146 C 
HETATM    9  C22 UNL     1      18.450  34.569  17.664  1.00  0.00     0.146 C 
HETATM   10  C4  UNL     1      16.285  35.915  16.261  1.00  0.00     0.148 C 
HETATM   11  N1  UNL     1      16.782  36.271  17.562  1.00  0.00    -0.325 N 
HETATM   12  C3  UNL     1      16.796  37.620  17.958  1.00  0.00     0.362 C 
HETATM   13  C23 UNL     1      17.257  35.191  18.420  1.00  0.00     0.148 C 
HETATM   14  O2  UNL     1      17.215  38.024  19.073  1.00  0.00    -0.238 OA
HETATM   15  O3  UNL     1      18.202  32.778  14.519  1.00  0.00    -0.271 OA
BRANCH  12  16
HETATM   16  O1  UNL     1      16.327  38.587  17.084  1.00  0.00    -0.304 OA
BRANCH  16  17
HETATM   17  C2  UNL     1      16.872  39.893  17.027  1.00  0.00     0.176 C 
HETATM   18  C1  UNL     1      18.189  39.976  16.329  1.00  0.00     0.034 C 
ENDBRANCH  16  17
ENDBRANCH  12  16
ENDBRANCH   5   6
BRANCH   5  19
HETATM   19  C8  UNL     1      21.182  33.552  15.606  1.00  0.00     0.104 C 
BRANCH  19  20
HETATM   20  C9  UNL     1      22.267  32.861  14.862  1.00  0.00     0.233 C 
HETATM   21  O4  UNL     1      22.379  32.822  13.658  1.00  0.00    -0.307 OA
ENDBRANCH  19  20
ENDBRANCH   5  19
ENDBRANCH   1   5
BRANCH   3  22
HETATM   22  C11 UNL     1      20.369  28.901  14.934  1.00  0.00     0.078 C 
BRANCH  22  23
HETATM   23  C12 UNL     1      21.325  29.165  13.831  1.00  0.00     0.014 C 
BRANCH  23  24
HETATM   24  C13 UNL     1      22.056  27.996  13.279  1.00  0.00     0.002 C 
BRANCH  24  25
HETATM   25  C14 UNL     1      22.096  27.986  11.767  1.00  0.00     0.020 C 
BRANCH  25  26
HETATM   26  C15 UNL     1      21.892  26.610  11.200  1.00  0.00     0.122 C 
BRANCH  26  27
HETATM   27  N4  UNL     1      22.959  26.287  10.290  1.00  0.00    -0.365 N 
HETATM   28  C16 UNL     1      23.919  25.272  10.537  1.00  0.00     0.183 C 
HETATM   29  N5  UNL     1      24.697  25.344  11.723  1.00  0.00    -0.064 NA
HETATM   30  N6  UNL     1      24.099  24.309   9.728  1.00  0.00    -0.369 N 
HETATM   31  C17 UNL     1      23.387  24.115   8.500  1.00  0.00     0.148 C 
ATOM     32  H6  UNL     1      24.809  23.617   9.972  1.00  0.00     0.161 HD
ATOM     33  H4  UNL     1      23.028  26.817   9.421  1.00  0.00     0.162 HD
ENDBRANCH  26  27
ENDBRANCH  25  26
ENDBRANCH  24  25
ENDBRANCH  23  24
ENDBRANCH  22  23
BRANCH  22  34
HETATM   34  C18 UNL     1      19.021  28.417  14.441  1.00  0.00     0.018 C 
BRANCH  34  35
HETATM   35  C19 UNL     1      18.800  28.641  12.981  1.00  0.00    -0.022 C 
HETATM   36  C20 UNL     1      17.765  29.761  12.864  1.00  0.00     0.009 C 
HETATM   37  C21 UNL     1      18.251  27.426  12.293  1.00  0.00     0.009 C 
ENDBRANCH  34  35
ENDBRANCH  22  34
ENDBRANCH   3  22
TORSDOF 14
ENDMDL
MODEL 4
REMARK VINA RESULT: -7.385408277      2.703      9.301
REMARK  14 active torsions:
REMARK  status: ('A' for Active; 'I' for Inactive)
REMARK    1  A    between atoms: C2_2  and  O1_3 
REMARK    2  A    between atoms: O1_3  and  C3_4 
REMARK       I    between atoms: C3_4  and  N1_6 
REMARK       I    between atoms: N2_9  and  C6_10 
REMARK    3  A    between atoms: C6_10  and  C7_12 
REMARK    4  A    between atoms: C7_12  and  C8_13 
REMARK    5  A    between atoms: C7_12  and  N3_16 
REMARK    6  A    between atoms: C8_13  and  C9_14 
REMARK       I    between atoms: N3_16  and  C10_18 
REMARK    7  A    between atoms: C10_18  and  C11_20 
REMARK    8  A    between atoms: C11_20  and  C12_21 
REMARK    9  A    between atoms: C11_20  and  C18_32 
REMARK   10  A    between atoms: C12_21  and  C13_22 
REMARK   11  A    between atoms: C13_22  and  C14_23 
REMARK   12  A    between atoms: C14_23  and  C15_24 
REMARK   13  A    between atoms: C15_24  and  N4_25 
REMARK       I    between atoms: N4_25  and  C16_27 
REMARK   14  A    between atoms: C18_32  and  C19_33 
ROOT
HETATM    1  N3  UNL     1      20.386  29.725  13.894  1.00  0.00    -0.347 N 
ATOM      2  H3  UNL     1      20.549  30.573  13.351  1.00  0.00     0.163 HD
HETATM    3  C10 UNL     1      20.278  29.852  15.312  1.00  0.00     0.222 C 
HETATM    4  O5  UNL     1      20.084  28.777  15.932  1.00  0.00    -0.273 OA
ENDROOT
BRANCH   1   5
HETATM    5  C7  UNL     1      20.279  28.471  13.175  1.00  0.00     0.183 C 
BRANCH   5   6
HETATM    6  C6  UNL     1      21.665  28.076  12.801  1.00  0.00     0.243 C 
HETATM    7  N2  UNL     1      22.016  26.962  12.012  1.00  0.00    -0.347 N 
HETATM    8  C5  UNL     1      23.400  26.707  11.712  1.00  0.00     0.146 C 
HETATM    9  C22 UNL     1      20.998  26.048  11.521  1.00  0.00     0.146 C 
HETATM   10  C4  UNL     1      23.695  26.032  10.429  1.00  0.00     0.148 C 
HETATM   11  N1  UNL     1      22.640  25.130  10.054  1.00  0.00    -0.325 N 
HETATM   12  C3  UNL     1      22.557  24.667   8.729  1.00  0.00     0.362 C 
HETATM   13  C23 UNL     1      21.690  24.738  11.089  1.00  0.00     0.148 C 
HETATM   14  O2  UNL     1      21.669  23.882   8.311  1.00  0.00    -0.238 OA
HETATM   15  O3  UNL     1      22.644  28.796  13.223  1.00  0.00    -0.271 OA
BRANCH  12  16
HETATM   16  O1  UNL     1      23.499  25.088   7.804  1.00  0.00    -0.304 OA
BRANCH  16  17
HETATM   17  C2  UNL     1      24.030  24.230   6.811  1.00  0.00     0.176 C 
HETATM   18  C1  UNL     1      23.407  24.395   5.464  1.00  0.00     0.034 C 
ENDBRANCH  16  17
ENDBRANCH  12  16
ENDBRANCH   5   6
BRANCH   5  19
HETATM   19  C8  UNL     1      19.437  28.772  11.965  1.00  0.00     0.104 C 
BRANCH  19  20
HETATM   20  C9  UNL     1      18.027  29.094  12.305  1.00  0.00     0.233 C 
HETATM   21  O4  UNL     1      17.597  30.199  12.547  1.00  0.00    -0.307 OA
ENDBRANCH  19  20
ENDBRANCH   5  19
ENDBRANCH   1   5
BRANCH   3  22
HETATM   22  C11 UNL     1      20.378  31.133  16.008  1.00  0.00     0.078 C 
BRANCH  22  23
HETATM   23  C12 UNL     1      19.087  31.503  16.639  1.00  0.00     0.014 C 
BRANCH  23  24
HETATM   24  C13 UNL     1      17.861  31.316  15.822  1.00  0.00     0.002 C 
BRANCH  24  25
HETATM   25  C14 UNL     1      17.241  32.623  15.382  1.00  0.00     0.020 C 
BRANCH  25  26
HETATM   26  C15 UNL     1      17.710  33.785  16.210  1.00  0.00     0.122 C 
BRANCH  26  27
HETATM   27  N4  UNL     1      16.652  34.748  16.356  1.00  0.00    -0.365 N 
HETATM   28  C16 UNL     1      16.181  35.213  17.611  1.00  0.00     0.183 C 
HETATM   29  N5  UNL     1      15.703  34.263  18.553  1.00  0.00    -0.064 NA
HETATM   30  N6  UNL     1      16.176  36.448  17.910  1.00  0.00    -0.369 N 
HETATM   31  C17 UNL     1      16.627  37.507  17.059  1.00  0.00     0.148 C 
ATOM     32  H6  UNL     1      15.821  36.705  18.831  1.00  0.00     0.161 HD
ATOM     33  H4  UNL     1      16.217  35.117  15.510  1.00  0.00     0.162 HD
ENDBRANCH  26  27
ENDBRANCH  25  26
ENDBRANCH  24  25
ENDBRANCH  23  24
ENDBRANCH  22  23
BRANCH  22  34
HETATM   34  C18 UNL     1      20.870  32.172  15.021  1.00  0.00     0.018 C 
BRANCH  34  35
HETATM   35  C19 UNL     1      22.181  32.781  15.394  1.00  0.00    -0.022 C 
HETATM   36  C20 UNL     1      23.215  32.226  14.414  1.00  0.00     0.009 C 
HETATM   37  C21 UNL     1      22.609  32.409  16.783  1.00  0.00     0.009 C 
ENDBRANCH  34  35
ENDBRANCH  22  34
ENDBRANCH   3  22
TORSDOF 14
ENDMDL
MODEL 5
REMARK VINA RESULT: -7.347555984      2.146      4.126
REMARK  14 active torsions:
REMARK  status: ('A' for Active; 'I' for Inactive)
REMARK    1  A    between atoms: C2_2  and  O1_3 
REMARK    2  A    between atoms: O1_3  and  C3_4 
REMARK       I    between atoms: C3_4  and  N1_6 
REMARK       I    between atoms: N2_9  and  C6_10 
REMARK    3  A    between atoms: C6_10  and  C7_12 
REMARK    4  A    between atoms: C7_12  and  C8_13 
REMARK    5  A    between atoms: C7_12  and  N3_16 
REMARK    6  A    between atoms: C8_13  and  C9_14 
REMARK       I    between atoms: N3_16  and  C10_18 
REMARK    7  A    between atoms: C10_18  and  C11_20 
REMARK    8  A    between atoms: C11_20  and  C12_21 
REMARK    9  A    between atoms: C11_20  and  C18_32 
REMARK   10  A    between atoms: C12_21  and  C13_22 
REMARK   11  A    between atoms: C13_22  and  C14_23 
REMARK   12  A    between atoms: C14_23  and  C15_24 
REMARK   13  A    between atoms: C15_24  and  N4_25 
REMARK       I    between atoms: N4_25  and  C16_27 
REMARK   14  A    between atoms: C18_32  and  C19_33 
ROOT
HETATM    1  N3  UNL     1      21.573  29.881  12.987  1.00  0.00    -0.347 N 
ATOM      2  H3  UNL     1      21.655  30.160  12.009  1.00  0.00     0.163 HD
HETATM    3  C10 UNL     1      21.583  28.485  13.284  1.00  0.00     0.222 C 
HETATM    4  O5  UNL     1      21.473  28.196  14.502  1.00  0.00    -0.273 OA
ENDROOT
BRANCH   1   5
HETATM    5  C7  UNL     1      21.456  30.928  13.983  1.00  0.00     0.183 C 
BRANCH   5   6
HETATM    6  C6  UNL     1      20.146  31.595  13.745  1.00  0.00     0.243 C 
HETATM    7  N2  UNL     1      19.297  32.114  14.744  1.00  0.00    -0.347 N 
HETATM    8  C5  UNL     1      18.063  32.751  14.371  1.00  0.00     0.146 C 
HETATM    9  C22 UNL     1      19.638  31.985  16.151  1.00  0.00     0.146 C 
HETATM   10  C4  UNL     1      17.564  33.822  15.262  1.00  0.00     0.148 C 
HETATM   11  N1  UNL     1      17.930  33.580  16.631  1.00  0.00    -0.325 N 
HETATM   12  C3  UNL     1      17.865  34.628  17.566  1.00  0.00     0.362 C 
HETATM   13  C23 UNL     1      18.362  32.232  16.984  1.00  0.00     0.148 C 
HETATM   14  O2  UNL     1      18.169  34.510  18.780  1.00  0.00    -0.238 OA
HETATM   15  O3  UNL     1      19.731  31.720  12.535  1.00  0.00    -0.271 OA
BRANCH  12  16
HETATM   16  O1  UNL     1      17.445  35.881  17.150  1.00  0.00    -0.304 OA
BRANCH  16  17
HETATM   17  C2  UNL     1      16.167  36.402  17.468  1.00  0.00     0.176 C 
HETATM   18  C1  UNL     1      15.030  35.516  17.076  1.00  0.00     0.034 C 
ENDBRANCH  16  17
ENDBRANCH  12  16
ENDBRANCH   5   6
BRANCH   5  19
HETATM   19  C8  UNL     1      22.611  31.857  13.726  1.00  0.00     0.104 C 
BRANCH  19  20
HETATM   20  C9  UNL     1      23.193  32.416  14.974  1.00  0.00     0.233 C 
HETATM   21  O4  UNL     1      23.052  31.953  16.084  1.00  0.00    -0.307 OA
ENDBRANCH  19  20
ENDBRANCH   5  19
ENDBRANCH   1   5
BRANCH   3  22
HETATM   22  C11 UNL     1      21.714  27.452  12.259  1.00  0.00     0.078 C 
BRANCH  22  23
HETATM   23  C12 UNL     1      22.969  27.620  11.486  1.00  0.00     0.014 C 
BRANCH  23  24
HETATM   24  C13 UNL     1      24.234  27.238  12.164  1.00  0.00     0.002 C 
BRANCH  24  25
HETATM   25  C14 UNL     1      24.999  26.165  11.422  1.00  0.00     0.020 C 
BRANCH  25  26
HETATM   26  C15 UNL     1      24.553  26.029   9.994  1.00  0.00     0.122 C 
BRANCH  26  27
HETATM   27  N4  UNL     1      24.194  24.665   9.715  1.00  0.00    -0.365 N 
HETATM   28  C16 UNL     1      22.998  24.288   9.051  1.00  0.00     0.183 C 
HETATM   29  N5  UNL     1      21.755  24.702   9.598  1.00  0.00    -0.064 NA
HETATM   30  N6  UNL     1      23.013  23.594   7.986  1.00  0.00    -0.369 N 
HETATM   31  C17 UNL     1      24.190  23.111   7.329  1.00  0.00     0.148 C 
ATOM     32  H6  UNL     1      22.113  23.361   7.566  1.00  0.00     0.161 HD
ATOM     33  H4  UNL     1      24.834  23.928  10.012  1.00  0.00     0.162 HD
ENDBRANCH  26  27
ENDBRANCH  25  26
ENDBRANCH  24  25
ENDBRANCH  23  24
ENDBRANCH  22  23
BRANCH  22  34
HETATM   34  C18 UNL     1      20.476  27.490  11.387  1.00  0.00     0.018 C 
BRANCH  34  35
HETATM   35  C19 UNL     1      19.200  27.346  12.148  1.00  0.00    -0.022 C 
HETATM   36  C20 UNL     1      18.591  26.007  11.730  1.00  0.00     0.009 C 
HETATM   37  C21 UNL     1      18.214  28.429  11.820  1.00  0.00     0.009 C 
ENDBRANCH  34  35
ENDBRANCH  22  34
ENDBRANCH   3  22
TORSDOF 14
ENDMDL
