MODEL 1
REMARK VINA RESULT: -8.422014153      0.000      0.000
REMARK  13 active torsions:
REMARK  status: ('A' for Active; 'I' for Inactive)
REMARK    1  A    between atoms: C2_2  and  C3_3 
REMARK    2  A    between atoms: C5_7  and  C6_8 
REMARK       I    between atoms: C6_8  and  N1_10 
REMARK    3  A    between atoms: C7_12  and  C8_13 
REMARK    4  A    between atoms: C8_13  and  C9_14 
REMARK    5  A    between atoms: C9_14  and  C10_15 
REMARK    6  A    between atoms: C10_15  and  N2_16 
REMARK    7  A    between atoms: C13_22  and  C14_23 
REMARK       I    between atoms: C14_23  and  N5_25 
REMARK    8  A    between atoms: N5_25  and  C15_27 
REMARK    9  A    between atoms: C15_27  and  C16_28 
REMARK   10  A    between atoms: C16_28  and  C17_29 
REMARK   11  A    between atoms: C17_29  and  C18_30 
REMARK   12  A    between atoms: C18_30  and  C19_31 
REMARK   13  A    between atoms: C19_31  and  C20_32 
ROOT
HETATM    1  C3  UNL     1      21.390  31.968  15.547  1.00  0.00     0.158 C 
HETATM    2  O1  UNL     1      20.814  32.172  14.280  1.00  0.00    -0.311 OA
HETATM    3  C4  UNL     1      19.857  31.271  13.849  1.00  0.00     0.277 C 
HETATM    4  O2  UNL     1      19.412  31.408  12.681  1.00  0.00    -0.264 OA
HETATM    5  C5  UNL     1      19.319  30.159  14.660  1.00  0.00     0.130 C 
HETATM    6  C12 UNL     1      17.867  30.511  14.967  1.00  0.00     0.044 C 
HETATM    7  C13 UNL     1      17.792  31.446  16.131  1.00  0.00     0.080 C 
HETATM    8  C22 UNL     1      19.042  32.252  16.367  1.00  0.00     0.021 C 
HETATM    9  C23 UNL     1      20.294  31.448  16.463  1.00  0.00     0.021 C 
HETATM   10  C24 UNL     1      20.009  30.018  15.986  1.00  0.00     0.037 C 
ENDROOT
BRANCH   5  11
HETATM   11  C6  UNL     1      19.425  28.878  13.935  1.00  0.00     0.240 C 
HETATM   12  O3  UNL     1      18.538  27.998  14.173  1.00  0.00    -0.272 OA
HETATM   13  N1  UNL     1      20.476  28.678  13.025  1.00  0.00    -0.340 N 
HETATM   14  C7  UNL     1      21.539  28.026  13.350  1.00  0.00     0.064 C 
ATOM     15  H1  UNL     1      20.395  29.059  12.083  1.00  0.00     0.167 HD
BRANCH  14  16
HETATM   16  C8  UNL     1      22.648  27.804  12.418  1.00  0.00     0.046 C 
BRANCH  16  17
HETATM   17  C9  UNL     1      22.769  26.376  12.014  1.00  0.00     0.025 C 
BRANCH  17  18
HETATM   18  C10 UNL     1      21.809  25.994  10.919  1.00  0.00     0.122 C 
BRANCH  18  19
HETATM   19  N2  UNL     1      20.660  25.363  11.485  1.00  0.00    -0.367 N 
HETATM   20  C11 UNL     1      19.464  25.845  11.331  1.00  0.00     0.196 C 
HETATM   21  N3  UNL     1      18.394  25.135  11.938  1.00  0.00    -0.067 NA
HETATM   22  N4  UNL     1      19.304  27.026  10.580  1.00  0.00    -0.067 NA
ATOM     23  H2  UNL     1      20.783  24.507  12.027  1.00  0.00     0.161 HD
ENDBRANCH  18  19
ENDBRANCH  17  18
ENDBRANCH  16  17
ENDBRANCH  14  16
ENDBRANCH   5  11
BRANCH   7  24
HETATM   24  C14 UNL     1      16.691  32.427  15.866  1.00  0.00     0.221 C 
HETATM   25  O4  UNL     1      15.495  32.157  16.126  1.00  0.00    -0.273 OA
HETATM   26  N5  UNL     1      17.023  33.673  15.314  1.00  0.00    -0.361 N 
ATOM     27  H5  UNL     1      18.003  33.869  15.108  1.00  0.00     0.162 HD
BRANCH  26  28
HETATM   28  C15 UNL     1      16.058  34.674  15.029  1.00  0.00     0.122 C 
BRANCH  28  29
HETATM   29  C16 UNL     1      16.091  35.839  15.984  1.00  0.00     0.020 C 
BRANCH  29  30
HETATM   30  C17 UNL     1      15.255  35.414  17.187  1.00  0.00     0.002 C 
BRANCH  30  31
HETATM   31  C18 UNL     1      16.086  35.100  18.372  1.00  0.00     0.007 C 
BRANCH  31  32
HETATM   32  C19 UNL     1      17.236  36.045  18.501  1.00  0.00     0.077 C 
BRANCH  32  33
HETATM   33  C20 UNL     1      18.564  35.431  18.626  1.00  0.00     0.123 C 
HETATM   34  C21 UNL     1      19.588  35.786  17.610  1.00  0.00     0.091 C 
HETATM   35  O5  UNL     1      18.853  34.670  19.493  1.00  0.00    -0.298 OA
ENDBRANCH  32  33
ENDBRANCH  31  32
ENDBRANCH  30  31
ENDBRANCH  29  30
ENDBRANCH  28  29
ENDBRANCH  26  28
ENDBRANCH   7  24
BRANCH   1  36
HETATM   36  C2  UNL     1      22.079  33.132  16.086  1.00  0.00    -0.005 C 
HETATM   37  C1  UNL     1      22.474  33.152  17.345  1.00  0.00     0.009 C 
ENDBRANCH   1  36
TORSDOF 13
ENDMDL
MODEL 2
REMARK VINA RESULT: -8.160549795      2.064      3.951
REMARK  13 active torsions:
REMARK  status: ('A' for Active; 'I' for Inactive)
REMARK    1  A    between atoms: C2_2  and  C3_3 
REMARK    2  A    between atoms: C5_7  and  C6_8 
REMARK       I    between atoms: C6_8  and  N1_10 
REMARK    3  A    between atoms: C7_12  and  C8_13 
REMARK    4  A    between atoms: C8_13  and  C9_14 
REMARK    5  A    between atoms: C9_14  and  C10_15 
REMARK    6  A    between atoms: C10_15  and  N2_16 
REMARK    7  A    between atoms: C13_22  and  C14_23 
REMARK       I    between atoms: C14_23  and  N5_25 
REMARK    8  A    between atoms: N5_25  and  C15_27 
REMARK    9  A    between atoms: C15_27  and  C16_28 
REMARK   10  A    between atoms: C16_28  and  C17_29 
REMARK   11  A    between atoms: C17_29  and  C18_30 
REMARK   12  A    between atoms: C18_30  and  C19_31 
REMARK   13  A    between atoms: C19_31  and  C20_32 
ROOT
HETATM    1  C3  UNL     1      18.149  30.966  14.093  1.00  0.00     0.158 C 
HETATM    2  O1  UNL     1      18.783  30.087  14.990  1.00  0.00    -0.311 OA
HETATM    3  C4  UNL     1      19.967  29.493  14.592  1.00  0.00     0.277 C 
HETATM    4  O2  UNL     1      20.480  28.642  15.362  1.00  0.00    -0.264 OA
HETATM    5  C5  UNL     1      20.674  29.786  13.328  1.00  0.00     0.130 C 
HETATM    6  C12 UNL     1      21.960  30.513  13.711  1.00  0.00     0.044 C 
HETATM    7  C13 UNL     1      21.690  31.965  13.940  1.00  0.00     0.080 C 
HETATM    8  C22 UNL     1      20.266  32.286  14.307  1.00  0.00     0.021 C 
HETATM    9  C23 UNL     1      19.242  31.739  13.371  1.00  0.00     0.021 C 
HETATM   10  C24 UNL     1      19.910  30.723  12.436  1.00  0.00     0.037 C 
ENDROOT
BRANCH   5  11
HETATM   11  C6  UNL     1      20.953  28.545  12.580  1.00  0.00     0.240 C 
HETATM   12  O3  UNL     1      20.001  27.710  12.461  1.00  0.00    -0.272 OA
HETATM   13  N1  UNL     1      22.229  28.333  12.035  1.00  0.00    -0.340 N 
HETATM   14  C7  UNL     1      23.106  27.598  12.630  1.00  0.00     0.064 C 
ATOM     15  H1  UNL     1      22.469  28.772  11.147  1.00  0.00     0.167 HD
BRANCH  14  16
HETATM   16  C8  UNL     1      24.444  27.363  12.080  1.00  0.00     0.046 C 
BRANCH  16  17
HETATM   17  C9  UNL     1      24.400  26.887  10.670  1.00  0.00     0.025 C 
BRANCH  17  18
HETATM   18  C10 UNL     1      23.923  25.463  10.548  1.00  0.00     0.122 C 
BRANCH  18  19
HETATM   19  N2  UNL     1      22.703  25.426   9.807  1.00  0.00    -0.367 N 
HETATM   20  C11 UNL     1      21.584  25.044  10.344  1.00  0.00     0.196 C 
HETATM   21  N3  UNL     1      20.431  25.047   9.514  1.00  0.00    -0.067 NA
HETATM   22  N4  UNL     1      21.583  24.656  11.698  1.00  0.00    -0.067 NA
ATOM     23  H2  UNL     1      22.711  25.710   8.827  1.00  0.00     0.161 HD
ENDBRANCH  18  19
ENDBRANCH  17  18
ENDBRANCH  16  17
ENDBRANCH  14  16
ENDBRANCH   5  11
BRANCH   7  24
HETATM   24  C14 UNL     1      22.543  32.418  15.087  1.00  0.00     0.221 C 
HETATM   25  O4  UNL     1      23.791  32.480  14.991  1.00  0.00    -0.273 OA
HETATM   26  N5  UNL     1      21.914  32.777  16.288  1.00  0.00    -0.361 N 
ATOM     27  H5  UNL     1      20.897  32.716  16.342  1.00  0.00     0.162 HD
BRANCH  26  28
HETATM   28  C15 UNL     1      22.628  33.223  17.430  1.00  0.00     0.122 C 
BRANCH  28  29
HETATM   29  C16 UNL     1      21.969  34.373  18.148  1.00  0.00     0.020 C 
BRANCH  29  30
HETATM   30  C17 UNL     1      20.663  34.633  17.405  1.00  0.00     0.002 C 
BRANCH  30  31
HETATM   31  C18 UNL     1      19.563  35.031  18.313  1.00  0.00     0.007 C 
BRANCH  31  32
HETATM   32  C19 UNL     1      18.299  34.298  17.997  1.00  0.00     0.077 C 
BRANCH  32  33
HETATM   33  C20 UNL     1      17.053  35.053  18.181  1.00  0.00     0.123 C 
HETATM   34  C21 UNL     1      16.936  36.370  17.504  1.00  0.00     0.091 C 
HETATM   35  O5  UNL     1      16.144  34.662  18.841  1.00  0.00    -0.298 OA
ENDBRANCH  32  33
ENDBRANCH  31  32
ENDBRANCH  30  31
ENDBRANCH  29  30
ENDBRANCH  28  29
ENDBRANCH  26  28
ENDBRANCH   7  24
BRANCH   1  36
HETATM   36  C2  UNL     1      17.150  31.829  14.706  1.00  0.00    -0.005 C 
HETATM   37  C1  UNL     1      16.813  31.670  15.972  1.00  0.00     0.009 C 
ENDBRANCH   1  36
TORSDOF 13
ENDMDL
MODEL 3
REMARK VINA RESULT: -8.108899489      2.613      9.051
REMARK  13 active torsions:
REMARK  status: ('A' for Active; 'I' for Inactive)
REMARK    1  A    between atoms: C2_2  and  C3_3 
REMARK    2  A    between atoms: C5_7  and  C6_8 
REMARK       I    between atoms: C6_8  and  N1_10 
REMARK    3  A    between atoms: C7_12  and  C8_13 
REMARK    4  A    between atoms: C8_13  and  C9_14 
REMARK    5  A    between atoms: C9_14  and  C10_15 
REMARK    6  A    between atoms: C10_15  and  N2_16 
REMARK    7  A    between atoms: C13_22  and  C14_23 
REMARK       I    between atoms: C14_23  and  N5_25 
REMARK    8  A    between atoms: N5_25  and  C15_27 
REMARK    9  A    between atoms: C15_27  and  C16_28 
REMARK   10  A    between atoms: C16_28  and  C17_29 
REMARK   11  A    between atoms: C17_29  and  C18_30 
REMARK   12  A    between atoms: C18_30  and  C19_31 
REMARK   13  A    between atoms: C19_31  and  C20_32 
ROOT
HETATM    1  C3  UNL     1      21.363  32.334  14.670  1.00  0.00     0.158 C 
HETATM    2  O1  UNL     1      21.138  31.333  15.632  1.00  0.00    -0.311 OA
HETATM    3  C4  UNL     1      19.834  31.090  16.025  1.00  0.00     0.277 C 
HETATM    4  O2  UNL     1      19.649  30.257  16.948  1.00  0.00    -0.264 OA
HETATM    5  C5  UNL     1      18.642  31.738  15.439  1.00  0.00     0.130 C 
HETATM    6  C12 UNL     1      17.893  30.652  14.673  1.00  0.00     0.044 C 
HETATM    7  C13 UNL     1      18.497  30.457  13.320  1.00  0.00     0.080 C 
HETATM    8  C22 UNL     1      19.937  30.882  13.211  1.00  0.00     0.021 C 
HETATM    9  C23 UNL     1      20.214  32.272  13.676  1.00  0.00     0.021 C 
HETATM   10  C24 UNL     1      18.990  32.800  14.435  1.00  0.00     0.037 C 
ENDROOT
BRANCH   5  11
HETATM   11  C6  UNL     1      17.800  32.341  16.490  1.00  0.00     0.240 C 
HETATM   12  O3  UNL     1      16.539  32.234  16.359  1.00  0.00    -0.272 OA
HETATM   13  N1  UNL     1      18.403  32.996  17.575  1.00  0.00    -0.340 N 
HETATM   14  C7  UNL     1      18.522  34.279  17.612  1.00  0.00     0.064 C 
ATOM     15  H1  UNL     1      18.757  32.441  18.355  1.00  0.00     0.167 HD
BRANCH  14  16
HETATM   16  C8  UNL     1      19.148  34.984  18.734  1.00  0.00     0.046 C 
BRANCH  16  17
HETATM   17  C9  UNL     1      18.998  36.462  18.626  1.00  0.00     0.025 C 
BRANCH  17  18
HETATM   18  C10 UNL     1      17.725  36.872  17.934  1.00  0.00     0.122 C 
BRANCH  18  19
HETATM   19  N2  UNL     1      17.999  37.920  17.004  1.00  0.00    -0.367 N 
HETATM   20  C11 UNL     1      17.239  38.968  16.904  1.00  0.00     0.196 C 
HETATM   21  N3  UNL     1      17.607  39.949  15.945  1.00  0.00    -0.067 NA
HETATM   22  N4  UNL     1      16.112  39.066  17.743  1.00  0.00    -0.067 NA
ATOM     23  H2  UNL     1      18.818  37.843  16.400  1.00  0.00     0.161 HD
ENDBRANCH  18  19
ENDBRANCH  17  18
ENDBRANCH  16  17
ENDBRANCH  14  16
ENDBRANCH   5  11
BRANCH   7  24
HETATM   24  C14 UNL     1      18.456  28.992  13.003  1.00  0.00     0.221 C 
HETATM   25  O4  UNL     1      17.844  28.180  13.735  1.00  0.00    -0.273 OA
HETATM   26  N5  UNL     1      19.123  28.537  11.857  1.00  0.00    -0.361 N 
ATOM     27  H5  UNL     1      19.616  29.217  11.278  1.00  0.00     0.162 HD
BRANCH  26  28
HETATM   28  C15 UNL     1      19.141  27.173  11.465  1.00  0.00     0.122 C 
BRANCH  28  29
HETATM   29  C16 UNL     1      20.528  26.602  11.314  1.00  0.00     0.020 C 
BRANCH  29  30
HETATM   30  C17 UNL     1      21.484  27.768  11.544  1.00  0.00     0.002 C 
BRANCH  30  31
HETATM   31  C18 UNL     1      22.517  27.464  12.560  1.00  0.00     0.007 C 
BRANCH  31  32
HETATM   32  C19 UNL     1      23.890  27.486  11.970  1.00  0.00     0.077 C 
BRANCH  32  33
HETATM   33  C20 UNL     1      24.331  26.246  11.318  1.00  0.00     0.123 C 
HETATM   34  C21 UNL     1      24.311  26.201   9.833  1.00  0.00     0.091 C 
HETATM   35  O5  UNL     1      24.699  25.288  11.918  1.00  0.00    -0.298 OA
ENDBRANCH  32  33
ENDBRANCH  31  32
ENDBRANCH  30  31
ENDBRANCH  29  30
ENDBRANCH  28  29
ENDBRANCH  26  28
ENDBRANCH   7  24
BRANCH   1  36
HETATM   36  C2  UNL     1      22.671  32.271  14.034  1.00  0.00    -0.005 C 
HETATM   37  C1  UNL     1      23.769  32.473  14.738  1.00  0.00     0.009 C 
ENDBRANCH   1  36
TORSDOF 13
ENDMDL
MODEL 4
REMARK VINA RESULT: -8.060499920      2.172      8.471
REMARK  13 active torsions:
REMARK  status: ('A' for Active; 'I' for Inactive)
REMARK    1  A    between atoms: C2_2  and  C3_3 
REMARK    2  A    between atoms: C5_7  and  C6_8 
REMARK       I    between atoms: C6_8  and  N1_10 
REMARK    3  A    between atoms: C7_12  and  C8_13 
REMARK    4  A    between atoms: C8_13  and  C9_14 
REMARK    5  A    between atoms: C9_14  and  C10_15 
REMARK    6  A    between atoms: C10_15  and  N2_16 
REMARK    7  A    between atoms: C13_22  and  C14_23 
REMARK       I    between atoms: C14_23  and  N5_25 
REMARK    8  A    between atoms: N5_25  and  C15_27 
REMARK    9  A    between atoms: C15_27  and  C16_28 
REMARK   10  A    between atoms: C16_28  and  C17_29 
REMARK   11  A    between atoms: C17_29  and  C18_30 
REMARK   12  A    between atoms: C18_30  and  C19_31 
REMARK   13  A    between atoms: C19_31  and  C20_32 
ROOT
HETATM    1  C3  UNL     1      17.810  32.095  15.124  1.00  0.00     0.158 C 
HETATM    2  O1  UNL     1      18.377  32.397  13.872  1.00  0.00    -0.311 OA
HETATM    3  C4  UNL     1      19.610  31.850  13.568  1.00  0.00     0.277 C 
HETATM    4  O2  UNL     1      20.150  32.196  12.487  1.00  0.00    -0.264 OA
HETATM    5  C5  UNL     1      20.339  30.888  14.421  1.00  0.00     0.130 C 
HETATM    6  C12 UNL     1      20.326  29.555  13.678  1.00  0.00     0.044 C 
HETATM    7  C13 UNL     1      19.035  28.841  13.912  1.00  0.00     0.080 C 
HETATM    8  C22 UNL     1      17.884  29.735  14.290  1.00  0.00     0.021 C 
HETATM    9  C23 UNL     1      18.154  30.648  15.438  1.00  0.00     0.021 C 
HETATM   10  C24 UNL     1      19.659  30.644  15.738  1.00  0.00     0.037 C 
ENDROOT
BRANCH   5  11
HETATM   11  C6  UNL     1      21.716  31.352  14.680  1.00  0.00     0.240 C 
HETATM   12  O3  UNL     1      22.658  30.520  14.481  1.00  0.00    -0.272 OA
HETATM   13  N1  UNL     1      21.936  32.665  15.125  1.00  0.00    -0.340 N 
HETATM   14  C7  UNL     1      22.128  32.934  16.371  1.00  0.00     0.064 C 
ATOM     15  H1  UNL     1      21.944  33.424  14.445  1.00  0.00     0.167 HD
BRANCH  14  16
HETATM   16  C8  UNL     1      22.359  34.297  16.859  1.00  0.00     0.046 C 
BRANCH  16  17
HETATM   17  C9  UNL     1      21.146  35.152  16.743  1.00  0.00     0.025 C 
BRANCH  17  18
HETATM   18  C10 UNL     1      19.904  34.479  17.265  1.00  0.00     0.122 C 
BRANCH  18  19
HETATM   19  N2  UNL     1      18.747  35.123  16.731  1.00  0.00    -0.367 N 
HETATM   20  C11 UNL     1      17.707  35.386  17.463  1.00  0.00     0.196 C 
HETATM   21  N3  UNL     1      16.611  36.030  16.828  1.00  0.00    -0.067 NA
HETATM   22  N4  UNL     1      17.728  35.021  18.823  1.00  0.00    -0.067 NA
ATOM     23  H2  UNL     1      18.738  35.386  15.746  1.00  0.00     0.161 HD
ENDBRANCH  18  19
ENDBRANCH  17  18
ENDBRANCH  16  17
ENDBRANCH  14  16
ENDBRANCH   5  11
BRANCH   7  24
HETATM   24  C14 UNL     1      18.647  28.157  12.635  1.00  0.00     0.221 C 
HETATM   25  O4  UNL     1      18.301  28.809  11.622  1.00  0.00    -0.273 OA
HETATM   26  N5  UNL     1      18.677  26.756  12.590  1.00  0.00    -0.361 N 
ATOM     27  H5  UNL     1      18.959  26.248  13.428  1.00  0.00     0.162 HD
BRANCH  26  28
HETATM   28  C15 UNL     1      18.334  26.013  11.431  1.00  0.00     0.122 C 
BRANCH  28  29
HETATM   29  C16 UNL     1      19.472  25.845  10.457  1.00  0.00     0.020 C 
BRANCH  29  30
HETATM   30  C17 UNL     1      20.591  25.167  11.240  1.00  0.00     0.002 C 
BRANCH  30  31
HETATM   31  C18 UNL     1      21.930  25.442  10.670  1.00  0.00     0.007 C 
BRANCH  31  32
HETATM   32  C19 UNL     1      22.721  26.358  11.548  1.00  0.00     0.077 C 
BRANCH  32  33
HETATM   33  C20 UNL     1      24.157  26.071  11.650  1.00  0.00     0.123 C 
HETATM   34  C21 UNL     1      25.044  27.152  12.152  1.00  0.00     0.091 C 
HETATM   35  O5  UNL     1      24.638  25.025  11.351  1.00  0.00    -0.298 OA
ENDBRANCH  32  33
ENDBRANCH  31  32
ENDBRANCH  30  31
ENDBRANCH  29  30
ENDBRANCH  28  29
ENDBRANCH  26  28
ENDBRANCH   7  24
BRANCH   1  36
HETATM   36  C2  UNL     1      16.384  32.374  15.218  1.00  0.00    -0.005 C 
HETATM   37  C1  UNL     1      15.782  32.397  16.393  1.00  0.00     0.009 C 
ENDBRANCH   1  36
TORSDOF 13
ENDMDL
MODEL 5
REMARK VINA RESULT: -8.053874311      1.961      3.966
REMARK  13 active torsions:
REMARK  status: ('A' for Active; 'I' for Inactive)
REMARK    1  A    between atoms: C2_2  and  C3_3 
REMARK    2  A    between atoms: C5_7  and  C6_8 
REMARK       I    between atoms: C6_8  and  N1_10 
REMARK    3  A    between atoms: C7_12  and  C8_13 
REMARK    4  A    between atoms: C8_13  and  C9_14 
REMARK    5  A    between atoms: C9_14  and  C10_15 
REMARK    6  A    between atoms: C10_15  and  N2_16 
REMARK    7  A    between atoms: C13_22  and  C14_23 
REMARK       I    between atoms: C14_23  and  N5_25 
REMARK    8  A    between atoms: N5_25  and  C15_27 
REMARK    9  A    between atoms: C15_27  and  C16_28 
REMARK   10  A    between atoms: C16_28  and  C17_29 
REMARK   11  A    between atoms: C17_29  and  C18_30 
REMARK   12  A    between atoms: C18_30  and  C19_31 
REMARK   13  A    between atoms: C19_31  and  C20_32 
ROOT
HETATM    1  C3  UNL     1      17.632  31.882  15.066  1.00  0.00     0.158 C 
HETATM    2  O1  UNL     1      18.148  31.217  16.193  1.00  0.00    -0.311 OA
HETATM    3  C4  UNL     1      19.369  30.579  16.070  1.00  0.00     0.277 C 
HETATM    4  O2  UNL     1      19.780  29.913  17.054  1.00  0.00    -0.264 OA
HETATM    5  C5  UNL     1      20.225  30.623  14.867  1.00  0.00     0.130 C 
HETATM    6  C12 UNL     1      21.459  31.439  15.244  1.00  0.00     0.044 C 
HETATM    7  C13 UNL     1      21.170  32.901  15.138  1.00  0.00     0.080 C 
HETATM    8  C22 UNL     1      19.713  33.261  15.258  1.00  0.00     0.021 C 
HETATM    9  C23 UNL     1      18.807  32.514  14.338  1.00  0.00     0.021 C 
HETATM   10  C24 UNL     1      19.579  31.342  13.717  1.00  0.00     0.037 C 
ENDROOT
BRANCH   5  11
HETATM   11  C6  UNL     1      20.588  29.262  14.428  1.00  0.00     0.240 C 
HETATM   12  O3  UNL     1      21.819  29.029  14.208  1.00  0.00    -0.272 OA
HETATM   13  N1  UNL     1      19.586  28.291  14.272  1.00  0.00    -0.340 N 
HETATM   14  C7  UNL     1      19.090  28.008  13.116  1.00  0.00     0.064 C 
ATOM     15  H1  UNL     1      19.242  27.797  15.095  1.00  0.00     0.167 HD
BRANCH  14  16
HETATM   16  C8  UNL     1      18.044  26.999  12.929  1.00  0.00     0.046 C 
BRANCH  16  17
HETATM   17  C9  UNL     1      18.376  26.037  11.841  1.00  0.00     0.025 C 
BRANCH  17  18
HETATM   18  C10 UNL     1      19.528  26.496  10.986  1.00  0.00     0.122 C 
BRANCH  18  19
HETATM   19  N2  UNL     1      20.619  25.585  11.121  1.00  0.00    -0.367 N 
HETATM   20  C11 UNL     1      21.839  25.994  11.298  1.00  0.00     0.196 C 
HETATM   21  N3  UNL     1      22.846  25.000  11.420  1.00  0.00    -0.067 NA
HETATM   22  N4  UNL     1      22.084  27.380  11.359  1.00  0.00    -0.067 NA
ATOM     23  H2  UNL     1      20.434  24.583  11.076  1.00  0.00     0.161 HD
ENDBRANCH  18  19
ENDBRANCH  17  18
ENDBRANCH  16  17
ENDBRANCH  14  16
ENDBRANCH   5  11
BRANCH   7  24
HETATM   24  C14 UNL     1      21.879  33.595  16.262  1.00  0.00     0.221 C 
HETATM   25  O4  UNL     1      22.692  32.989  16.997  1.00  0.00    -0.273 OA
HETATM   26  N5  UNL     1      21.614  34.955  16.481  1.00  0.00    -0.361 N 
ATOM     27  H5  UNL     1      20.945  35.425  15.871  1.00  0.00     0.162 HD
BRANCH  26  28
HETATM   28  C15 UNL     1      22.234  35.705  17.514  1.00  0.00     0.122 C 
BRANCH  28  29
HETATM   29  C16 UNL     1      21.264  36.465  18.380  1.00  0.00     0.020 C 
BRANCH  29  30
HETATM   30  C17 UNL     1      20.302  35.423  18.940  1.00  0.00     0.002 C 
BRANCH  30  31
HETATM   31  C18 UNL     1      18.890  35.864  18.880  1.00  0.00     0.007 C 
BRANCH  31  32
HETATM   32  C19 UNL     1      18.034  34.865  18.169  1.00  0.00     0.077 C 
BRANCH  32  33
HETATM   33  C20 UNL     1      16.595  35.158  18.135  1.00  0.00     0.123 C 
HETATM   34  C21 UNL     1      16.113  36.139  17.130  1.00  0.00     0.091 C 
HETATM   35  O5  UNL     1      15.807  34.650  18.867  1.00  0.00    -0.298 OA
ENDBRANCH  32  33
ENDBRANCH  31  32
ENDBRANCH  30  31
ENDBRANCH  29  30
ENDBRANCH  28  29
ENDBRANCH  26  28
ENDBRANCH   7  24
BRANCH   1  36
HETATM   36  C2  UNL     1      16.569  32.831  15.364  1.00  0.00    -0.005 C 
HETATM   37  C1  UNL     1      15.522  32.462  16.078  1.00  0.00     0.009 C 
ENDBRANCH   1  36
TORSDOF 13
ENDMDL
