MODEL 1
REMARK VINA RESULT: -7.536024917      0.000      0.000
REMARK  12 active torsions:
REMARK  status: ('A' for Active; 'I' for Inactive)
REMARK    1  A    between atoms: O1_2  and  C2_3 
REMARK    2  A    between atoms: N2_12  and  C8_13 
REMARK    3  A    between atoms: C8_13  and  C9_14 
REMARK    4  A    between atoms: C9_14  and  C10_15 
REMARK    5  A    between atoms: C10_15  and  C11_16 
REMARK    6  A    between atoms: C11_16  and  C12_17 
REMARK    7  A    between atoms: C12_17  and  C13_18 
REMARK    8  A    between atoms: C13_18  and  C14_19 
REMARK    9  A    between atoms: C17_24  and  N4_25 
REMARK   10  A    between atoms: N4_25  and  C18_28 
REMARK   11  A    between atoms: C18_28  and  C19_29 
REMARK   12  A    between atoms: C19_29  and  N5_30 
ROOT
HETATM    1  C2  UNL     1      17.370  32.164  15.731  1.00  0.00     0.045 C 
HETATM    2  C3  UNL     1      17.362  32.215  14.417  1.00  0.00     0.032 C 
HETATM    3  C4  UNL     1      18.513  32.315  13.544  1.00  0.00     0.009 C 
HETATM    4  C5  UNL     1      19.511  31.430  13.456  1.00  0.00    -0.039 C 
HETATM    5  C6  UNL     1      20.602  31.751  12.478  1.00  0.00     0.160 C 
HETATM    6  N1  UNL     1      21.262  30.597  11.988  1.00  0.00    -0.339 N 
ATOM      7  H1  UNL     1      22.072  30.697  11.376  1.00  0.00     0.164 HD
HETATM    8  C7  UNL     1      20.803  29.305  12.346  1.00  0.00     0.322 C 
HETATM    9  O2  UNL     1      21.225  28.311  11.757  1.00  0.00    -0.247 OA
HETATM   10  N2  UNL     1      19.854  29.090  13.374  1.00  0.00    -0.305 N 
HETATM   11  C15 UNL     1      19.554  30.187  14.276  1.00  0.00     0.126 C 
HETATM   12  C16 UNL     1      20.688  30.322  15.256  1.00  0.00     0.063 C 
HETATM   13  C17 UNL     1      20.309  30.353  16.681  1.00  0.00     0.188 C 
HETATM   14  C24 UNL     1      18.941  30.814  17.021  1.00  0.00     0.039 C 
HETATM   15  C25 UNL     1      18.636  32.206  16.512  1.00  0.00     0.066 C 
ENDROOT
BRANCH  13  16
HETATM   16  N4  UNL     1      21.251  31.246  17.377  1.00  0.00    -0.069 N 
ATOM     17  H42 UNL     1      20.772  31.871  18.025  1.00  0.00     0.277 HD
ATOM     18  H41 UNL     1      21.825  30.740  18.051  1.00  0.00     0.277 HD
BRANCH  16  19
HETATM   19  C18 UNL     1      22.060  31.977  16.425  1.00  0.00     0.252 C 
BRANCH  19  20
HETATM   20  C19 UNL     1      22.684  33.138  17.168  1.00  0.00     0.144 C 
BRANCH  20  21
HETATM   21  N5  UNL     1      21.653  34.060  17.520  1.00  0.00    -0.407 N 
HETATM   22  C20 UNL     1      21.755  34.657  18.796  1.00  0.00     0.143 C 
HETATM   23  C21 UNL     1      22.389  36.038  18.627  1.00  0.00     0.187 C 
HETATM   24  O4  UNL     1      21.432  36.786  17.933  1.00  0.00    -0.388 OA
HETATM   25  C22 UNL     1      21.254  36.345  16.643  1.00  0.00     0.187 C 
HETATM   26  C23 UNL     1      21.202  34.889  16.453  1.00  0.00     0.143 C 
ENDBRANCH  20  21
ENDBRANCH  19  20
ENDBRANCH  16  19
ENDBRANCH  13  16
BRANCH  10  27
HETATM   27  C8  UNL     1      19.231  27.854  13.545  1.00  0.00     0.069 C 
BRANCH  27  28
HETATM   28  C9  UNL     1      18.003  27.466  12.881  1.00  0.00     0.045 C 
BRANCH  28  29
HETATM   29  C10 UNL     1      17.340  28.630  12.183  1.00  0.00     0.005 C 
BRANCH  29  30
HETATM   30  C11 UNL     1      17.211  28.373  10.687  1.00  0.00     0.001 C 
BRANCH  30  31
HETATM   31  C12 UNL     1      17.929  27.072  10.428  1.00  0.00     0.009 C 
BRANCH  31  32
HETATM   32  C13 UNL     1      18.296  26.827   9.003  1.00  0.00     0.099 C 
BRANCH  32  33
HETATM   33  C14 UNL     1      18.729  25.466   8.703  1.00  0.00     0.231 C 
HETATM   34  N3  UNL     1      17.732  24.472   8.368  1.00  0.00    -0.062 NA
HETATM   35  O3  UNL     1      19.905  25.058   8.708  1.00  0.00    -0.277 OA
ENDBRANCH  32  33
ENDBRANCH  31  32
ENDBRANCH  30  31
ENDBRANCH  29  30
ENDBRANCH  28  29
ENDBRANCH  27  28
ENDBRANCH  10  27
BRANCH   1  36
HETATM   36  O1  UNL     1      16.171  32.067  16.424  1.00  0.00    -0.360 OA
HETATM   37  C1  UNL     1      15.640  33.253  16.981  1.00  0.00     0.209 C 
ENDBRANCH   1  36
TORSDOF 12
ENDMDL
MODEL 2
REMARK VINA RESULT: -7.450849144      1.717      8.335
REMARK  12 active torsions:
REMARK  status: ('A' for Active; 'I' for Inactive)
REMARK    1  A    between atoms: O1_2  and  C2_3 
REMARK    2  A    between atoms: N2_12  and  C8_13 
REMARK    3  A    between atoms: C8_13  and  C9_14 
REMARK    4  A    between atoms: C9_14  and  C10_15 
REMARK    5  A    between atoms: C10_15  and  C11_16 
REMARK    6  A    between atoms: C11_16  and  C12_17 
REMARK    7  A    between atoms: C12_17  and  C13_18 
REMARK    8  A    between atoms: C13_18  and  C14_19 
REMARK    9  A    between atoms: C17_24  and  N4_25 
REMARK   10  A    between atoms: N4_25  and  C18_28 
REMARK   11  A    between atoms: C18_28  and  C19_29 
REMARK   12  A    between atoms: C19_29  and  N5_30 
ROOT
HETATM    1  C2  UNL     1      17.807  32.048  16.355  1.00  0.00     0.045 C 
HETATM    2  C3  UNL     1      18.812  31.514  17.016  1.00  0.00     0.032 C 
HETATM    3  C4  UNL     1      19.399  30.208  16.800  1.00  0.00     0.009 C 
HETATM    4  C5  UNL     1      19.976  29.783  15.671  1.00  0.00    -0.039 C 
HETATM    5  C6  UNL     1      20.513  28.382  15.683  1.00  0.00     0.160 C 
HETATM    6  N1  UNL     1      21.584  28.193  14.776  1.00  0.00    -0.339 N 
ATOM      7  H1  UNL     1      21.977  27.261  14.642  1.00  0.00     0.164 HD
HETATM    8  C7  UNL     1      22.112  29.292  14.054  1.00  0.00     0.322 C 
HETATM    9  O2  UNL     1      23.172  29.180  13.440  1.00  0.00    -0.247 OA
HETATM   10  N2  UNL     1      21.466  30.551  14.000  1.00  0.00    -0.305 N 
HETATM   11  C15 UNL     1      20.091  30.640  14.458  1.00  0.00     0.126 C 
HETATM   12  C16 UNL     1      19.196  30.059  13.399  1.00  0.00     0.063 C 
HETATM   13  C17 UNL     1      18.067  30.907  12.972  1.00  0.00     0.188 C 
HETATM   14  C24 UNL     1      17.564  31.919  13.931  1.00  0.00     0.039 C 
HETATM   15  C25 UNL     1      17.121  31.325  15.250  1.00  0.00     0.066 C 
ENDROOT
BRANCH  13  16
HETATM   16  N4  UNL     1      16.936  30.019  12.648  1.00  0.00    -0.069 N 
ATOM     17  H42 UNL     1      16.208  30.058  13.361  1.00  0.00     0.277 HD
ATOM     18  H41 UNL     1      16.395  30.369  11.858  1.00  0.00     0.277 HD
BRANCH  16  19
HETATM   19  C18 UNL     1      17.398  28.665  12.424  1.00  0.00     0.252 C 
BRANCH  19  20
HETATM   20  C19 UNL     1      17.192  28.361  10.957  1.00  0.00     0.144 C 
BRANCH  20  21
HETATM   21  N5  UNL     1      18.378  27.754  10.447  1.00  0.00    -0.407 N 
HETATM   22  C20 UNL     1      19.215  27.118  11.391  1.00  0.00     0.143 C 
HETATM   23  C21 UNL     1      18.910  25.620  11.365  1.00  0.00     0.187 C 
HETATM   24  O4  UNL     1      19.357  25.189  10.111  1.00  0.00    -0.388 OA
HETATM   25  C22 UNL     1      18.602  25.697   9.080  1.00  0.00     0.187 C 
HETATM   26  C23 UNL     1      18.227  27.114   9.184  1.00  0.00     0.143 C 
ENDBRANCH  20  21
ENDBRANCH  19  20
ENDBRANCH  16  19
ENDBRANCH  13  16
BRANCH  10  27
HETATM   27  C8  UNL     1      22.112  31.681  13.501  1.00  0.00     0.069 C 
BRANCH  27  28
HETATM   28  C9  UNL     1      22.444  32.844  14.298  1.00  0.00     0.045 C 
BRANCH  28  29
HETATM   29  C10 UNL     1      23.273  32.486  15.509  1.00  0.00     0.005 C 
BRANCH  29  30
HETATM   30  C11 UNL     1      22.435  32.529  16.782  1.00  0.00     0.001 C 
BRANCH  30  31
HETATM   31  C12 UNL     1      22.399  33.976  17.204  1.00  0.00     0.009 C 
BRANCH  31  32
HETATM   32  C13 UNL     1      21.055  34.484  17.602  1.00  0.00     0.099 C 
BRANCH  32  33
HETATM   33  C14 UNL     1      21.013  35.179  18.884  1.00  0.00     0.231 C 
HETATM   34  N3  UNL     1      19.824  35.926  19.237  1.00  0.00    -0.062 NA
HETATM   35  O3  UNL     1      21.923  35.198  19.733  1.00  0.00    -0.277 OA
ENDBRANCH  32  33
ENDBRANCH  31  32
ENDBRANCH  30  31
ENDBRANCH  29  30
ENDBRANCH  28  29
ENDBRANCH  27  28
ENDBRANCH  10  27
BRANCH   1  36
HETATM   36  O1  UNL     1      17.362  33.319  16.688  1.00  0.00    -0.360 OA
HETATM   37  C1  UNL     1      16.005  33.462  17.055  1.00  0.00     0.209 C 
ENDBRANCH   1  36
TORSDOF 12
ENDMDL
MODEL 3
REMARK VINA RESULT: -7.320190287      1.360      1.463
REMARK  12 active torsions:
REMARK  status: ('A' for Active; 'I' for Inactive)
REMARK    1  A    between atoms: O1_2  and  C2_3 
REMARK    2  A    between atoms: N2_12  and  C8_13 
REMARK    3  A    between atoms: C8_13  and  C9_14 
REMARK    4  A    between atoms: C9_14  and  C10_15 
REMARK    5  A    between atoms: C10_15  and  C11_16 
REMARK    6  A    between atoms: C11_16  and  C12_17 
REMARK    7  A    between atoms: C12_17  and  C13_18 
REMARK    8  A    between atoms: C13_18  and  C14_19 
REMARK    9  A    between atoms: C17_24  and  N4_25 
REMARK   10  A    between atoms: N4_25  and  C18_28 
REMARK   11  A    between atoms: C18_28  and  C19_29 
REMARK   12  A    between atoms: C19_29  and  N5_30 
ROOT
HETATM    1  C2  UNL     1      17.372  32.153  15.741  1.00  0.00     0.045 C 
HETATM    2  C3  UNL     1      17.364  32.226  14.427  1.00  0.00     0.032 C 
HETATM    3  C4  UNL     1      18.513  32.374  13.558  1.00  0.00     0.009 C 
HETATM    4  C5  UNL     1      19.538  31.521  13.458  1.00  0.00    -0.039 C 
HETATM    5  C6  UNL     1      20.620  31.890  12.487  1.00  0.00     0.160 C 
HETATM    6  N1  UNL     1      21.315  30.765  11.981  1.00  0.00    -0.339 N 
ATOM      7  H1  UNL     1      22.123  30.898  11.372  1.00  0.00     0.164 HD
HETATM    8  C7  UNL     1      20.894  29.454  12.316  1.00  0.00     0.322 C 
HETATM    9  O2  UNL     1      21.347  28.482  11.712  1.00  0.00    -0.247 OA
HETATM   10  N2  UNL     1      19.951  29.193  13.340  1.00  0.00    -0.305 N 
HETATM   11  C15 UNL     1      19.617  30.267  14.258  1.00  0.00     0.126 C 
HETATM   12  C16 UNL     1      20.744  30.420  15.243  1.00  0.00     0.063 C 
HETATM   13  C17 UNL     1      20.362  30.416  16.667  1.00  0.00     0.188 C 
HETATM   14  C24 UNL     1      18.981  30.831  17.012  1.00  0.00     0.039 C 
HETATM   15  C25 UNL     1      18.634  32.220  16.525  1.00  0.00     0.066 C 
ENDROOT
BRANCH  13  16
HETATM   16  N4  UNL     1      21.276  31.326  17.380  1.00  0.00    -0.069 N 
ATOM     17  H42 UNL     1      20.769  31.990  17.965  1.00  0.00     0.277 HD
ATOM     18  H41 UNL     1      21.796  30.843  18.112  1.00  0.00     0.277 HD
BRANCH  16  19
HETATM   19  C18 UNL     1      22.159  31.996  16.448  1.00  0.00     0.252 C 
BRANCH  19  20
HETATM   20  C19 UNL     1      22.756  33.181  17.173  1.00  0.00     0.144 C 
BRANCH  20  21
HETATM   21  N5  UNL     1      21.701  34.069  17.539  1.00  0.00    -0.407 N 
HETATM   22  C20 UNL     1      21.796  34.663  18.818  1.00  0.00     0.143 C 
HETATM   23  C21 UNL     1      22.387  36.063  18.651  1.00  0.00     0.187 C 
HETATM   24  O4  UNL     1      21.400  36.785  17.971  1.00  0.00    -0.388 OA
HETATM   25  C22 UNL     1      21.224  36.346  16.679  1.00  0.00     0.187 C 
HETATM   26  C23 UNL     1      21.215  34.890  16.482  1.00  0.00     0.143 C 
ENDBRANCH  20  21
ENDBRANCH  19  20
ENDBRANCH  16  19
ENDBRANCH  13  16
BRANCH  10  27
HETATM   27  C8  UNL     1      19.365  27.937  13.489  1.00  0.00     0.069 C 
BRANCH  27  28
HETATM   28  C9  UNL     1      18.024  27.610  13.049  1.00  0.00     0.045 C 
BRANCH  28  29
HETATM   29  C10 UNL     1      17.951  27.396  11.555  1.00  0.00     0.005 C 
BRANCH  29  30
HETATM   30  C11 UNL     1      18.112  25.922  11.202  1.00  0.00     0.001 C 
BRANCH  30  31
HETATM   31  C12 UNL     1      19.460  25.801  10.537  1.00  0.00     0.009 C 
BRANCH  31  32
HETATM   32  C13 UNL     1      20.499  25.099  11.343  1.00  0.00     0.099 C 
BRANCH  32  33
HETATM   33  C14 UNL     1      21.775  24.897  10.663  1.00  0.00     0.231 C 
HETATM   34  N3  UNL     1      21.775  24.614   9.244  1.00  0.00    -0.062 NA
HETATM   35  O3  UNL     1      22.900  24.944  11.195  1.00  0.00    -0.277 OA
ENDBRANCH  32  33
ENDBRANCH  31  32
ENDBRANCH  30  31
ENDBRANCH  29  30
ENDBRANCH  28  29
ENDBRANCH  27  28
ENDBRANCH  10  27
BRANCH   1  36
HETATM   36  O1  UNL     1      16.175  32.010  16.429  1.00  0.00    -0.360 OA
HETATM   37  C1  UNL     1      15.603  33.171  16.996  1.00  0.00     0.209 C 
ENDBRANCH   1  36
TORSDOF 12
ENDMDL
MODEL 4
REMARK VINA RESULT: -7.269712211      3.656      8.676
REMARK  12 active torsions:
REMARK  status: ('A' for Active; 'I' for Inactive)
REMARK    1  A    between atoms: O1_2  and  C2_3 
REMARK    2  A    between atoms: N2_12  and  C8_13 
REMARK    3  A    between atoms: C8_13  and  C9_14 
REMARK    4  A    between atoms: C9_14  and  C10_15 
REMARK    5  A    between atoms: C10_15  and  C11_16 
REMARK    6  A    between atoms: C11_16  and  C12_17 
REMARK    7  A    between atoms: C12_17  and  C13_18 
REMARK    8  A    between atoms: C13_18  and  C14_19 
REMARK    9  A    between atoms: C17_24  and  N4_25 
REMARK   10  A    between atoms: N4_25  and  C18_28 
REMARK   11  A    between atoms: C18_28  and  C19_29 
REMARK   12  A    between atoms: C19_29  and  N5_30 
ROOT
HETATM    1  C2  UNL     1      23.122  36.955  19.201  1.00  0.00     0.045 C 
HETATM    2  C3  UNL     1      22.993  38.235  18.927  1.00  0.00     0.032 C 
HETATM    3  C4  UNL     1      22.603  38.817  17.659  1.00  0.00     0.009 C 
HETATM    4  C5  UNL     1      21.444  38.613  17.025  1.00  0.00    -0.039 C 
HETATM    5  C6  UNL     1      21.266  39.325  15.717  1.00  0.00     0.160 C 
HETATM    6  N1  UNL     1      19.908  39.573  15.403  1.00  0.00    -0.339 N 
ATOM      7  H1  UNL     1      19.661  39.983  14.502  1.00  0.00     0.164 HD
HETATM    8  C7  UNL     1      18.889  39.254  16.335  1.00  0.00     0.322 C 
HETATM    9  O2  UNL     1      17.742  39.664  16.166  1.00  0.00    -0.247 OA
HETATM   10  N2  UNL     1      19.128  38.466  17.487  1.00  0.00    -0.305 N 
HETATM   11  C15 UNL     1      20.376  37.730  17.571  1.00  0.00     0.126 C 
HETATM   12  C16 UNL     1      20.279  36.521  16.681  1.00  0.00     0.063 C 
HETATM   13  C17 UNL     1      20.622  35.230  17.305  1.00  0.00     0.188 C 
HETATM   14  C24 UNL     1      21.535  35.250  18.474  1.00  0.00     0.039 C 
HETATM   15  C25 UNL     1      22.868  35.902  18.181  1.00  0.00     0.066 C 
ENDROOT
BRANCH  13  16
HETATM   16  N4  UNL     1      21.258  34.389  16.276  1.00  0.00    -0.069 N 
ATOM     17  H42 UNL     1      20.820  34.511  15.363  1.00  0.00     0.277 HD
ATOM     18  H41 UNL     1      22.194  34.719  16.042  1.00  0.00     0.277 HD
BRANCH  16  19
HETATM   19  C18 UNL     1      21.266  33.000  16.686  1.00  0.00     0.252 C 
BRANCH  19  20
HETATM   20  C19 UNL     1      22.081  32.239  15.664  1.00  0.00     0.144 C 
BRANCH  20  21
HETATM   21  N5  UNL     1      21.198  31.438  14.880  1.00  0.00    -0.407 N 
HETATM   22  C20 UNL     1      21.759  30.809  13.746  1.00  0.00     0.143 C 
HETATM   23  C21 UNL     1      22.100  29.367  14.121  1.00  0.00     0.187 C 
HETATM   24  O4  UNL     1      20.860  28.750  14.322  1.00  0.00    -0.388 OA
HETATM   25  C22 UNL     1      20.206  29.233  15.431  1.00  0.00     0.187 C 
HETATM   26  C23 UNL     1      20.247  30.688  15.629  1.00  0.00     0.143 C 
ENDBRANCH  20  21
ENDBRANCH  19  20
ENDBRANCH  16  19
ENDBRANCH  13  16
BRANCH  10  27
HETATM   27  C8  UNL     1      18.189  38.369  18.513  1.00  0.00     0.069 C 
BRANCH  27  28
HETATM   28  C9  UNL     1      17.436  37.168  18.814  1.00  0.00     0.045 C 
BRANCH  28  29
HETATM   29  C10 UNL     1      16.726  36.621  17.598  1.00  0.00     0.005 C 
BRANCH  29  30
HETATM   30  C11 UNL     1      16.125  35.250  17.883  1.00  0.00     0.001 C 
BRANCH  30  31
HETATM   31  C12 UNL     1      15.288  34.907  16.676  1.00  0.00     0.009 C 
BRANCH  31  32
HETATM   32  C13 UNL     1      16.044  34.794  15.396  1.00  0.00     0.099 C 
BRANCH  32  33
HETATM   33  C14 UNL     1      16.831  33.573  15.251  1.00  0.00     0.231 C 
HETATM   34  N3  UNL     1      18.247  33.682  14.972  1.00  0.00    -0.062 NA
HETATM   35  O3  UNL     1      16.396  32.410  15.344  1.00  0.00    -0.277 OA
ENDBRANCH  32  33
ENDBRANCH  31  32
ENDBRANCH  30  31
ENDBRANCH  29  30
ENDBRANCH  28  29
ENDBRANCH  27  28
ENDBRANCH  10  27
BRANCH   1  36
HETATM   36  O1  UNL     1      23.506  36.559  20.475  1.00  0.00    -0.360 OA
HETATM   37  C1  UNL     1      24.469  37.348  21.143  1.00  0.00     0.209 C 
ENDBRANCH   1  36
TORSDOF 12
ENDMDL
MODEL 5
REMARK VINA RESULT: -7.201510746      2.889      8.622
REMARK  12 active torsions:
REMARK  status: ('A' for Active; 'I' for Inactive)
REMARK    1  A    between atoms: O1_2  and  C2_3 
REMARK    2  A    between atoms: N2_12  and  C8_13 
REMARK    3  A    between atoms: C8_13  and  C9_14 
REMARK    4  A    between atoms: C9_14  and  C10_15 
REMARK    5  A    between atoms: C10_15  and  C11_16 
REMARK    6  A    between atoms: C11_16  and  C12_17 
REMARK    7  A    between atoms: C12_17  and  C13_18 
REMARK    8  A    between atoms: C13_18  and  C14_19 
REMARK    9  A    between atoms: C17_24  and  N4_25 
REMARK   10  A    between atoms: N4_25  and  C18_28 
REMARK   11  A    between atoms: C18_28  and  C19_29 
REMARK   12  A    between atoms: C19_29  and  N5_30 
ROOT
HETATM    1  C2  UNL     1      18.460  27.899  11.684  1.00  0.00     0.045 C 
HETATM    2  C3  UNL     1      17.796  28.304  12.746  1.00  0.00     0.032 C 
HETATM    3  C4  UNL     1      18.222  28.208  14.127  1.00  0.00     0.009 C 
HETATM    4  C5  UNL     1      19.314  28.773  14.652  1.00  0.00    -0.039 C 
HETATM    5  C6  UNL     1      19.553  28.530  16.113  1.00  0.00     0.160 C 
HETATM    6  N1  UNL     1      20.298  29.563  16.731  1.00  0.00    -0.339 N 
ATOM      7  H1  UNL     1      20.587  29.469  17.705  1.00  0.00     0.164 HD
HETATM    8  C7  UNL     1      20.645  30.728  16.002  1.00  0.00     0.322 C 
HETATM    9  O2  UNL     1      21.094  31.715  16.584  1.00  0.00    -0.247 OA
HETATM   10  N2  UNL     1      20.498  30.821  14.597  1.00  0.00    -0.305 N 
HETATM   11  C15 UNL     1      20.254  29.602  13.847  1.00  0.00     0.126 C 
HETATM   12  C16 UNL     1      21.549  28.846  13.730  1.00  0.00     0.063 C 
HETATM   13  C17 UNL     1      21.934  28.432  12.368  1.00  0.00     0.188 C 
HETATM   14  C24 UNL     1      20.852  28.261  11.368  1.00  0.00     0.039 C 
HETATM   15  C25 UNL     1      19.799  27.260  11.791  1.00  0.00     0.066 C 
ENDROOT
BRANCH  13  16
HETATM   16  N4  UNL     1      22.633  27.140  12.472  1.00  0.00    -0.069 N 
ATOM     17  H42 UNL     1      22.635  26.786  13.429  1.00  0.00     0.277 HD
ATOM     18  H41 UNL     1      22.105  26.387  12.032  1.00  0.00     0.277 HD
BRANCH  16  19
HETATM   19  C18 UNL     1      23.974  27.240  11.934  1.00  0.00     0.252 C 
BRANCH  19  20
HETATM   20  C19 UNL     1      23.865  27.090  10.434  1.00  0.00     0.144 C 
BRANCH  20  21
HETATM   21  N5  UNL     1      23.766  25.701  10.121  1.00  0.00    -0.407 N 
HETATM   22  C20 UNL     1      22.662  25.012  10.669  1.00  0.00     0.143 C 
HETATM   23  C21 UNL     1      21.573  24.927   9.599  1.00  0.00     0.187 C 
HETATM   24  O4  UNL     1      22.102  24.078   8.621  1.00  0.00    -0.388 OA
HETATM   25  C22 UNL     1      23.171  24.639   7.960  1.00  0.00     0.187 C 
HETATM   26  C23 UNL     1      24.145  25.359   8.792  1.00  0.00     0.143 C 
ENDBRANCH  20  21
ENDBRANCH  19  20
ENDBRANCH  16  19
ENDBRANCH  13  16
BRANCH  10  27
HETATM   27  C8  UNL     1      20.605  32.042  13.931  1.00  0.00     0.069 C 
BRANCH  27  28
HETATM   28  C9  UNL     1      19.471  32.835  13.505  1.00  0.00     0.045 C 
BRANCH  28  29
HETATM   29  C10 UNL     1      18.512  33.115  14.638  1.00  0.00     0.005 C 
BRANCH  29  30
HETATM   30  C11 UNL     1      17.336  32.145  14.616  1.00  0.00     0.001 C 
BRANCH  30  31
HETATM   31  C12 UNL     1      16.952  31.929  16.058  1.00  0.00     0.009 C 
BRANCH  31  32
HETATM   32  C13 UNL     1      15.613  32.463  16.440  1.00  0.00     0.099 C 
BRANCH  32  33
HETATM   33  C14 UNL     1      15.637  33.738  17.151  1.00  0.00     0.231 C 
HETATM   34  N3  UNL     1      15.717  34.964  16.387  1.00  0.00    -0.062 NA
HETATM   35  O3  UNL     1      15.595  33.883  18.387  1.00  0.00    -0.277 OA
ENDBRANCH  32  33
ENDBRANCH  31  32
ENDBRANCH  30  31
ENDBRANCH  29  30
ENDBRANCH  28  29
ENDBRANCH  27  28
ENDBRANCH  10  27
BRANCH   1  36
HETATM   36  O1  UNL     1      17.908  28.066  10.422  1.00  0.00    -0.360 OA
HETATM   37  C1  UNL     1      17.944  26.961   9.541  1.00  0.00     0.209 C 
ENDBRANCH   1  36
TORSDOF 12
ENDMDL
