MODEL 1
REMARK VINA RESULT: -5.354534950      0.000      0.000
REMARK  5 active torsions:
REMARK  status: ('A' for Active; 'I' for Inactive)
REMARK    1  A    between atoms: C2_3  and  C3_4 
REMARK    2  A    between atoms: C3_4  and  N2_5 
REMARK    3  A    between atoms: C3_4  and  O1_9 
REMARK    4  A    between atoms: C4_11  and  N3_12 
REMARK    5  A    between atoms: C6_17  and  N4_18 
ROOT
HETATM    1  N1  UNL     1       7.722  24.673  31.744  1.00  0.00    -0.104 NA
HETATM    2  C1  UNL     1       7.842  24.419  33.145  1.00  0.00     0.063 C 
HETATM    3  C2  UNL     1       8.658  25.011  34.001  1.00  0.00     0.027 C 
HETATM    4  C4  UNL     1       8.455  24.450  35.379  1.00  0.00     0.220 C 
HETATM    5  C5  UNL     1       6.983  24.014  35.257  1.00  0.00     0.076 C 
HETATM    6  C6  UNL     1       7.044  23.413  33.871  1.00  0.00     0.233 C 
ENDROOT
BRANCH   3   7
HETATM    7  C3  UNL     1       9.618  26.073  33.633  1.00  0.00     0.350 C 
BRANCH   7   8
HETATM    8  N2  UNL     1      10.442  26.491  34.738  1.00  0.00    -0.049 N 
ATOM      9  H23 UNL     1       9.952  26.370  35.625  1.00  0.00     0.277 HD
ATOM     10  H22 UNL     1      11.213  25.839  34.886  1.00  0.00     0.277 HD
ATOM     11  H21 UNL     1      10.785  27.447  34.638  1.00  0.00     0.277 HD
ENDBRANCH   7   8
BRANCH   7  12
HETATM   12  O1  UNL     1      10.498  25.502  32.682  1.00  0.00    -0.366 OA
ATOM     13  H1  UNL     1      10.564  26.126  31.969  1.00  0.00     0.212 HD
ENDBRANCH   7  12
ENDBRANCH   3   7
BRANCH   4  14
HETATM   14  N3  UNL     1       9.237  23.247  35.576  1.00  0.00    -0.071 N 
ATOM     15  H33 UNL     1       8.913  22.487  34.977  1.00  0.00     0.275 HD
ATOM     16  H32 UNL     1      10.181  23.348  35.203  1.00  0.00     0.275 HD
ATOM     17  H31 UNL     1       9.249  22.971  36.559  1.00  0.00     0.275 HD
ENDBRANCH   4  14
BRANCH   6  18
HETATM   18  N4  UNL     1       5.736  23.207  33.304  1.00  0.00    -0.070 N 
ATOM     19  H43 UNL     1       5.104  23.965  33.564  1.00  0.00     0.275 HD
ATOM     20  H42 UNL     1       5.753  23.342  32.293  1.00  0.00     0.275 HD
ATOM     21  H41 UNL     1       5.331  22.301  33.542  1.00  0.00     0.275 HD
ENDBRANCH   6  18
TORSDOF 5
ENDMDL
MODEL 2
REMARK VINA RESULT: -5.199549331      2.021      3.972
REMARK  5 active torsions:
REMARK  status: ('A' for Active; 'I' for Inactive)
REMARK    1  A    between atoms: C2_3  and  C3_4 
REMARK    2  A    between atoms: C3_4  and  N2_5 
REMARK    3  A    between atoms: C3_4  and  O1_9 
REMARK    4  A    between atoms: C4_11  and  N3_12 
REMARK    5  A    between atoms: C6_17  and  N4_18 
ROOT
HETATM    1  N1  UNL     1       8.886  24.913  36.122  1.00  0.00    -0.104 NA
HETATM    2  C1  UNL     1       8.944  24.772  34.701  1.00  0.00     0.063 C 
HETATM    3  C2  UNL     1       8.110  24.098  33.927  1.00  0.00     0.027 C 
HETATM    4  C4  UNL     1       8.532  24.215  32.491  1.00  0.00     0.220 C 
HETATM    5  C5  UNL     1       9.252  25.574  32.552  1.00  0.00     0.076 C 
HETATM    6  C6  UNL     1       9.991  25.376  33.856  1.00  0.00     0.233 C 
ENDROOT
BRANCH   3   7
HETATM    7  C3  UNL     1       6.936  23.351  34.425  1.00  0.00     0.350 C 
BRANCH   7   8
HETATM    8  N2  UNL     1       6.242  24.042  35.482  1.00  0.00    -0.049 N 
ATOM      9  H23 UNL     1       6.852  24.186  36.287  1.00  0.00     0.277 HD
ATOM     10  H22 UNL     1       6.070  25.015  35.230  1.00  0.00     0.277 HD
ATOM     11  H21 UNL     1       5.377  23.577  35.758  1.00  0.00     0.277 HD
ENDBRANCH   7   8
BRANCH   7  12
HETATM   12  O1  UNL     1       6.025  23.273  33.345  1.00  0.00    -0.366 OA
ATOM     13  H1  UNL     1       5.429  22.561  33.548  1.00  0.00     0.212 HD
ENDBRANCH   7  12
ENDBRANCH   3   7
BRANCH   4  14
HETATM   14  N3  UNL     1       9.531  23.222  32.155  1.00  0.00    -0.071 N 
ATOM     15  H33 UNL     1       9.755  22.629  32.955  1.00  0.00     0.275 HD
ATOM     16  H32 UNL     1       9.155  22.507  31.531  1.00  0.00     0.275 HD
ATOM     17  H31 UNL     1      10.368  23.657  31.765  1.00  0.00     0.275 HD
ENDBRANCH   4  14
BRANCH   6  18
HETATM   18  N4  UNL     1      10.509  26.611  34.387  1.00  0.00    -0.070 N 
ATOM     19  H43 UNL     1       9.755  27.275  34.562  1.00  0.00     0.275 HD
ATOM     20  H42 UNL     1      10.844  26.483  35.342  1.00  0.00     0.275 HD
ATOM     21  H41 UNL     1      11.232  27.030  33.801  1.00  0.00     0.275 HD
ENDBRANCH   6  18
TORSDOF 5
ENDMDL
MODEL 3
REMARK VINA RESULT: -4.952300396      1.691      3.167
REMARK  5 active torsions:
REMARK  status: ('A' for Active; 'I' for Inactive)
REMARK    1  A    between atoms: C2_3  and  C3_4 
REMARK    2  A    between atoms: C3_4  and  N2_5 
REMARK    3  A    between atoms: C3_4  and  O1_9 
REMARK    4  A    between atoms: C4_11  and  N3_12 
REMARK    5  A    between atoms: C6_17  and  N4_18 
ROOT
HETATM    1  N1  UNL     1       9.977  26.633  34.569  1.00  0.00    -0.104 NA
HETATM    2  C1  UNL     1       9.178  25.466  34.773  1.00  0.00     0.063 C 
HETATM    3  C2  UNL     1       8.755  24.612  33.855  1.00  0.00     0.027 C 
HETATM    4  C4  UNL     1       7.948  23.522  34.498  1.00  0.00     0.220 C 
HETATM    5  C5  UNL     1       8.586  23.532  35.900  1.00  0.00     0.076 C 
HETATM    6  C6  UNL     1       8.680  25.029  36.091  1.00  0.00     0.233 C 
ENDROOT
BRANCH   3   7
HETATM    7  C3  UNL     1       9.053  24.732  32.413  1.00  0.00     0.350 C 
BRANCH   7   8
HETATM    8  N2  UNL     1       9.667  23.547  31.868  1.00  0.00    -0.049 N 
ATOM      9  H23 UNL     1       9.350  22.713  32.361  1.00  0.00     0.277 HD
ATOM     10  H22 UNL     1       9.299  23.340  30.940  1.00  0.00     0.277 HD
ATOM     11  H21 UNL     1      10.686  23.599  31.855  1.00  0.00     0.277 HD
ENDBRANCH   7   8
BRANCH   7  12
HETATM   12  O1  UNL     1       7.805  24.863  31.757  1.00  0.00    -0.366 OA
ATOM     13  H1  UNL     1       7.988  24.839  30.825  1.00  0.00     0.212 HD
ENDBRANCH   7  12
ENDBRANCH   3   7
BRANCH   4  14
HETATM   14  N3  UNL     1       6.565  23.920  34.661  1.00  0.00    -0.071 N 
ATOM     15  H33 UNL     1       5.925  23.164  34.417  1.00  0.00     0.275 HD
ATOM     16  H32 UNL     1       6.317  24.022  35.646  1.00  0.00     0.275 HD
ATOM     17  H31 UNL     1       6.360  24.769  34.134  1.00  0.00     0.275 HD
ENDBRANCH   4  14
BRANCH   6  18
HETATM   18  N4  UNL     1       9.553  25.390  37.178  1.00  0.00    -0.070 N 
ATOM     19  H43 UNL     1       9.528  26.397  37.344  1.00  0.00     0.275 HD
ATOM     20  H42 UNL     1       9.176  25.064  38.069  1.00  0.00     0.275 HD
ATOM     21  H41 UNL     1      10.512  25.068  37.049  1.00  0.00     0.275 HD
ENDBRANCH   6  18
TORSDOF 5
ENDMDL
MODEL 4
REMARK VINA RESULT: -4.885605391      1.686      3.371
REMARK  5 active torsions:
REMARK  status: ('A' for Active; 'I' for Inactive)
REMARK    1  A    between atoms: C2_3  and  C3_4 
REMARK    2  A    between atoms: C3_4  and  N2_5 
REMARK    3  A    between atoms: C3_4  and  O1_9 
REMARK    4  A    between atoms: C4_11  and  N3_12 
REMARK    5  A    between atoms: C6_17  and  N4_18 
ROOT
HETATM    1  N1  UNL     1       9.814  25.518  32.408  1.00  0.00    -0.104 NA
HETATM    2  C1  UNL     1       9.214  25.216  33.669  1.00  0.00     0.063 C 
HETATM    3  C2  UNL     1       8.434  24.188  33.962  1.00  0.00     0.027 C 
HETATM    4  C4  UNL     1       8.026  24.245  35.406  1.00  0.00     0.220 C 
HETATM    5  C5  UNL     1       9.231  25.015  35.976  1.00  0.00     0.076 C 
HETATM    6  C6  UNL     1       9.377  26.045  34.879  1.00  0.00     0.233 C 
ENDROOT
BRANCH   3   7
HETATM    7  C3  UNL     1       8.041  23.144  32.993  1.00  0.00     0.350 C 
BRANCH   7   8
HETATM    8  N2  UNL     1       6.974  23.564  32.120  1.00  0.00    -0.049 N 
ATOM      9  H23 UNL     1       6.969  23.017  31.259  1.00  0.00     0.277 HD
ATOM     10  H22 UNL     1       6.066  23.289  32.495  1.00  0.00     0.277 HD
ATOM     11  H21 UNL     1       6.998  24.564  31.917  1.00  0.00     0.277 HD
ENDBRANCH   7   8
BRANCH   7  12
HETATM   12  O1  UNL     1       9.165  22.929  32.160  1.00  0.00    -0.366 OA
ATOM     13  H1  UNL     1       9.100  22.034  31.847  1.00  0.00     0.212 HD
ENDBRANCH   7  12
ENDBRANCH   3   7
BRANCH   4  14
HETATM   14  N3  UNL     1       6.862  25.088  35.589  1.00  0.00    -0.071 N 
ATOM     15  H33 UNL     1       6.974  25.714  36.387  1.00  0.00     0.275 HD
ATOM     16  H32 UNL     1       6.786  25.788  34.850  1.00  0.00     0.275 HD
ATOM     17  H31 UNL     1       6.011  24.530  35.666  1.00  0.00     0.275 HD
ENDBRANCH   4  14
BRANCH   6  18
HETATM   18  N4  UNL     1      10.644  26.729  34.933  1.00  0.00    -0.070 N 
ATOM     19  H43 UNL     1      11.023  26.716  35.880  1.00  0.00     0.275 HD
ATOM     20  H42 UNL     1      11.367  26.192  34.454  1.00  0.00     0.275 HD
ATOM     21  H41 UNL     1      10.602  27.683  34.572  1.00  0.00     0.275 HD
ENDBRANCH   6  18
TORSDOF 5
ENDMDL
MODEL 5
REMARK VINA RESULT: -4.700141655      2.323      3.764
REMARK  5 active torsions:
REMARK  status: ('A' for Active; 'I' for Inactive)
REMARK    1  A    between atoms: C2_3  and  C3_4 
REMARK    2  A    between atoms: C3_4  and  N2_5 
REMARK    3  A    between atoms: C3_4  and  O1_9 
REMARK    4  A    between atoms: C4_11  and  N3_12 
REMARK    5  A    between atoms: C6_17  and  N4_18 
ROOT
HETATM    1  N1  UNL     1       9.967  25.986  35.788  1.00  0.00    -0.104 NA
HETATM    2  C1  UNL     1       9.054  25.276  34.949  1.00  0.00     0.063 C 
HETATM    3  C2  UNL     1       7.843  24.845  35.265  1.00  0.00     0.027 C 
HETATM    4  C4  UNL     1       7.220  24.154  34.087  1.00  0.00     0.220 C 
HETATM    5  C5  UNL     1       7.955  24.885  32.949  1.00  0.00     0.076 C 
HETATM    6  C6  UNL     1       9.342  24.898  33.553  1.00  0.00     0.233 C 
ENDROOT
BRANCH   3   7
HETATM    7  C3  UNL     1       7.215  25.035  36.589  1.00  0.00     0.350 C 
BRANCH   7   8
HETATM    8  N2  UNL     1       5.959  24.341  36.716  1.00  0.00    -0.049 N 
ATOM      9  H23 UNL     1       5.421  24.701  37.505  1.00  0.00     0.277 HD
ATOM     10  H22 UNL     1       5.325  24.590  35.957  1.00  0.00     0.277 HD
ATOM     11  H21 UNL     1       6.070  23.329  36.783  1.00  0.00     0.277 HD
ENDBRANCH   7   8
BRANCH   7  12
HETATM   12  O1  UNL     1       8.088  24.442  37.533  1.00  0.00    -0.366 OA
ATOM     13  H1  UNL     1       7.592  24.356  38.339  1.00  0.00     0.212 HD
ENDBRANCH   7  12
ENDBRANCH   3   7
BRANCH   4  14
HETATM   14  N3  UNL     1       7.620  22.763  34.023  1.00  0.00    -0.071 N 
ATOM     15  H33 UNL     1       8.356  22.553  34.697  1.00  0.00     0.275 HD
ATOM     16  H32 UNL     1       6.893  22.147  34.388  1.00  0.00     0.275 HD
ATOM     17  H31 UNL     1       7.893  22.500  33.075  1.00  0.00     0.275 HD
ENDBRANCH   4  14
BRANCH   6  18
HETATM   18  N4  UNL     1      10.223  25.820  32.884  1.00  0.00    -0.070 N 
ATOM     19  H43 UNL     1      10.508  25.454  31.975  1.00  0.00     0.275 HD
ATOM     20  H42 UNL     1       9.716  26.651  32.579  1.00  0.00     0.275 HD
ATOM     21  H41 UNL     1      11.038  26.077  33.443  1.00  0.00     0.275 HD
ENDBRANCH   6  18
TORSDOF 5
ENDMDL
