MODEL 1
REMARK VINA RESULT: -6.763740848      0.000      0.000
REMARK  3 active torsions:
REMARK  status: ('A' for Active; 'I' for Inactive)
REMARK    1  A    between atoms: O1_2  and  N1_3 
REMARK    2  A    between atoms: N1_3  and  C2_5 
REMARK    3  A    between atoms: C4_12  and  N5_13 
ROOT
HETATM    1  C2  UNL     1      10.942  27.740  35.504  1.00  0.00     0.719 A 
HETATM    2  N2  UNL     1      10.720  27.836  36.826  1.00  0.00    -0.161 N 
ATOM      3  H2  UNL     1      10.296  27.058  37.331  1.00  0.00     0.187 HD
HETATM    4  C3  UNL     1      11.058  28.959  37.480  1.00  0.00     0.221 A 
HETATM    5  N3  UNL     1      10.818  29.049  38.880  1.00  0.00    -0.062 NA
HETATM    6  N4  UNL     1      11.616  29.958  36.772  1.00  0.00    -0.163 N 
ATOM      7  H4  UNL     1      11.875  30.812  37.267  1.00  0.00     0.187 HD
HETATM    8  C4  UNL     1      11.852  29.895  35.451  1.00  0.00     0.693 A 
HETATM    9  N6  UNL     1      11.508  28.767  34.810  1.00  0.00    -0.021 N 
ATOM     10  H6  UNL     1      11.671  28.679  33.807  1.00  0.00     0.203 HD
ENDROOT
BRANCH   1  11
HETATM   11  N1  UNL     1      10.613  26.656  34.885  1.00  0.00    -0.096 N 
ATOM     12  H1  UNL     1      11.149  26.384  34.061  1.00  0.00     0.213 HD
BRANCH  11  13
HETATM   13  O1  UNL     1       9.586  25.862  35.280  1.00  0.00    -0.272 OA
HETATM   14  C1  UNL     1       8.918  25.110  34.268  1.00  0.00     0.238 C 
ENDBRANCH  11  13
ENDBRANCH   1  11
BRANCH   8  15
HETATM   15  N5  UNL     1      12.390  30.885  34.827  1.00  0.00    -0.234 N 
ATOM     16  H52 UNL     1      12.516  31.792  35.276  1.00  0.00     0.174 HD
ATOM     17  H51 UNL     1      12.705  30.787  33.862  1.00  0.00     0.174 HD
ENDBRANCH   8  15
TORSDOF 3
ENDMDL
MODEL 2
REMARK VINA RESULT: -6.403032439      2.450      5.341
REMARK  3 active torsions:
REMARK  status: ('A' for Active; 'I' for Inactive)
REMARK    1  A    between atoms: O1_2  and  N1_3 
REMARK    2  A    between atoms: N1_3  and  C2_5 
REMARK    3  A    between atoms: C4_12  and  N5_13 
ROOT
HETATM    1  C2  UNL     1       9.892  26.431  35.772  1.00  0.00     0.719 A 
HETATM    2  N2  UNL     1      10.254  26.212  34.496  1.00  0.00    -0.161 N 
ATOM      3  H2  UNL     1      11.101  26.643  34.125  1.00  0.00     0.187 HD
HETATM    4  C3  UNL     1       9.500  25.425  33.712  1.00  0.00     0.221 A 
HETATM    5  N3  UNL     1       9.895  25.202  32.364  1.00  0.00    -0.062 NA
HETATM    6  N4  UNL     1       8.393  24.878  34.247  1.00  0.00    -0.163 N 
ATOM      7  H4  UNL     1       7.818  24.279  33.654  1.00  0.00     0.187 HD
HETATM    8  C4  UNL     1       8.001  25.075  35.517  1.00  0.00     0.693 A 
HETATM    9  N6  UNL     1       8.765  25.865  36.289  1.00  0.00    -0.021 N 
ATOM     10  H6  UNL     1       8.503  26.040  37.259  1.00  0.00     0.203 HD
ENDROOT
BRANCH   1  11
HETATM   11  N1  UNL     1      10.624  27.190  36.516  1.00  0.00    -0.096 N 
ATOM     12  H1  UNL     1      11.610  27.298  36.280  1.00  0.00     0.213 HD
BRANCH  11  13
HETATM   13  O1  UNL     1      10.141  27.850  37.600  1.00  0.00    -0.272 OA
HETATM   14  C1  UNL     1      10.696  29.134  37.879  1.00  0.00     0.238 C 
ENDBRANCH  11  13
ENDBRANCH   1  11
BRANCH   8  15
HETATM   15  N5  UNL     1       6.931  24.523  35.973  1.00  0.00    -0.234 N 
ATOM     16  H52 UNL     1       6.190  24.205  35.349  1.00  0.00     0.174 HD
ATOM     17  H51 UNL     1       6.796  24.389  36.975  1.00  0.00     0.174 HD
ENDBRANCH   8  15
TORSDOF 3
ENDMDL
MODEL 3
REMARK VINA RESULT: -6.130570954      2.773      5.767
REMARK  3 active torsions:
REMARK  status: ('A' for Active; 'I' for Inactive)
REMARK    1  A    between atoms: O1_2  and  N1_3 
REMARK    2  A    between atoms: N1_3  and  C2_5 
REMARK    3  A    between atoms: C4_12  and  N5_13 
ROOT
HETATM    1  C2  UNL     1       9.402  25.960  34.644  1.00  0.00     0.719 A 
HETATM    2  N2  UNL     1       9.048  25.685  33.377  1.00  0.00    -0.161 N 
ATOM      3  H2  UNL     1       9.655  25.962  32.606  1.00  0.00     0.187 HD
HETATM    4  C3  UNL     1       7.894  25.045  33.130  1.00  0.00     0.221 A 
HETATM    5  N3  UNL     1       7.531  24.760  31.784  1.00  0.00    -0.062 NA
HETATM    6  N4  UNL     1       7.128  24.698  34.180  1.00  0.00    -0.163 N 
ATOM      7  H4  UNL     1       6.251  24.211  33.995  1.00  0.00     0.187 HD
HETATM    8  C4  UNL     1       7.451  24.957  35.458  1.00  0.00     0.693 A 
HETATM    9  N6  UNL     1       8.608  25.599  35.690  1.00  0.00    -0.021 N 
ATOM     10  H6  UNL     1       8.890  25.815  36.646  1.00  0.00     0.203 HD
ENDROOT
BRANCH   1  11
HETATM   11  N1  UNL     1      10.514  26.577  34.871  1.00  0.00    -0.096 N 
ATOM     12  H1  UNL     1      11.226  26.581  34.141  1.00  0.00     0.213 HD
BRANCH  11  13
HETATM   13  O1  UNL     1      10.778  27.221  36.036  1.00  0.00    -0.272 OA
HETATM   14  C1  UNL     1      11.374  28.513  35.945  1.00  0.00     0.238 C 
ENDBRANCH  11  13
ENDBRANCH   1  11
BRANCH   8  15
HETATM   15  N5  UNL     1       6.676  24.600  36.423  1.00  0.00    -0.234 N 
ATOM     16  H52 UNL     1       6.426  25.246  37.171  1.00  0.00     0.174 HD
ATOM     17  H51 UNL     1       6.291  23.657  36.464  1.00  0.00     0.174 HD
ENDBRANCH   8  15
TORSDOF 3
ENDMDL
MODEL 4
REMARK VINA RESULT: -5.824588095      2.198      3.998
REMARK  3 active torsions:
REMARK  status: ('A' for Active; 'I' for Inactive)
REMARK    1  A    between atoms: O1_2  and  N1_3 
REMARK    2  A    between atoms: N1_3  and  C2_5 
REMARK    3  A    between atoms: C4_12  and  N5_13 
ROOT
HETATM    1  C2  UNL     1       9.751  25.772  34.313  1.00  0.00     0.719 A 
HETATM    2  N2  UNL     1      10.445  26.836  34.753  1.00  0.00    -0.161 N 
ATOM      3  H2  UNL     1      10.952  27.424  34.092  1.00  0.00     0.187 HD
HETATM    4  C3  UNL     1      10.467  27.123  36.065  1.00  0.00     0.221 A 
HETATM    5  N3  UNL     1      11.206  28.252  36.517  1.00  0.00    -0.062 NA
HETATM    6  N4  UNL     1       9.782  26.320  36.898  1.00  0.00    -0.163 N 
ATOM      7  H4  UNL     1       9.796  26.536  37.895  1.00  0.00     0.187 HD
HETATM    8  C4  UNL     1       9.079  25.249  36.492  1.00  0.00     0.693 A 
HETATM    9  N6  UNL     1       9.066  24.974  35.178  1.00  0.00    -0.021 N 
ATOM     10  H6  UNL     1       8.544  24.170  34.829  1.00  0.00     0.203 HD
ENDROOT
BRANCH   1  11
HETATM   11  N1  UNL     1       9.737  25.505  33.050  1.00  0.00    -0.096 N 
ATOM     12  H1  UNL     1      10.241  26.124  32.416  1.00  0.00     0.213 HD
BRANCH  11  13
HETATM   13  O1  UNL     1       9.081  24.437  32.528  1.00  0.00    -0.272 OA
HETATM   14  C1  UNL     1       7.746  24.652  32.075  1.00  0.00     0.238 C 
ENDBRANCH  11  13
ENDBRANCH   1  11
BRANCH   8  15
HETATM   15  N5  UNL     1       8.441  24.517  37.338  1.00  0.00    -0.234 N 
ATOM     16  H52 UNL     1       8.369  24.780  38.321  1.00  0.00     0.174 HD
ATOM     17  H51 UNL     1       7.990  23.650  37.046  1.00  0.00     0.174 HD
ENDBRANCH   8  15
TORSDOF 3
ENDMDL
MODEL 5
REMARK VINA RESULT: -5.724370143      2.179      4.291
REMARK  3 active torsions:
REMARK  status: ('A' for Active; 'I' for Inactive)
REMARK    1  A    between atoms: O1_2  and  N1_3 
REMARK    2  A    between atoms: N1_3  and  C2_5 
REMARK    3  A    between atoms: C4_12  and  N5_13 
ROOT
HETATM    1  C2  UNL     1      10.584  27.167  35.970  1.00  0.00     0.719 A 
HETATM    2  N2  UNL     1       9.923  26.463  36.905  1.00  0.00    -0.161 N 
ATOM      3  H2  UNL     1       9.996  26.725  37.888  1.00  0.00     0.187 HD
HETATM    4  C3  UNL     1       9.166  25.415  36.542  1.00  0.00     0.221 A 
HETATM    5  N3  UNL     1       8.472  24.678  37.542  1.00  0.00    -0.062 NA
HETATM    6  N4  UNL     1       9.100  25.108  35.233  1.00  0.00    -0.163 N 
ATOM      7  H4  UNL     1       8.525  24.313  34.954  1.00  0.00     0.187 HD
HETATM    8  C4  UNL     1       9.747  25.790  34.273  1.00  0.00     0.693 A 
HETATM    9  N6  UNL     1      10.500  26.835  34.652  1.00  0.00    -0.021 N 
ATOM     10  H6  UNL     1      11.008  27.379  33.954  1.00  0.00     0.203 HD
ENDROOT
BRANCH   1  11
HETATM   11  N1  UNL     1      11.309  28.172  36.331  1.00  0.00    -0.096 N 
ATOM     12  H1  UNL     1      12.101  28.004  36.951  1.00  0.00     0.213 HD
BRANCH  11  13
HETATM   13  O1  UNL     1      11.066  29.443  35.922  1.00  0.00    -0.272 OA
HETATM   14  C1  UNL     1      12.089  30.092  35.169  1.00  0.00     0.238 C 
ENDBRANCH  11  13
ENDBRANCH   1  11
BRANCH   8  15
HETATM   15  N5  UNL     1       9.644  25.449  33.036  1.00  0.00    -0.234 N 
ATOM     16  H52 UNL     1      10.268  24.757  32.621  1.00  0.00     0.174 HD
ATOM     17  H51 UNL     1       8.932  25.865  32.435  1.00  0.00     0.174 HD
ENDBRANCH   8  15
TORSDOF 3
ENDMDL
