MODEL 1
REMARK VINA RESULT: -6.227261059      0.000      0.000
REMARK  5 active torsions:
REMARK  status: ('A' for Active; 'I' for Inactive)
REMARK    1  A    between atoms: N1_1  and  C1_4 
REMARK    2  A    between atoms: C2_7  and  C3_8 
REMARK    3  A    between atoms: C3_8  and  O1_9 
REMARK    4  A    between atoms: O1_9  and  N3_10 
REMARK    5  A    between atoms: C4_15  and  N5_16 
ROOT
HETATM    1  C1  UNL     1      27.345  29.212 -19.869  1.00  0.00     0.691 A 
HETATM    2  N2  UNL     1      26.680  28.130 -19.425  1.00  0.00    -0.177 N 
ATOM      3  H2  UNL     1      26.163  27.548 -20.084  1.00  0.00     0.185 HD
HETATM    4  C2  UNL     1      26.691  27.807 -18.112  1.00  0.00     0.139 A 
HETATM    5  N4  UNL     1      27.391  28.614 -17.293  1.00  0.00    -0.177 N 
ATOM      6  H4  UNL     1      27.418  28.397 -16.296  1.00  0.00     0.185 HD
HETATM    7  C4  UNL     1      28.056  29.696 -17.738  1.00  0.00     0.691 A 
HETATM    8  N6  UNL     1      28.044  30.013 -19.045  1.00  0.00    -0.023 N 
ATOM      9  H6  UNL     1      28.544  30.830 -19.397  1.00  0.00     0.203 HD
ENDROOT
BRANCH   4  10
HETATM   10  C3  UNL     1      25.954  26.610 -17.612  1.00  0.00     0.278 C 
BRANCH  10  11
HETATM   11  O1  UNL     1      24.646  26.926 -17.239  1.00  0.00    -0.280 OA
BRANCH  11  12
HETATM   12  N3  UNL     1      23.777  26.758 -18.257  1.00  0.00    -0.311 N 
ATOM     13  H32 UNL     1      23.404  25.848 -18.528  1.00  0.00     0.184 HD
ATOM     14  H31 UNL     1      23.545  27.642 -18.711  1.00  0.00     0.184 HD
ENDBRANCH  11  12
ENDBRANCH  10  11
ENDBRANCH   4  10
BRANCH   1  15
HETATM   15  N1  UNL     1      27.337  29.523 -21.125  1.00  0.00    -0.234 N 
ATOM     16  H12 UNL     1      26.475  29.347 -21.640  1.00  0.00     0.174 HD
ATOM     17  H11 UNL     1      28.163  29.926 -21.567  1.00  0.00     0.174 HD
ENDBRANCH   1  15
BRANCH   7  18
HETATM   18  N5  UNL     1      28.730  30.473 -16.957  1.00  0.00    -0.234 N 
ATOM     19  H52 UNL     1      28.819  30.181 -15.984  1.00  0.00     0.174 HD
ATOM     20  H51 UNL     1      29.161  31.341 -17.279  1.00  0.00     0.174 HD
ENDBRANCH   7  18
TORSDOF 5
ENDMDL
MODEL 2
REMARK VINA RESULT: -6.215792358      0.027      2.366
REMARK  5 active torsions:
REMARK  status: ('A' for Active; 'I' for Inactive)
REMARK    1  A    between atoms: N1_1  and  C1_4 
REMARK    2  A    between atoms: C2_7  and  C3_8 
REMARK    3  A    between atoms: C3_8  and  O1_9 
REMARK    4  A    between atoms: O1_9  and  N3_10 
REMARK    5  A    between atoms: C4_15  and  N5_16 
ROOT
HETATM    1  C1  UNL     1      28.046  29.697 -17.766  1.00  0.00     0.691 A 
HETATM    2  N2  UNL     1      27.388  28.626 -17.286  1.00  0.00    -0.177 N 
ATOM      3  H2  UNL     1      27.418  28.419 -16.288  1.00  0.00     0.185 HD
HETATM    4  C2  UNL     1      26.687  27.822 -18.117  1.00  0.00     0.139 A 
HETATM    5  N4  UNL     1      26.686  28.148 -19.423  1.00  0.00    -0.177 N 
ATOM      6  H4  UNL     1      26.166  27.561 -20.076  1.00  0.00     0.185 HD
HETATM    7  C4  UNL     1      27.344  29.220 -19.901  1.00  0.00     0.691 A 
HETATM    8  N6  UNL     1      28.040  30.019 -19.072  1.00  0.00    -0.023 N 
ATOM      9  H6  UNL     1      28.543  30.835 -19.420  1.00  0.00     0.203 HD
ENDROOT
BRANCH   4  10
HETATM   10  C3  UNL     1      25.956  26.631 -17.593  1.00  0.00     0.278 C 
BRANCH  10  11
HETATM   11  O1  UNL     1      24.637  26.942 -17.256  1.00  0.00    -0.280 OA
BRANCH  11  12
HETATM   12  N3  UNL     1      23.791  26.738 -18.287  1.00  0.00    -0.311 N 
ATOM     13  H32 UNL     1      24.065  26.848 -19.264  1.00  0.00     0.184 HD
ATOM     14  H31 UNL     1      22.861  26.465 -17.969  1.00  0.00     0.184 HD
ENDBRANCH  11  12
ENDBRANCH  10  11
ENDBRANCH   4  10
BRANCH   1  15
HETATM   15  N1  UNL     1      28.718  30.469 -16.973  1.00  0.00    -0.234 N 
ATOM     16  H12 UNL     1      28.200  31.207 -16.496  1.00  0.00     0.174 HD
ATOM     17  H11 UNL     1      29.720  30.333 -16.841  1.00  0.00     0.174 HD
ENDBRANCH   1  15
BRANCH   7  18
HETATM   18  N5  UNL     1      27.346  29.539 -21.153  1.00  0.00    -0.234 N 
ATOM     19  H52 UNL     1      27.038  28.822 -21.810  1.00  0.00     0.174 HD
ATOM     20  H51 UNL     1      27.639  30.457 -21.489  1.00  0.00     0.174 HD
ENDBRANCH   7  18
TORSDOF 5
ENDMDL
MODEL 3
REMARK VINA RESULT: -5.923085509      2.852      4.160
REMARK  5 active torsions:
REMARK  status: ('A' for Active; 'I' for Inactive)
REMARK    1  A    between atoms: N1_1  and  C1_4 
REMARK    2  A    between atoms: C2_7  and  C3_8 
REMARK    3  A    between atoms: C3_8  and  O1_9 
REMARK    4  A    between atoms: O1_9  and  N3_10 
REMARK    5  A    between atoms: C4_15  and  N5_16 
ROOT
HETATM    1  C1  UNL     1      30.432  31.519 -20.587  1.00  0.00     0.691 A 
HETATM    2  N2  UNL     1      30.325  31.035 -19.336  1.00  0.00    -0.177 N 
ATOM      3  H2  UNL     1      31.137  31.043 -18.719  1.00  0.00     0.185 HD
HETATM    4  C2  UNL     1      29.149  30.539 -18.889  1.00  0.00     0.139 A 
HETATM    5  N4  UNL     1      28.115  30.557 -19.750  1.00  0.00    -0.177 N 
ATOM      6  H4  UNL     1      27.214  30.189 -19.443  1.00  0.00     0.185 HD
HETATM    7  C4  UNL     1      28.223  31.042 -21.001  1.00  0.00     0.691 A 
HETATM    8  N6  UNL     1      29.394  31.535 -21.442  1.00  0.00    -0.023 N 
ATOM      9  H6  UNL     1      29.491  31.906 -22.387  1.00  0.00     0.203 HD
ENDROOT
BRANCH   4  10
HETATM   10  C3  UNL     1      29.023  30.000 -17.503  1.00  0.00     0.278 C 
BRANCH  10  11
HETATM   11  O1  UNL     1      27.689  29.784 -17.152  1.00  0.00    -0.280 OA
BRANCH  11  12
HETATM   12  N3  UNL     1      27.420  28.474 -16.977  1.00  0.00    -0.311 N 
ATOM     13  H32 UNL     1      27.671  27.756 -17.657  1.00  0.00     0.184 HD
ATOM     14  H31 UNL     1      26.942  28.297 -16.093  1.00  0.00     0.184 HD
ENDBRANCH  11  12
ENDBRANCH  10  11
ENDBRANCH   4  10
BRANCH   1  15
HETATM   15  N1  UNL     1      31.556  31.994 -21.017  1.00  0.00    -0.234 N 
ATOM     16  H12 UNL     1      32.337  32.002 -20.361  1.00  0.00     0.174 HD
ATOM     17  H11 UNL     1      31.643  32.342 -21.972  1.00  0.00     0.174 HD
ENDBRANCH   1  15
BRANCH   7  18
HETATM   18  N5  UNL     1      27.234  31.062 -21.831  1.00  0.00    -0.234 N 
ATOM     19  H52 UNL     1      26.320  30.798 -21.463  1.00  0.00     0.174 HD
ATOM     20  H51 UNL     1      27.341  31.326 -22.811  1.00  0.00     0.174 HD
ENDBRANCH   7  18
TORSDOF 5
ENDMDL
MODEL 4
REMARK VINA RESULT: -5.919773323      2.858      3.825
REMARK  5 active torsions:
REMARK  status: ('A' for Active; 'I' for Inactive)
REMARK    1  A    between atoms: N1_1  and  C1_4 
REMARK    2  A    between atoms: C2_7  and  C3_8 
REMARK    3  A    between atoms: C3_8  and  O1_9 
REMARK    4  A    between atoms: O1_9  and  N3_10 
REMARK    5  A    between atoms: C4_15  and  N5_16 
ROOT
HETATM    1  C1  UNL     1      28.260  31.037 -21.012  1.00  0.00     0.691 A 
HETATM    2  N2  UNL     1      28.121  30.554 -19.764  1.00  0.00    -0.177 N 
ATOM      3  H2  UNL     1      27.220  30.183 -19.463  1.00  0.00     0.185 HD
HETATM    4  C2  UNL     1      29.166  30.557 -18.906  1.00  0.00     0.139 A 
HETATM    5  N4  UNL     1      30.328  31.060 -19.362  1.00  0.00    -0.177 N 
ATOM      6  H4  UNL     1      31.135  31.077 -18.738  1.00  0.00     0.185 HD
HETATM    7  C4  UNL     1      30.465  31.542 -20.612  1.00  0.00     0.691 A 
HETATM    8  N6  UNL     1      29.424  31.537 -21.463  1.00  0.00    -0.023 N 
ATOM      9  H6  UNL     1      29.514  31.899 -22.413  1.00  0.00     0.203 HD
ENDROOT
BRANCH   4  10
HETATM   10  C3  UNL     1      29.018  30.025 -17.519  1.00  0.00     0.278 C 
BRANCH  10  11
HETATM   11  O1  UNL     1      27.681  29.782 -17.199  1.00  0.00    -0.280 OA
BRANCH  11  12
HETATM   12  N3  UNL     1      27.447  28.473 -16.972  1.00  0.00    -0.311 N 
ATOM     13  H32 UNL     1      27.218  27.809 -17.713  1.00  0.00     0.184 HD
ATOM     14  H31 UNL     1      27.526  28.238 -15.982  1.00  0.00     0.184 HD
ENDBRANCH  11  12
ENDBRANCH  10  11
ENDBRANCH   4  10
BRANCH   1  15
HETATM   15  N1  UNL     1      27.262  31.035 -21.836  1.00  0.00    -0.234 N 
ATOM     16  H12 UNL     1      27.481  30.953 -22.829  1.00  0.00     0.174 HD
ATOM     17  H11 UNL     1      26.305  31.112 -21.494  1.00  0.00     0.174 HD
ENDBRANCH   1  15
BRANCH   7  18
HETATM   18  N5  UNL     1      31.578  32.026 -21.056  1.00  0.00    -0.234 N 
ATOM     19  H52 UNL     1      31.598  33.027 -21.251  1.00  0.00     0.174 HD
ATOM     20  H51 UNL     1      32.407  31.451 -21.211  1.00  0.00     0.174 HD
ENDBRANCH   7  18
TORSDOF 5
ENDMDL
MODEL 5
REMARK VINA RESULT: -5.838082505      1.131      1.175
REMARK  5 active torsions:
REMARK  status: ('A' for Active; 'I' for Inactive)
REMARK    1  A    between atoms: N1_1  and  C1_4 
REMARK    2  A    between atoms: C2_7  and  C3_8 
REMARK    3  A    between atoms: C3_8  and  O1_9 
REMARK    4  A    between atoms: O1_9  and  N3_10 
REMARK    5  A    between atoms: C4_15  and  N5_16 
ROOT
HETATM    1  C1  UNL     1      27.384  29.290 -20.011  1.00  0.00     0.691 A 
HETATM    2  N2  UNL     1      26.692  28.205 -19.620  1.00  0.00    -0.177 N 
ATOM      3  H2  UNL     1      26.184  27.652 -20.310  1.00  0.00     0.185 HD
HETATM    4  C2  UNL     1      26.667  27.838 -18.318  1.00  0.00     0.139 A 
HETATM    5  N4  UNL     1      27.358  28.607 -17.456  1.00  0.00    -0.177 N 
ATOM      6  H4  UNL     1      27.358  28.357 -16.467  1.00  0.00     0.185 HD
HETATM    7  C4  UNL     1      28.049  29.693 -17.849  1.00  0.00     0.691 A 
HETATM    8  N6  UNL     1      28.073  30.054 -19.145  1.00  0.00    -0.023 N 
ATOM      9  H6  UNL     1      28.594  30.874 -19.457  1.00  0.00     0.203 HD
ENDROOT
BRANCH   4  10
HETATM   10  C3  UNL     1      25.901  26.636 -17.876  1.00  0.00     0.278 C 
BRANCH  10  11
HETATM   11  O1  UNL     1      25.540  26.719 -16.530  1.00  0.00    -0.280 OA
BRANCH  11  12
HETATM   12  N3  UNL     1      26.352  25.984 -15.744  1.00  0.00    -0.311 N 
ATOM     13  H32 UNL     1      27.173  25.490 -16.096  1.00  0.00     0.184 HD
ATOM     14  H31 UNL     1      26.045  25.985 -14.771  1.00  0.00     0.184 HD
ENDBRANCH  11  12
ENDBRANCH  10  11
ENDBRANCH   4  10
BRANCH   1  15
HETATM   15  N1  UNL     1      27.410  29.643 -21.256  1.00  0.00    -0.234 N 
ATOM     16  H12 UNL     1      26.807  29.127 -21.897  1.00  0.00     0.174 HD
ATOM     17  H11 UNL     1      28.012  30.405 -21.568  1.00  0.00     0.174 HD
ENDBRANCH   1  15
BRANCH   7  18
HETATM   18  N5  UNL     1      28.715  30.434 -17.027  1.00  0.00    -0.234 N 
ATOM     19  H52 UNL     1      29.722  30.497 -17.177  1.00  0.00     0.174 HD
ATOM     20  H51 UNL     1      28.274  30.939 -16.258  1.00  0.00     0.174 HD
ENDBRANCH   7  18
TORSDOF 5
ENDMDL
