MODEL 1
REMARK VINA RESULT: -7.299364164      0.000      0.000
REMARK  1 active torsions:
REMARK  status: ('A' for Active; 'I' for Inactive)
REMARK    1  A    between atoms: C4_14  and  N7_15 
ROOT
HETATM    1  N1  UNL     1      30.515  30.513 -17.629  1.00  0.00    -0.386 N 
ATOM      2  H11 UNL     1      29.919  30.241 -16.847  1.00  0.00     0.157 HD
ATOM      3  H12 UNL     1      31.528  30.625 -17.606  1.00  0.00     0.157 HD
HETATM    4  C1  UNL     1      29.889  30.730 -18.742  1.00  0.00     0.116 C 
HETATM    5  N2  UNL     1      30.717  31.107 -19.826  1.00  0.00    -0.318 N 
ATOM      6  H2  UNL     1      31.720  31.082 -19.649  1.00  0.00     0.170 HD
HETATM    7  C2  UNL     1      30.326  31.517 -21.131  1.00  0.00     0.192 C 
HETATM    8  N3  UNL     1      31.263  32.230 -21.922  1.00  0.00    -0.063 NA
HETATM    9  N4  UNL     1      29.159  31.278 -21.649  1.00  0.00    -0.332 N 
ATOM     10  H4  UNL     1      29.055  31.645 -22.595  1.00  0.00     0.165 HD
HETATM   11  C3  UNL     1      27.995  30.612 -21.175  1.00  0.00     0.289 A 
HETATM   12  N5  UNL     1      28.267  29.202 -20.821  1.00  0.00    -0.117 NA
HETATM   13  N6  UNL     1      27.839  30.155 -19.950  1.00  0.00    -0.162 NA
HETATM   14  C4  UNL     1      28.423  30.568 -18.776  1.00  0.00     0.287 C 
ENDROOT
BRANCH  14  15
HETATM   15  N7  UNL     1      27.837  31.854 -18.358  1.00  0.00     0.044 NA
HETATM   16  F1  UNL     1      27.798  31.835 -17.004  1.00  0.00    -0.099 F 
HETATM   17  F2  UNL     1      28.611  32.863 -18.790  1.00  0.00    -0.099 F 
ENDBRANCH  14  15
TORSDOF 1
ENDMDL
MODEL 2
REMARK VINA RESULT: -7.227125556      1.831      2.718
REMARK  1 active torsions:
REMARK  status: ('A' for Active; 'I' for Inactive)
REMARK    1  A    between atoms: C4_14  and  N7_15 
ROOT
HETATM    1  N1  UNL     1      27.012  28.834 -19.860  1.00  0.00    -0.386 N 
ATOM      2  H11 UNL     1      26.621  28.807 -18.918  1.00  0.00     0.157 HD
ATOM      3  H12 UNL     1      26.805  28.185 -20.618  1.00  0.00     0.157 HD
HETATM    4  C1  UNL     1      27.848  29.799 -20.077  1.00  0.00     0.116 C 
HETATM    5  N2  UNL     1      28.389  29.836 -21.384  1.00  0.00    -0.318 N 
ATOM      6  H2  UNL     1      28.003  29.162 -22.044  1.00  0.00     0.170 HD
HETATM    7  C2  UNL     1      29.404  30.693 -21.893  1.00  0.00     0.192 C 
HETATM    8  N3  UNL     1      30.078  30.307 -23.080  1.00  0.00    -0.063 NA
HETATM    9  N4  UNL     1      29.755  31.814 -21.338  1.00  0.00    -0.332 N 
ATOM     10  H4  UNL     1      30.499  32.297 -21.842  1.00  0.00     0.165 HD
HETATM   11  C3  UNL     1      29.320  32.509 -20.176  1.00  0.00     0.289 A 
HETATM   12  N5  UNL     1      27.880  32.842 -20.235  1.00  0.00    -0.117 NA
HETATM   13  N6  UNL     1      28.457  32.039 -19.301  1.00  0.00    -0.162 NA
HETATM   14  C4  UNL     1      28.148  30.739 -18.980  1.00  0.00     0.287 C 
ENDROOT
BRANCH  14  15
HETATM   15  N7  UNL     1      29.247  30.149 -18.195  1.00  0.00     0.044 NA
HETATM   16  F1  UNL     1      28.669  29.353 -17.264  1.00  0.00    -0.099 F 
HETATM   17  F2  UNL     1      30.040  29.426 -19.002  1.00  0.00    -0.099 F 
ENDBRANCH  14  15
TORSDOF 1
ENDMDL
MODEL 3
REMARK VINA RESULT: -7.056324841      1.371      3.200
REMARK  1 active torsions:
REMARK  status: ('A' for Active; 'I' for Inactive)
REMARK    1  A    between atoms: C4_14  and  N7_15 
ROOT
HETATM    1  N1  UNL     1      26.884  29.553 -21.084  1.00  0.00    -0.386 N 
ATOM      2  H11 UNL     1      26.319  29.952 -21.835  1.00  0.00     0.157 HD
ATOM      3  H12 UNL     1      26.678  28.703 -20.560  1.00  0.00     0.157 HD
HETATM    4  C1  UNL     1      27.956  30.219 -20.795  1.00  0.00     0.116 C 
HETATM    5  N2  UNL     1      28.738  29.667 -19.754  1.00  0.00    -0.318 N 
ATOM      6  H2  UNL     1      28.431  28.761 -19.400  1.00  0.00     0.170 HD
HETATM    7  C2  UNL     1      29.897  30.214 -19.137  1.00  0.00     0.192 C 
HETATM    8  N3  UNL     1      30.284  29.714 -17.868  1.00  0.00    -0.063 NA
HETATM    9  N4  UNL     1      30.630  31.148 -19.666  1.00  0.00    -0.332 N 
ATOM     10  H4  UNL     1      31.422  31.417 -19.082  1.00  0.00     0.165 HD
HETATM   11  C3  UNL     1      30.559  31.874 -20.887  1.00  0.00     0.289 A 
HETATM   12  N5  UNL     1      30.618  30.984 -22.067  1.00  0.00    -0.117 NA
HETATM   13  N6  UNL     1      29.570  31.792 -21.751  1.00  0.00    -0.162 NA
HETATM   14  C4  UNL     1      28.253  31.450 -21.553  1.00  0.00     0.287 C 
ENDROOT
BRANCH  14  15
HETATM   15  N7  UNL     1      27.552  32.554 -20.875  1.00  0.00     0.044 NA
HETATM   16  F1  UNL     1      27.809  32.417 -19.552  1.00  0.00    -0.099 F 
HETATM   17  F2  UNL     1      28.022  33.730 -21.324  1.00  0.00    -0.099 F 
ENDBRANCH  14  15
TORSDOF 1
ENDMDL
MODEL 4
REMARK VINA RESULT: -6.827423944      1.881      2.152
REMARK  1 active torsions:
REMARK  status: ('A' for Active; 'I' for Inactive)
REMARK    1  A    between atoms: C4_14  and  N7_15 
ROOT
HETATM    1  N1  UNL     1      30.540  30.676 -17.942  1.00  0.00    -0.386 N 
ATOM      2  H11 UNL     1      30.587  29.758 -17.500  1.00  0.00     0.157 HD
ATOM      3  H12 UNL     1      31.078  31.501 -17.679  1.00  0.00     0.157 HD
HETATM    4  C1  UNL     1      29.705  30.764 -18.927  1.00  0.00     0.116 C 
HETATM    5  N2  UNL     1      29.640  32.038 -19.540  1.00  0.00    -0.318 N 
ATOM      6  H2  UNL     1      30.315  32.726 -19.208  1.00  0.00     0.170 HD
HETATM    7  C2  UNL     1      28.752  32.481 -20.560  1.00  0.00     0.192 C 
HETATM    8  N3  UNL     1      28.580  33.877 -20.743  1.00  0.00    -0.063 NA
HETATM    9  N4  UNL     1      28.085  31.684 -21.340  1.00  0.00    -0.332 N 
ATOM     10  H4  UNL     1      27.498  32.177 -22.013  1.00  0.00     0.165 HD
HETATM   11  C3  UNL     1      28.002  30.268 -21.452  1.00  0.00     0.289 A 
HETATM   12  N5  UNL     1      29.317  29.655 -21.739  1.00  0.00    -0.117 NA
HETATM   13  N6  UNL     1      28.571  29.416 -20.627  1.00  0.00    -0.162 NA
HETATM   14  C4  UNL     1      28.926  29.571 -19.307  1.00  0.00     0.287 C 
ENDROOT
BRANCH  14  15
HETATM   15  N7  UNL     1      27.716  29.559 -18.466  1.00  0.00     0.044 NA
HETATM   16  F1  UNL     1      26.921  28.575 -18.951  1.00  0.00    -0.099 F 
HETATM   17  F2  UNL     1      28.056  29.301 -17.192  1.00  0.00    -0.099 F 
ENDBRANCH  14  15
TORSDOF 1
ENDMDL
MODEL 5
REMARK VINA RESULT: -6.792854813      2.326      3.748
REMARK  1 active torsions:
REMARK  status: ('A' for Active; 'I' for Inactive)
REMARK    1  A    between atoms: C4_14  and  N7_15 
ROOT
HETATM    1  N1  UNL     1      31.950  32.243 -21.266  1.00  0.00    -0.386 N 
ATOM      2  H11 UNL     1      32.022  32.572 -22.229  1.00  0.00     0.157 HD
ATOM      3  H12 UNL     1      32.673  32.306 -20.550  1.00  0.00     0.157 HD
HETATM    4  C1  UNL     1      30.816  31.698 -20.960  1.00  0.00     0.116 C 
HETATM    5  N2  UNL     1      30.715  31.242 -19.624  1.00  0.00    -0.318 N 
ATOM      6  H2  UNL     1      31.503  31.467 -19.017  1.00  0.00     0.170 HD
HETATM    7  C2  UNL     1      29.656  30.509 -19.020  1.00  0.00     0.192 C 
HETATM    8  N3  UNL     1      29.922  29.809 -17.816  1.00  0.00    -0.063 NA
HETATM    9  N4  UNL     1      28.452  30.440 -19.504  1.00  0.00    -0.332 N 
ATOM     10  H4  UNL     1      27.823  29.870 -18.938  1.00  0.00     0.165 HD
HETATM   11  C3  UNL     1      27.827  30.992 -20.657  1.00  0.00     0.289 A 
HETATM   12  N5  UNL     1      27.882  32.470 -20.665  1.00  0.00    -0.117 NA
HETATM   13  N6  UNL     1      28.453  31.663 -21.600  1.00  0.00    -0.162 NA
HETATM   14  C4  UNL     1      29.769  31.607 -21.995  1.00  0.00     0.287 C 
ENDROOT
BRANCH  14  15
HETATM   15  N7  UNL     1      30.008  30.359 -22.742  1.00  0.00     0.044 NA
HETATM   16  F1  UNL     1      29.991  29.358 -21.831  1.00  0.00    -0.099 F 
HETATM   17  F2  UNL     1      29.034  30.184 -23.650  1.00  0.00    -0.099 F 
ENDBRANCH  14  15
TORSDOF 1
ENDMDL
