MODEL 1
REMARK VINA RESULT: -6.402673227      0.000      0.000
REMARK  6 active torsions:
REMARK  status: ('A' for Active; 'I' for Inactive)
REMARK    1  A    between atoms: N1_1  and  C1_4 
REMARK    2  A    between atoms: C2_7  and  O1_8 
REMARK    3  A    between atoms: O1_8  and  C3_9 
REMARK    4  A    between atoms: C3_9  and  C4_10 
REMARK    5  A    between atoms: C4_10  and  O2_11 
REMARK    6  A    between atoms: C5_15  and  N4_16 
ROOT
HETATM    1  C1  UNL     1      27.416  29.247 -19.960  1.00  0.00     0.693 A 
HETATM    2  N2  UNL     1      26.677  28.273 -19.428  1.00  0.00    -0.154 N 
ATOM      3  H2  UNL     1      26.090  27.701 -20.035  1.00  0.00     0.188 HD
HETATM    4  C2  UNL     1      26.693  28.036 -18.119  1.00  0.00     0.252 A 
HETATM    5  N3  UNL     1      27.479  28.805 -17.338  1.00  0.00    -0.154 N 
ATOM      6  H3  UNL     1      27.498  28.631 -16.334  1.00  0.00     0.188 HD
HETATM    7  C5  UNL     1      28.234  29.789 -17.839  1.00  0.00     0.693 A 
HETATM    8  N5  UNL     1      28.199  30.008 -19.166  1.00  0.00    -0.023 N 
ATOM      9  H5  UNL     1      28.765  30.752 -19.574  1.00  0.00     0.203 HD
ENDROOT
BRANCH   4  10
HETATM   10  O1  UNL     1      25.972  27.061 -17.468  1.00  0.00    -0.319 OA
BRANCH  10  11
HETATM   11  C3  UNL     1      25.445  25.935 -18.087  1.00  0.00     0.205 C 
BRANCH  11  12
HETATM   12  C4  UNL     1      24.004  26.159 -18.448  1.00  0.00     0.191 C 
BRANCH  12  13
HETATM   13  O2  UNL     1      23.404  26.813 -17.350  1.00  0.00    -0.399 OA
ATOM     14  H2  UNL     1      22.609  26.335 -17.145  1.00  0.00     0.209 HD
ENDBRANCH  12  13
ENDBRANCH  11  12
ENDBRANCH  10  11
ENDBRANCH   4  10
BRANCH   1  15
HETATM   15  N1  UNL     1      27.407  29.488 -21.248  1.00  0.00    -0.234 N 
ATOM     16  H12 UNL     1      26.512  29.484 -21.739  1.00  0.00     0.174 HD
ATOM     17  H11 UNL     1      28.268  29.678 -21.761  1.00  0.00     0.174 HD
ENDBRANCH   1  15
BRANCH   7  18
HETATM   18  N4  UNL     1      28.989  30.523 -17.070  1.00  0.00    -0.234 N 
ATOM     19  H42 UNL     1      29.332  30.156 -16.183  1.00  0.00     0.174 HD
ATOM     20  H41 UNL     1      29.250  31.473 -17.334  1.00  0.00     0.174 HD
ENDBRANCH   7  18
TORSDOF 6
ENDMDL
MODEL 2
REMARK VINA RESULT: -6.377264219      0.159      2.304
REMARK  6 active torsions:
REMARK  status: ('A' for Active; 'I' for Inactive)
REMARK    1  A    between atoms: N1_1  and  C1_4 
REMARK    2  A    between atoms: C2_7  and  O1_8 
REMARK    3  A    between atoms: O1_8  and  C3_9 
REMARK    4  A    between atoms: C3_9  and  C4_10 
REMARK    5  A    between atoms: C4_10  and  O2_11 
REMARK    6  A    between atoms: C5_15  and  N4_16 
ROOT
HETATM    1  C1  UNL     1      28.219  29.704 -17.875  1.00  0.00     0.693 A 
HETATM    2  N2  UNL     1      27.508  28.739 -17.292  1.00  0.00    -0.154 N 
ATOM      3  H2  UNL     1      27.610  28.577 -16.290  1.00  0.00     0.188 HD
HETATM    4  C2  UNL     1      26.667  27.984 -17.996  1.00  0.00     0.252 A 
HETATM    5  N3  UNL     1      26.550  28.219 -19.319  1.00  0.00    -0.154 N 
ATOM      6  H3  UNL     1      25.909  27.647 -19.867  1.00  0.00     0.188 HD
HETATM    7  C5  UNL     1      27.248  29.180 -19.935  1.00  0.00     0.693 A 
HETATM    8  N5  UNL     1      28.091  29.928 -19.200  1.00  0.00    -0.023 N 
ATOM      9  H5  UNL     1      28.634  30.668 -19.646  1.00  0.00     0.203 HD
ENDROOT
BRANCH   4  10
HETATM   10  O1  UNL     1      25.889  26.966 -17.496  1.00  0.00    -0.319 OA
BRANCH  10  11
HETATM   11  C3  UNL     1      25.406  25.907 -18.254  1.00  0.00     0.205 C 
BRANCH  11  12
HETATM   12  C4  UNL     1      23.924  26.040 -18.459  1.00  0.00     0.191 C 
BRANCH  12  13
HETATM   13  O2  UNL     1      23.430  26.814 -17.387  1.00  0.00    -0.399 OA
ATOM     14  H2  UNL     1      22.873  27.485 -17.764  1.00  0.00     0.209 HD
ENDBRANCH  12  13
ENDBRANCH  11  12
ENDBRANCH  10  11
ENDBRANCH   4  10
BRANCH   1  15
HETATM   15  N1  UNL     1      29.049  30.452 -17.191  1.00  0.00    -0.234 N 
ATOM     16  H12 UNL     1      29.179  31.423 -17.476  1.00  0.00     0.174 HD
ATOM     17  H11 UNL     1      29.560  30.084 -16.388  1.00  0.00     0.174 HD
ENDBRANCH   1  15
BRANCH   7  18
HETATM   18  N4  UNL     1      27.121  29.395 -21.215  1.00  0.00    -0.234 N 
ATOM     19  H42 UNL     1      27.875  29.146 -21.856  1.00  0.00     0.174 HD
ATOM     20  H41 UNL     1      26.276  29.814 -21.602  1.00  0.00     0.174 HD
ENDBRANCH   7  18
TORSDOF 6
ENDMDL
MODEL 3
REMARK VINA RESULT: -6.291907759      1.679      1.873
REMARK  6 active torsions:
REMARK  status: ('A' for Active; 'I' for Inactive)
REMARK    1  A    between atoms: N1_1  and  C1_4 
REMARK    2  A    between atoms: C2_7  and  O1_8 
REMARK    3  A    between atoms: O1_8  and  C3_9 
REMARK    4  A    between atoms: C3_9  and  C4_10 
REMARK    5  A    between atoms: C4_10  and  O2_11 
REMARK    6  A    between atoms: C5_15  and  N4_16 
ROOT
HETATM    1  C1  UNL     1      28.264  29.763 -20.448  1.00  0.00     0.693 A 
HETATM    2  N2  UNL     1      27.383  29.071 -19.726  1.00  0.00    -0.154 N 
ATOM      3  H2  UNL     1      26.580  28.644 -20.188  1.00  0.00     0.188 HD
HETATM    4  C2  UNL     1      27.533  28.928 -18.411  1.00  0.00     0.252 A 
HETATM    5  N3  UNL     1      28.603  29.501 -17.822  1.00  0.00    -0.154 N 
ATOM      6  H3  UNL     1      28.728  29.397 -16.816  1.00  0.00     0.188 HD
HETATM    7  C5  UNL     1      29.506  30.201 -18.517  1.00  0.00     0.693 A 
HETATM    8  N5  UNL     1      29.330  30.331 -19.845  1.00  0.00    -0.023 N 
ATOM      9  H5  UNL     1      30.005  30.859 -20.398  1.00  0.00     0.203 HD
ENDROOT
BRANCH   4  10
HETATM   10  O1  UNL     1      26.687  28.237 -17.574  1.00  0.00    -0.319 OA
BRANCH  10  11
HETATM   11  C3  UNL     1      26.099  27.019 -17.888  1.00  0.00     0.205 C 
BRANCH  11  12
HETATM   12  C4  UNL     1      26.316  26.029 -16.780  1.00  0.00     0.191 C 
BRANCH  12  13
HETATM   13  O2  UNL     1      27.114  26.670 -15.809  1.00  0.00    -0.399 OA
ATOM     14  H2  UNL     1      27.378  27.506 -16.175  1.00  0.00     0.209 HD
ENDBRANCH  12  13
ENDBRANCH  11  12
ENDBRANCH  10  11
ENDBRANCH   4  10
BRANCH   1  15
HETATM   15  N1  UNL     1      28.124  29.909 -21.742  1.00  0.00    -0.234 N 
ATOM     16  H12 UNL     1      28.888  29.616 -22.351  1.00  0.00     0.174 HD
ATOM     17  H11 UNL     1      27.275  30.306 -22.145  1.00  0.00     0.174 HD
ENDBRANCH   1  15
BRANCH   7  18
HETATM   18  N4  UNL     1      30.536  30.749 -17.933  1.00  0.00    -0.234 N 
ATOM     19  H42 UNL     1      30.670  30.650 -16.927  1.00  0.00     0.174 HD
ATOM     20  H41 UNL     1      31.224  31.284 -18.463  1.00  0.00     0.174 HD
ENDBRANCH   7  18
TORSDOF 6
ENDMDL
MODEL 4
REMARK VINA RESULT: -6.282000942      1.373      2.758
REMARK  6 active torsions:
REMARK  status: ('A' for Active; 'I' for Inactive)
REMARK    1  A    between atoms: N1_1  and  C1_4 
REMARK    2  A    between atoms: C2_7  and  O1_8 
REMARK    3  A    between atoms: O1_8  and  C3_9 
REMARK    4  A    between atoms: C3_9  and  C4_10 
REMARK    5  A    between atoms: C4_10  and  O2_11 
REMARK    6  A    between atoms: C5_15  and  N4_16 
ROOT
HETATM    1  C1  UNL     1      28.838  30.139 -18.540  1.00  0.00     0.693 A 
HETATM    2  N2  UNL     1      28.188  29.362 -17.674  1.00  0.00    -0.154 N 
ATOM      3  H2  UNL     1      28.469  29.360 -16.693  1.00  0.00     0.188 HD
HETATM    4  C2  UNL     1      27.179  28.588 -18.068  1.00  0.00     0.252 A 
HETATM    5  N3  UNL     1      26.826  28.610 -19.370  1.00  0.00    -0.154 N 
ATOM      6  H3  UNL     1      26.054  28.021 -19.682  1.00  0.00     0.188 HD
HETATM    7  C5  UNL     1      27.456  29.379 -20.264  1.00  0.00     0.693 A 
HETATM    8  N5  UNL     1      28.473  30.151 -19.839  1.00  0.00    -0.023 N 
ATOM      9  H5  UNL     1      28.970  30.747 -20.502  1.00  0.00     0.203 HD
ENDROOT
BRANCH   4  10
HETATM   10  O1  UNL     1      26.443  27.751 -17.261  1.00  0.00    -0.319 OA
BRANCH  10  11
HETATM   11  C3  UNL     1      26.125  26.438 -17.581  1.00  0.00     0.205 C 
BRANCH  11  12
HETATM   12  C4  UNL     1      26.478  25.520 -16.446  1.00  0.00     0.191 C 
BRANCH  12  13
HETATM   13  O2  UNL     1      26.327  26.263 -15.255  1.00  0.00    -0.399 OA
ATOM     14  H2  UNL     1      26.321  25.639 -14.539  1.00  0.00     0.209 HD
ENDBRANCH  12  13
ENDBRANCH  11  12
ENDBRANCH  10  11
ENDBRANCH   4  10
BRANCH   1  15
HETATM   15  N1  UNL     1      29.832  30.904 -18.161  1.00  0.00    -0.234 N 
ATOM     16  H12 UNL     1      30.700  30.461 -17.858  1.00  0.00     0.174 HD
ATOM     17  H11 UNL     1      29.754  31.921 -18.166  1.00  0.00     0.174 HD
ENDBRANCH   1  15
BRANCH   7  18
HETATM   18  N4  UNL     1      27.102  29.389 -21.519  1.00  0.00    -0.234 N 
ATOM     19  H42 UNL     1      27.767  29.122 -22.244  1.00  0.00     0.174 HD
ATOM     20  H41 UNL     1      26.161  29.662 -21.803  1.00  0.00     0.174 HD
ENDBRANCH   7  18
TORSDOF 6
ENDMDL
MODEL 5
REMARK VINA RESULT: -6.256803610      3.049      4.742
REMARK  6 active torsions:
REMARK  status: ('A' for Active; 'I' for Inactive)
REMARK    1  A    between atoms: N1_1  and  C1_4 
REMARK    2  A    between atoms: C2_7  and  O1_8 
REMARK    3  A    between atoms: O1_8  and  C3_9 
REMARK    4  A    between atoms: C3_9  and  C4_10 
REMARK    5  A    between atoms: C4_10  and  O2_11 
REMARK    6  A    between atoms: C5_15  and  N4_16 
ROOT
HETATM    1  C1  UNL     1      26.716  28.117 -18.304  1.00  0.00     0.693 A 
HETATM    2  N2  UNL     1      26.714  28.374 -19.611  1.00  0.00    -0.154 N 
ATOM      3  H2  UNL     1      26.134  27.810 -20.233  1.00  0.00     0.188 HD
HETATM    4  C2  UNL     1      27.455  29.356 -20.120  1.00  0.00     0.252 A 
HETATM    5  N3  UNL     1      28.213  30.089 -19.278  1.00  0.00    -0.154 N 
ATOM      6  H3  UNL     1      28.784  30.843 -19.658  1.00  0.00     0.188 HD
HETATM    7  C5  UNL     1      28.238  29.857 -17.961  1.00  0.00     0.693 A 
HETATM    8  N5  UNL     1      27.479  28.859 -17.473  1.00  0.00    -0.023 N 
ATOM      9  H5  UNL     1      27.479  28.663 -16.472  1.00  0.00     0.203 HD
ENDROOT
BRANCH   4  10
HETATM   10  O1  UNL     1      27.527  29.705 -21.449  1.00  0.00    -0.319 OA
BRANCH  10  11
HETATM   11  C3  UNL     1      28.304  30.744 -21.943  1.00  0.00     0.205 C 
BRANCH  11  12
HETATM   12  C4  UNL     1      29.726  30.297 -22.124  1.00  0.00     0.191 C 
BRANCH  12  13
HETATM   13  O2  UNL     1      30.004  30.363 -23.507  1.00  0.00    -0.399 OA
ATOM     14  H2  UNL     1      29.727  31.221 -23.804  1.00  0.00     0.209 HD
ENDBRANCH  12  13
ENDBRANCH  11  12
ENDBRANCH  10  11
ENDBRANCH   4  10
BRANCH   1  15
HETATM   15  N1  UNL     1      25.990  27.153 -17.794  1.00  0.00    -0.234 N 
ATOM     16  H12 UNL     1      25.850  26.305 -18.343  1.00  0.00     0.174 HD
ATOM     17  H11 UNL     1      25.568  27.236 -16.869  1.00  0.00     0.174 HD
ENDBRANCH   1  15
BRANCH   7  18
HETATM   18  N4  UNL     1      28.975  30.576 -17.160  1.00  0.00    -0.234 N 
ATOM     19  H42 UNL     1      29.578  30.126 -16.473  1.00  0.00     0.174 HD
ATOM     20  H41 UNL     1      28.964  31.595 -17.201  1.00  0.00     0.174 HD
ENDBRANCH   7  18
TORSDOF 6
ENDMDL
