MODEL 1
REMARK VINA RESULT: -6.530569148      0.000      0.000
REMARK  10 active torsions:
REMARK  status: ('A' for Active; 'I' for Inactive)
REMARK    1  A    between atoms: C2_2  and  N1_3 
REMARK    2  A    between atoms: N1_3  and  C3_4 
REMARK    3  A    between atoms: N1_3  and  C5_6 
REMARK    4  A    between atoms: C5_6  and  C6_7 
REMARK    5  A    between atoms: C6_7  and  N2_8 
REMARK    6  A    between atoms: N2_8  and  C7_10 
REMARK    7  A    between atoms: C8_13  and  C9_14 
REMARK    8  A    between atoms: C10_15  and  C11_16 
REMARK    9  A    between atoms: C19_27  and  C20_28 
REMARK   10  A    between atoms: C20_28  and  N5_29 
ROOT
HETATM    1  C7  UNL     1      23.819   7.461   6.341  1.00  0.00     0.127 A 
HETATM    2  N3  UNL     1      23.657   7.457   7.673  1.00  0.00    -0.333 N 
ATOM      3  H3  UNL     1      22.758   7.156   8.048  1.00  0.00     0.168 HD
HETATM    4  C8  UNL     1      24.616   7.827   8.542  1.00  0.00     0.103 A 
HETATM    5  C18 UNL     1      25.816   8.223   7.955  1.00  0.00     0.127 A 
HETATM    6  N4  UNL     1      26.001   8.235   6.631  1.00  0.00    -0.362 N 
ATOM      7  H4  UNL     1      26.898   8.532   6.245  1.00  0.00     0.165 HD
HETATM    8  C19 UNL     1      25.014   7.858   5.808  1.00  0.00     0.079 A 
ENDROOT
BRANCH   4   9
HETATM    9  C9  UNL     1      24.449   7.822   9.969  1.00  0.00    -0.045 C 
HETATM   10  C10 UNL     1      24.326   7.802  11.167  1.00  0.00    -0.067 C 
BRANCH  10  11
HETATM   11  C11 UNL     1      24.202   7.763  12.623  1.00  0.00     0.201 C 
HETATM   12  C12 UNL     1      23.661   9.083  13.082  1.00  0.00     0.045 C 
HETATM   13  C13 UNL     1      23.650   9.061  14.607  1.00  0.00     0.006 C 
HETATM   14  C14 UNL     1      24.069   7.721  15.127  1.00  0.00     0.037 C 
HETATM   15  C15 UNL     1      25.325   7.189  14.501  1.00  0.00     0.055 C 
HETATM   16  C16 UNL     1      26.507   7.513  15.354  1.00  0.00     0.045 C 
HETATM   17  C17 UNL     1      25.205   5.664  14.442  1.00  0.00     0.045 C 
HETATM   18  O1  UNL     1      25.474   7.606  13.177  1.00  0.00    -0.363 OA
ENDBRANCH  10  11
ENDBRANCH   4   9
BRANCH   1  19
HETATM   19  N2  UNL     1      22.878   7.104   5.538  1.00  0.00    -0.370 N 
ATOM     20  H2  UNL     1      22.512   7.812   4.902  1.00  0.00     0.161 HD
BRANCH  19  21
HETATM   21  C6  UNL     1      22.308   5.811   5.465  1.00  0.00     0.165 C 
BRANCH  21  22
HETATM   22  C5  UNL     1      21.004   5.589   6.135  1.00  0.00     0.077 C 
BRANCH  22  23
HETATM   23  N1  UNL     1      20.971   5.120   7.451  1.00  0.00    -0.392 N 
BRANCH  23  24
HETATM   24  C2  UNL     1      22.015   4.297   7.923  1.00  0.00     0.117 C 
HETATM   25  C1  UNL     1      22.343   4.632   9.392  1.00  0.00     0.026 C 
ENDBRANCH  23  24
BRANCH  23  26
HETATM   26  C3  UNL     1      20.410   5.925   8.468  1.00  0.00     0.117 C 
HETATM   27  C4  UNL     1      20.037   7.313   8.077  1.00  0.00     0.026 C 
ENDBRANCH  23  26
ENDBRANCH  22  23
ENDBRANCH  21  22
ENDBRANCH  19  21
ENDBRANCH   1  19
BRANCH   8  28
HETATM   28  C20 UNL     1      25.226   7.871   4.310  1.00  0.00     0.290 C 
BRANCH  28  29
HETATM   29  N5  UNL     1      26.522   8.422   4.065  1.00  0.00    -0.074 N 
ATOM     30  H53 UNL     1      26.700   8.593   3.075  1.00  0.00     0.274 HD
ATOM     31  H52 UNL     1      26.611   9.387   4.384  1.00  0.00     0.274 HD
ATOM     32  H51 UNL     1      27.206   7.797   4.490  1.00  0.00     0.274 HD
ENDBRANCH  28  29
ENDBRANCH   8  28
TORSDOF 10
ENDMDL
MODEL 2
REMARK VINA RESULT: -6.499221524      0.631      1.315
REMARK  10 active torsions:
REMARK  status: ('A' for Active; 'I' for Inactive)
REMARK    1  A    between atoms: C2_2  and  N1_3 
REMARK    2  A    between atoms: N1_3  and  C3_4 
REMARK    3  A    between atoms: N1_3  and  C5_6 
REMARK    4  A    between atoms: C5_6  and  C6_7 
REMARK    5  A    between atoms: C6_7  and  N2_8 
REMARK    6  A    between atoms: N2_8  and  C7_10 
REMARK    7  A    between atoms: C8_13  and  C9_14 
REMARK    8  A    between atoms: C10_15  and  C11_16 
REMARK    9  A    between atoms: C19_27  and  C20_28 
REMARK   10  A    between atoms: C20_28  and  N5_29 
ROOT
HETATM    1  C7  UNL     1      23.815   7.459   6.362  1.00  0.00     0.127 A 
HETATM    2  N3  UNL     1      23.656   7.455   7.694  1.00  0.00    -0.333 N 
ATOM      3  H3  UNL     1      22.759   7.149   8.070  1.00  0.00     0.168 HD
HETATM    4  C8  UNL     1      24.614   7.831   8.562  1.00  0.00     0.103 A 
HETATM    5  C18 UNL     1      25.811   8.234   7.973  1.00  0.00     0.127 A 
HETATM    6  N4  UNL     1      25.994   8.246   6.648  1.00  0.00    -0.362 N 
ATOM      7  H4  UNL     1      26.888   8.548   6.261  1.00  0.00     0.165 HD
HETATM    8  C19 UNL     1      25.007   7.862   5.827  1.00  0.00     0.079 A 
ENDROOT
BRANCH   4   9
HETATM    9  C9  UNL     1      24.449   7.826   9.989  1.00  0.00    -0.045 C 
HETATM   10  C10 UNL     1      24.329   7.807  11.187  1.00  0.00    -0.067 C 
BRANCH  10  11
HETATM   11  C11 UNL     1      24.210   7.773  12.643  1.00  0.00     0.201 C 
HETATM   12  C12 UNL     1      23.696   9.103  13.103  1.00  0.00     0.045 C 
HETATM   13  C13 UNL     1      23.691   9.083  14.628  1.00  0.00     0.006 C 
HETATM   14  C14 UNL     1      24.085   7.735  15.148  1.00  0.00     0.037 C 
HETATM   15  C15 UNL     1      25.329   7.179  14.518  1.00  0.00     0.055 C 
HETATM   16  C16 UNL     1      26.519   7.481  15.366  1.00  0.00     0.045 C 
HETATM   17  C17 UNL     1      25.179   5.656  14.461  1.00  0.00     0.045 C 
HETATM   18  O1  UNL     1      25.481   7.592  13.193  1.00  0.00    -0.363 OA
ENDBRANCH  10  11
ENDBRANCH   4   9
BRANCH   1  19
HETATM   19  N2  UNL     1      22.875   7.096   5.561  1.00  0.00    -0.370 N 
ATOM     20  H2  UNL     1      22.510   7.800   4.920  1.00  0.00     0.161 HD
BRANCH  19  21
HETATM   21  C6  UNL     1      22.307   5.802   5.496  1.00  0.00     0.165 C 
BRANCH  21  22
HETATM   22  C5  UNL     1      20.984   5.594   6.135  1.00  0.00     0.077 C 
BRANCH  22  23
HETATM   23  N1  UNL     1      20.910   5.003   7.398  1.00  0.00    -0.392 N 
BRANCH  23  24
HETATM   24  C2  UNL     1      19.692   4.445   7.837  1.00  0.00     0.117 C 
HETATM   25  C1  UNL     1      18.499   5.258   7.296  1.00  0.00     0.026 C 
ENDBRANCH  23  24
BRANCH  23  26
HETATM   26  C3  UNL     1      22.037   4.330   7.923  1.00  0.00     0.117 C 
HETATM   27  C4  UNL     1      22.342   4.578   9.360  1.00  0.00     0.026 C 
ENDBRANCH  23  26
ENDBRANCH  22  23
ENDBRANCH  21  22
ENDBRANCH  19  21
ENDBRANCH   1  19
BRANCH   8  28
HETATM   28  C20 UNL     1      25.217   7.876   4.329  1.00  0.00     0.290 C 
BRANCH  28  29
HETATM   29  N5  UNL     1      26.512   8.428   4.081  1.00  0.00    -0.074 N 
ATOM     30  H53 UNL     1      27.220   8.090   4.733  1.00  0.00     0.274 HD
ATOM     31  H52 UNL     1      26.940   8.074   3.225  1.00  0.00     0.274 HD
ATOM     32  H51 UNL     1      26.418   9.444   4.088  1.00  0.00     0.274 HD
ENDBRANCH  28  29
ENDBRANCH   8  28
TORSDOF 10
ENDMDL
MODEL 3
REMARK VINA RESULT: -6.266203122      1.141      1.889
REMARK  10 active torsions:
REMARK  status: ('A' for Active; 'I' for Inactive)
REMARK    1  A    between atoms: C2_2  and  N1_3 
REMARK    2  A    between atoms: N1_3  and  C3_4 
REMARK    3  A    between atoms: N1_3  and  C5_6 
REMARK    4  A    between atoms: C5_6  and  C6_7 
REMARK    5  A    between atoms: C6_7  and  N2_8 
REMARK    6  A    between atoms: N2_8  and  C7_10 
REMARK    7  A    between atoms: C8_13  and  C9_14 
REMARK    8  A    between atoms: C10_15  and  C11_16 
REMARK    9  A    between atoms: C19_27  and  C20_28 
REMARK   10  A    between atoms: C20_28  and  N5_29 
ROOT
HETATM    1  C7  UNL     1      23.859   7.283   6.147  1.00  0.00     0.127 A 
HETATM    2  N3  UNL     1      23.724   7.088   7.467  1.00  0.00    -0.333 N 
ATOM      3  H3  UNL     1      22.854   6.679   7.807  1.00  0.00     0.168 HD
HETATM    4  C8  UNL     1      24.674   7.401   8.368  1.00  0.00     0.103 A 
HETATM    5  C18 UNL     1      25.833   7.953   7.828  1.00  0.00     0.127 A 
HETATM    6  N4  UNL     1      25.991   8.156   6.516  1.00  0.00    -0.362 N 
ATOM      7  H4  UNL     1      26.858   8.562   6.165  1.00  0.00     0.165 HD
HETATM    8  C19 UNL     1      25.015   7.828   5.660  1.00  0.00     0.079 A 
ENDROOT
BRANCH   4   9
HETATM    9  C9  UNL     1      24.534   7.191   9.783  1.00  0.00    -0.045 C 
HETATM   10  C10 UNL     1      24.431   6.996  10.967  1.00  0.00    -0.067 C 
BRANCH  10  11
HETATM   11  C11 UNL     1      24.327   6.739  12.402  1.00  0.00     0.201 C 
HETATM   12  C12 UNL     1      25.185   5.554  12.728  1.00  0.00     0.045 C 
HETATM   13  C13 UNL     1      24.970   5.234  14.204  1.00  0.00     0.006 C 
HETATM   14  C14 UNL     1      24.082   6.252  14.850  1.00  0.00     0.037 C 
HETATM   15  C15 UNL     1      22.825   6.539  14.081  1.00  0.00     0.055 C 
HETATM   16  C16 UNL     1      21.696   5.716  14.607  1.00  0.00     0.045 C 
HETATM   17  C17 UNL     1      22.466   8.010  14.311  1.00  0.00     0.045 C 
HETATM   18  O1  UNL     1      23.005   6.406  12.704  1.00  0.00    -0.363 OA
ENDBRANCH  10  11
ENDBRANCH   4   9
BRANCH   1  19
HETATM   19  N2  UNL     1      22.927   6.975   5.313  1.00  0.00    -0.370 N 
ATOM     20  H2  UNL     1      22.703   7.658   4.590  1.00  0.00     0.161 HD
BRANCH  19  21
HETATM   21  C6  UNL     1      22.190   5.768   5.315  1.00  0.00     0.165 C 
BRANCH  21  22
HETATM   22  C5  UNL     1      20.826   5.790   5.899  1.00  0.00     0.077 C 
BRANCH  22  23
HETATM   23  N1  UNL     1      20.623   5.332   7.203  1.00  0.00    -0.392 N 
BRANCH  23  24
HETATM   24  C2  UNL     1      21.404   4.267   7.698  1.00  0.00     0.117 C 
HETATM   25  C1  UNL     1      21.859   4.556   9.142  1.00  0.00     0.026 C 
ENDBRANCH  23  24
BRANCH  23  26
HETATM   26  C3  UNL     1      20.245   6.245   8.214  1.00  0.00     0.117 C 
HETATM   27  C4  UNL     1      20.136   7.673   7.805  1.00  0.00     0.026 C 
ENDBRANCH  23  26
ENDBRANCH  22  23
ENDBRANCH  21  22
ENDBRANCH  19  21
ENDBRANCH   1  19
BRANCH   8  28
HETATM   28  C20 UNL     1      25.196   8.057   4.175  1.00  0.00     0.290 C 
BRANCH  28  29
HETATM   29  N5  UNL     1      26.557   8.438   3.963  1.00  0.00    -0.074 N 
ATOM     30  H53 UNL     1      26.723   9.431   4.131  1.00  0.00     0.274 HD
ATOM     31  H52 UNL     1      27.189   8.075   4.678  1.00  0.00     0.274 HD
ATOM     32  H51 UNL     1      26.813   8.146   3.020  1.00  0.00     0.274 HD
ENDBRANCH  28  29
ENDBRANCH   8  28
TORSDOF 10
ENDMDL
MODEL 4
REMARK VINA RESULT: -6.177925136      0.950      1.781
REMARK  10 active torsions:
REMARK  status: ('A' for Active; 'I' for Inactive)
REMARK    1  A    between atoms: C2_2  and  N1_3 
REMARK    2  A    between atoms: N1_3  and  C3_4 
REMARK    3  A    between atoms: N1_3  and  C5_6 
REMARK    4  A    between atoms: C5_6  and  C6_7 
REMARK    5  A    between atoms: C6_7  and  N2_8 
REMARK    6  A    between atoms: N2_8  and  C7_10 
REMARK    7  A    between atoms: C8_13  and  C9_14 
REMARK    8  A    between atoms: C10_15  and  C11_16 
REMARK    9  A    between atoms: C19_27  and  C20_28 
REMARK   10  A    between atoms: C20_28  and  N5_29 
ROOT
HETATM    1  C7  UNL     1      23.865   7.282   6.298  1.00  0.00     0.127 A 
HETATM    2  N3  UNL     1      23.725   7.108   7.620  1.00  0.00    -0.333 N 
ATOM      3  H3  UNL     1      22.862   6.684   7.961  1.00  0.00     0.168 HD
HETATM    4  C8  UNL     1      24.659   7.460   8.523  1.00  0.00     0.103 A 
HETATM    5  C18 UNL     1      25.810   8.030   7.982  1.00  0.00     0.127 A 
HETATM    6  N4  UNL     1      25.973   8.213   6.667  1.00  0.00    -0.362 N 
ATOM      7  H4  UNL     1      26.833   8.633   6.315  1.00  0.00     0.165 HD
HETATM    8  C19 UNL     1      25.011   7.846   5.810  1.00  0.00     0.079 A 
ENDROOT
BRANCH   4   9
HETATM    9  C9  UNL     1      24.514   7.272   9.940  1.00  0.00    -0.045 C 
HETATM   10  C10 UNL     1      24.415   7.107  11.129  1.00  0.00    -0.067 C 
BRANCH  10  11
HETATM   11  C11 UNL     1      24.323   6.903  12.573  1.00  0.00     0.201 C 
HETATM   12  C12 UNL     1      23.009   6.245  12.870  1.00  0.00     0.045 C 
HETATM   13  C13 UNL     1      22.886   6.148  14.388  1.00  0.00     0.006 C 
HETATM   14  C14 UNL     1      24.137   6.626  15.058  1.00  0.00     0.037 C 
HETATM   15  C15 UNL     1      24.631   7.951  14.553  1.00  0.00     0.055 C 
HETATM   16  C16 UNL     1      24.141   9.056  15.430  1.00  0.00     0.045 C 
HETATM   17  C17 UNL     1      26.160   7.940  14.641  1.00  0.00     0.045 C 
HETATM   18  O1  UNL     1      24.332   8.147  13.205  1.00  0.00    -0.363 OA
ENDBRANCH  10  11
ENDBRANCH   4   9
BRANCH   1  19
HETATM   19  N2  UNL     1      22.948   6.937   5.463  1.00  0.00    -0.370 N 
ATOM     20  H2  UNL     1      22.684   7.617   4.751  1.00  0.00     0.161 HD
BRANCH  19  21
HETATM   21  C6  UNL     1      22.276   5.692   5.450  1.00  0.00     0.165 C 
BRANCH  21  22
HETATM   22  C5  UNL     1      20.925   5.627   6.059  1.00  0.00     0.077 C 
BRANCH  22  23
HETATM   23  N1  UNL     1      20.759   5.039   7.316  1.00  0.00    -0.392 N 
BRANCH  23  24
HETATM   24  C2  UNL     1      19.484   4.584   7.710  1.00  0.00     0.117 C 
HETATM   25  C1  UNL     1      18.453   5.728   7.629  1.00  0.00     0.026 C 
ENDBRANCH  23  24
BRANCH  23  26
HETATM   26  C3  UNL     1      21.807   4.271   7.873  1.00  0.00     0.117 C 
HETATM   27  C4  UNL     1      22.063   4.464   9.328  1.00  0.00     0.026 C 
ENDBRANCH  23  26
ENDBRANCH  22  23
ENDBRANCH  21  22
ENDBRANCH  19  21
ENDBRANCH   1  19
BRANCH   8  28
HETATM   28  C20 UNL     1      25.199   8.053   4.323  1.00  0.00     0.290 C 
BRANCH  28  29
HETATM   29  N5  UNL     1      26.568   8.404   4.107  1.00  0.00    -0.074 N 
ATOM     30  H53 UNL     1      26.952   7.999   3.253  1.00  0.00     0.274 HD
ATOM     31  H52 UNL     1      26.693   9.385   3.857  1.00  0.00     0.274 HD
ATOM     32  H51 UNL     1      27.087   8.137   4.943  1.00  0.00     0.274 HD
ENDBRANCH  28  29
ENDBRANCH   8  28
TORSDOF 10
ENDMDL
MODEL 5
REMARK VINA RESULT: -5.970197571      1.768      2.296
REMARK  10 active torsions:
REMARK  status: ('A' for Active; 'I' for Inactive)
REMARK    1  A    between atoms: C2_2  and  N1_3 
REMARK    2  A    between atoms: N1_3  and  C3_4 
REMARK    3  A    between atoms: N1_3  and  C5_6 
REMARK    4  A    between atoms: C5_6  and  C6_7 
REMARK    5  A    between atoms: C6_7  and  N2_8 
REMARK    6  A    between atoms: N2_8  and  C7_10 
REMARK    7  A    between atoms: C8_13  and  C9_14 
REMARK    8  A    between atoms: C10_15  and  C11_16 
REMARK    9  A    between atoms: C19_27  and  C20_28 
REMARK   10  A    between atoms: C20_28  and  N5_29 
ROOT
HETATM    1  C7  UNL     1      23.060   6.448   7.655  1.00  0.00     0.127 A 
HETATM    2  N3  UNL     1      23.147   6.360   8.990  1.00  0.00    -0.333 N 
ATOM      3  H3  UNL     1      22.412   5.860   9.488  1.00  0.00     0.168 HD
HETATM    4  C8  UNL     1      24.151   6.895   9.709  1.00  0.00     0.103 A 
HETATM    5  C18 UNL     1      25.118   7.561   8.959  1.00  0.00     0.127 A 
HETATM    6  N4  UNL     1      25.053   7.661   7.627  1.00  0.00    -0.362 N 
ATOM      7  H4  UNL     1      25.785   8.158   7.118  1.00  0.00     0.165 HD
HETATM    8  C19 UNL     1      24.032   7.111   6.958  1.00  0.00     0.079 A 
ENDROOT
BRANCH   4   9
HETATM    9  C9  UNL     1      24.249   6.802  11.140  1.00  0.00    -0.045 C 
HETATM   10  C10 UNL     1      24.351   6.710  12.337  1.00  0.00    -0.067 C 
BRANCH  10  11
HETATM   11  C11 UNL     1      24.502   6.588  13.785  1.00  0.00     0.201 C 
HETATM   12  C12 UNL     1      23.213   6.069  14.347  1.00  0.00     0.045 C 
HETATM   13  C13 UNL     1      23.355   6.060  15.867  1.00  0.00     0.006 C 
HETATM   14  C14 UNL     1      24.739   6.455  16.278  1.00  0.00     0.037 C 
HETATM   15  C15 UNL     1      25.241   7.702  15.609  1.00  0.00     0.055 C 
HETATM   16  C16 UNL     1      25.006   8.890  16.482  1.00  0.00     0.045 C 
HETATM   17  C17 UNL     1      26.755   7.556  15.431  1.00  0.00     0.045 C 
HETATM   18  O1  UNL     1      24.724   7.857  14.322  1.00  0.00    -0.363 OA
ENDBRANCH  10  11
ENDBRANCH   4   9
BRANCH   1  19
HETATM   19  N2  UNL     1      22.083   5.927   6.998  1.00  0.00    -0.370 N 
ATOM     20  H2  UNL     1      21.690   6.473   6.232  1.00  0.00     0.161 HD
BRANCH  19  21
HETATM   21  C6  UNL     1      21.507   4.659   7.252  1.00  0.00     0.165 C 
BRANCH  21  22
HETATM   22  C5  UNL     1      20.218   4.617   7.985  1.00  0.00     0.077 C 
BRANCH  22  23
HETATM   23  N1  UNL     1      20.131   3.923   9.194  1.00  0.00    -0.392 N 
BRANCH  23  24
HETATM   24  C2  UNL     1      20.559   4.543  10.387  1.00  0.00     0.117 C 
HETATM   25  C1  UNL     1      21.781   3.807  10.970  1.00  0.00     0.026 C 
ENDBRANCH  23  24
BRANCH  23  26
HETATM   26  C3  UNL     1      19.070   3.013   9.404  1.00  0.00     0.117 C 
HETATM   27  C4  UNL     1      17.959   3.059   8.413  1.00  0.00     0.026 C 
ENDBRANCH  23  26
ENDBRANCH  22  23
ENDBRANCH  21  22
ENDBRANCH  19  21
ENDBRANCH   1  19
BRANCH   8  28
HETATM   28  C20 UNL     1      23.961   7.224   5.450  1.00  0.00     0.290 C 
BRANCH  28  29
HETATM   29  N5  UNL     1      24.725   8.371   5.070  1.00  0.00    -0.074 N 
ATOM     30  H53 UNL     1      24.756   8.512   4.060  1.00  0.00     0.274 HD
ATOM     31  H52 UNL     1      24.270   9.252   5.312  1.00  0.00     0.274 HD
ATOM     32  H51 UNL     1      25.651   8.274   5.486  1.00  0.00     0.274 HD
ENDBRANCH  28  29
ENDBRANCH   8  28
TORSDOF 10
ENDMDL
