MODEL 1
REMARK VINA RESULT: -5.821733077      0.000      0.000
REMARK  5 active torsions:
REMARK  status: ('A' for Active; 'I' for Inactive)
REMARK    1  A    between atoms: C2_2  and  S1_3 
REMARK    2  A    between atoms: S1_3  and  C3_4 
REMARK    3  A    between atoms: C4_5  and  C5_6 
REMARK    4  A    between atoms: C7_9  and  N2_10 
REMARK    5  A    between atoms: C10_17  and  C11_18 
ROOT
HETATM    1  C5  UNL     1      22.786   3.669  19.995  1.00  0.00     0.166 C 
HETATM    2  C6  UNL     1      24.209   3.508  20.164  1.00  0.00     0.063 C 
HETATM    3  N1  UNL     1      25.367   3.342  20.318  1.00  0.00    -0.197 NA
ENDROOT
BRANCH   1   4
HETATM    4  C4  UNL     1      22.281   4.824  20.870  1.00  0.00     0.006 A 
HETATM    5  C3  UNL     1      21.701   4.455  22.036  1.00  0.00     0.023 A 
HETATM    6  C12 UNL     1      21.167   5.300  23.051  1.00  0.00     0.023 A 
HETATM    7  C8  UNL     1      21.274   6.633  22.754  1.00  0.00     0.060 A 
HETATM    8  C10 UNL     1      20.577   4.991  24.239  1.00  0.00     0.060 A 
HETATM    9  S2  UNL     1      21.980   7.291  21.315  1.00  0.00    -0.064 SA
HETATM   10  S3  UNL     1      20.557   7.417  24.094  1.00  0.00    -0.093 SA
HETATM   11  C7  UNL     1      22.539   6.056  20.290  1.00  0.00     0.077 A 
HETATM   12  C9  UNL     1      20.141   6.069  25.007  1.00  0.00     0.070 A 
BRANCH   5  13
HETATM   13  S1  UNL     1      21.431   2.668  22.345  1.00  0.00    -0.129 SA
BRANCH  13  14
HETATM   14  C2  UNL     1      19.918   2.026  21.733  1.00  0.00     0.075 C 
HETATM   15  C1  UNL     1      19.726   0.670  22.457  1.00  0.00     0.016 C 
ENDBRANCH  13  14
ENDBRANCH   5  13
BRANCH  11  16
HETATM   16  N2  UNL     1      23.102   6.228  19.168  1.00  0.00    -0.393 N 
ATOM     17  H22 UNL     1      22.629   6.262  18.265  1.00  0.00     0.156 HD
ATOM     18  H21 UNL     1      24.105   6.352  19.030  1.00  0.00     0.156 HD
ENDBRANCH  11  16
BRANCH   8  19
HETATM   19  C11 UNL     1      20.454   3.672  24.932  1.00  0.00     0.210 C 
HETATM   20  O1  UNL     1      21.351   3.019  25.437  1.00  0.00    -0.644 OA
HETATM   21  O2  UNL     1      19.159   3.126  25.010  1.00  0.00    -0.644 OA
ENDBRANCH   8  19
ENDBRANCH   1   4
TORSDOF 5
ENDMDL
MODEL 2
REMARK VINA RESULT: -5.765183295      4.011      5.744
REMARK  5 active torsions:
REMARK  status: ('A' for Active; 'I' for Inactive)
REMARK    1  A    between atoms: C2_2  and  S1_3 
REMARK    2  A    between atoms: S1_3  and  C3_4 
REMARK    3  A    between atoms: C4_5  and  C5_6 
REMARK    4  A    between atoms: C7_9  and  N2_10 
REMARK    5  A    between atoms: C10_17  and  C11_18 
ROOT
HETATM    1  C5  UNL     1      22.436   5.721  22.350  1.00  0.00     0.166 C 
HETATM    2  C6  UNL     1      21.175   5.026  22.433  1.00  0.00     0.063 C 
HETATM    3  N1  UNL     1      20.162   4.425  22.502  1.00  0.00    -0.197 NA
ENDROOT
BRANCH   1   4
HETATM    4  C4  UNL     1      22.551   6.440  21.000  1.00  0.00     0.006 A 
HETATM    5  C3  UNL     1      23.234   5.768  20.044  1.00  0.00     0.023 A 
HETATM    6  C12 UNL     1      23.479   6.171  18.700  1.00  0.00     0.023 A 
HETATM    7  C8  UNL     1      22.943   7.395  18.398  1.00  0.00     0.060 A 
HETATM    8  C10 UNL     1      24.153   5.542  17.696  1.00  0.00     0.060 A 
HETATM    9  S2  UNL     1      22.044   8.398  19.487  1.00  0.00    -0.064 SA
HETATM   10  S3  UNL     1      23.385   7.652  16.766  1.00  0.00    -0.093 SA
HETATM   11  C7  UNL     1      21.902   7.665  21.014  1.00  0.00     0.077 A 
HETATM   12  C9  UNL     1      24.226   6.225  16.484  1.00  0.00     0.070 A 
BRANCH   5  13
HETATM   13  S1  UNL     1      24.071   4.205  20.510  1.00  0.00    -0.129 SA
BRANCH  13  14
HETATM   14  C2  UNL     1      23.048   2.781  20.510  1.00  0.00     0.075 C 
HETATM   15  C1  UNL     1      24.019   1.577  20.435  1.00  0.00     0.016 C 
ENDBRANCH  13  14
ENDBRANCH   5  13
BRANCH  11  16
HETATM   16  N2  UNL     1      21.299   8.156  22.015  1.00  0.00    -0.393 N 
ATOM     17  H22 UNL     1      21.591   8.982  22.537  1.00  0.00     0.156 HD
ATOM     18  H21 UNL     1      20.443   7.782  22.424  1.00  0.00     0.156 HD
ENDBRANCH  11  16
BRANCH   8  19
HETATM   19  C11 UNL     1      24.703   4.154  17.637  1.00  0.00     0.210 C 
HETATM   20  O1  UNL     1      25.843   3.801  17.886  1.00  0.00    -0.644 OA
HETATM   21  O2  UNL     1      23.803   3.141  17.252  1.00  0.00    -0.644 OA
ENDBRANCH   8  19
ENDBRANCH   1   4
TORSDOF 5
ENDMDL
MODEL 3
REMARK VINA RESULT: -5.698833402      3.034      5.166
REMARK  5 active torsions:
REMARK  status: ('A' for Active; 'I' for Inactive)
REMARK    1  A    between atoms: C2_2  and  S1_3 
REMARK    2  A    between atoms: S1_3  and  C3_4 
REMARK    3  A    between atoms: C4_5  and  C5_6 
REMARK    4  A    between atoms: C7_9  and  N2_10 
REMARK    5  A    between atoms: C10_17  and  C11_18 
ROOT
HETATM    1  C5  UNL     1      19.223   8.362  24.995  1.00  0.00     0.166 C 
HETATM    2  C6  UNL     1      19.952   9.399  25.681  1.00  0.00     0.063 C 
HETATM    3  N1  UNL     1      20.526  10.274  26.228  1.00  0.00    -0.197 NA
ENDROOT
BRANCH   1   4
HETATM    4  C4  UNL     1      20.120   7.696  23.943  1.00  0.00     0.006 A 
HETATM    5  C3  UNL     1      20.355   6.377  24.136  1.00  0.00     0.023 A 
HETATM    6  C12 UNL     1      21.123   5.499  23.318  1.00  0.00     0.023 A 
HETATM    7  C8  UNL     1      21.669   6.119  22.226  1.00  0.00     0.060 A 
HETATM    8  C10 UNL     1      21.393   4.171  23.457  1.00  0.00     0.060 A 
HETATM    9  S2  UNL     1      21.481   7.792  21.819  1.00  0.00    -0.064 SA
HETATM   10  S3  UNL     1      22.539   4.878  21.434  1.00  0.00    -0.093 SA
HETATM   11  C7  UNL     1      20.513   8.594  22.963  1.00  0.00     0.077 A 
HETATM   12  C9  UNL     1      22.203   3.603  22.476  1.00  0.00     0.070 A 
BRANCH   5  13
HETATM   13  S1  UNL     1      19.744   5.601  25.681  1.00  0.00    -0.129 SA
BRANCH  13  14
HETATM   14  C2  UNL     1      20.793   5.784  27.074  1.00  0.00     0.075 C 
HETATM   15  C1  UNL     1      19.949   6.547  28.125  1.00  0.00     0.016 C 
ENDBRANCH  13  14
ENDBRANCH   5  13
BRANCH  11  16
HETATM   16  N2  UNL     1      20.198   9.821  22.932  1.00  0.00    -0.393 N 
ATOM     17  H22 UNL     1      20.109  10.432  23.745  1.00  0.00     0.156 HD
ATOM     18  H21 UNL     1      19.990  10.350  22.086  1.00  0.00     0.156 HD
ENDBRANCH  11  16
BRANCH   8  19
HETATM   19  C11 UNL     1      20.830   3.176  24.420  1.00  0.00     0.210 C 
HETATM   20  O1  UNL     1      21.367   2.732  25.420  1.00  0.00    -0.644 OA
HETATM   21  O2  UNL     1      19.535   2.700  24.140  1.00  0.00    -0.644 OA
ENDBRANCH   8  19
ENDBRANCH   1   4
TORSDOF 5
ENDMDL
MODEL 4
REMARK VINA RESULT: -5.687885327      6.477      8.592
REMARK  5 active torsions:
REMARK  status: ('A' for Active; 'I' for Inactive)
REMARK    1  A    between atoms: C2_2  and  S1_3 
REMARK    2  A    between atoms: S1_3  and  C3_4 
REMARK    3  A    between atoms: C4_5  and  C5_6 
REMARK    4  A    between atoms: C7_9  and  N2_10 
REMARK    5  A    between atoms: C10_17  and  C11_18 
ROOT
HETATM    1  C5  UNL     1      23.599   1.216  19.774  1.00  0.00     0.166 C 
HETATM    2  C6  UNL     1      23.912   0.834  21.129  1.00  0.00     0.063 C 
HETATM    3  N1  UNL     1      24.149   0.553  22.250  1.00  0.00    -0.197 NA
ENDROOT
BRANCH   1   4
HETATM    4  C4  UNL     1      24.889   1.545  19.010  1.00  0.00     0.006 A 
HETATM    5  C3  UNL     1      25.310   0.590  18.149  1.00  0.00     0.023 A 
HETATM    6  C12 UNL     1      26.449   0.626  17.294  1.00  0.00     0.023 A 
HETATM    7  C8  UNL     1      27.169   1.785  17.405  1.00  0.00     0.060 A 
HETATM    8  C10 UNL     1      26.920  -0.296  16.409  1.00  0.00     0.060 A 
HETATM    9  S2  UNL     1      26.789   3.112  18.451  1.00  0.00    -0.064 SA
HETATM   10  S3  UNL     1      28.468   1.575  16.312  1.00  0.00    -0.093 SA
HETATM   11  C7  UNL     1      25.378   2.798  19.346  1.00  0.00     0.077 A 
HETATM   12  C9  UNL     1      28.087   0.046  15.729  1.00  0.00     0.070 A 
BRANCH   5  13
HETATM   13  S1  UNL     1      24.420  -1.013  18.125  1.00  0.00    -0.129 SA
BRANCH  13  14
HETATM   14  C2  UNL     1      24.717  -2.052  19.507  1.00  0.00     0.075 C 
HETATM   15  C1  UNL     1      26.258  -2.129  19.638  1.00  0.00     0.016 C 
ENDBRANCH  13  14
ENDBRANCH   5  13
BRANCH  11  16
HETATM   16  N2  UNL     1      24.851   3.581  20.192  1.00  0.00    -0.393 N 
ATOM     17  H22 UNL     1      24.007   3.390  20.732  1.00  0.00     0.156 HD
ATOM     18  H21 UNL     1      25.208   4.504  20.435  1.00  0.00     0.156 HD
ENDBRANCH  11  16
BRANCH   8  19
HETATM   19  C11 UNL     1      26.297  -1.568  15.930  1.00  0.00     0.210 C 
HETATM   20  O1  UNL     1      26.567  -2.702  16.288  1.00  0.00    -0.644 OA
HETATM   21  O2  UNL     1      25.287  -1.441  14.957  1.00  0.00    -0.644 OA
ENDBRANCH   8  19
ENDBRANCH   1   4
TORSDOF 5
ENDMDL
MODEL 5
REMARK VINA RESULT: -5.656933597      4.868      7.690
REMARK  5 active torsions:
REMARK  status: ('A' for Active; 'I' for Inactive)
REMARK    1  A    between atoms: C2_2  and  S1_3 
REMARK    2  A    between atoms: S1_3  and  C3_4 
REMARK    3  A    between atoms: C4_5  and  C5_6 
REMARK    4  A    between atoms: C7_9  and  N2_10 
REMARK    5  A    between atoms: C10_17  and  C11_18 
ROOT
HETATM    1  C5  UNL     1      23.304   2.086  21.936  1.00  0.00     0.166 C 
HETATM    2  C6  UNL     1      21.884   2.241  21.740  1.00  0.00     0.063 C 
HETATM    3  N1  UNL     1      20.716   2.350  21.612  1.00  0.00    -0.197 NA
ENDROOT
BRANCH   1   4
HETATM    4  C4  UNL     1      23.885   1.157  20.861  1.00  0.00     0.006 A 
HETATM    5  C3  UNL     1      24.699   1.755  19.961  1.00  0.00     0.023 A 
HETATM    6  C12 UNL     1      25.395   1.148  18.876  1.00  0.00     0.023 A 
HETATM    7  C8  UNL     1      25.170  -0.199  18.777  1.00  0.00     0.060 A 
HETATM    8  C10 UNL     1      26.225   1.692  17.943  1.00  0.00     0.060 A 
HETATM    9  S2  UNL     1      24.161  -1.132  19.832  1.00  0.00    -0.064 SA
HETATM   10  S3  UNL     1      26.084  -0.676  17.413  1.00  0.00    -0.093 SA
HETATM   11  C7  UNL     1      23.466  -0.152  21.035  1.00  0.00     0.077 A 
HETATM   12  C9  UNL     1      26.739   0.813  16.991  1.00  0.00     0.070 A 
BRANCH   5  13
HETATM   13  S1  UNL     1      24.867   3.580  20.016  1.00  0.00    -0.129 SA
BRANCH  13  14
HETATM   14  C2  UNL     1      23.592   4.472  19.207  1.00  0.00     0.075 C 
HETATM   15  C1  UNL     1      23.113   5.526  20.235  1.00  0.00     0.016 C 
ENDBRANCH  13  14
ENDBRANCH   5  13
BRANCH  11  16
HETATM   16  N2  UNL     1      22.684  -0.550  21.950  1.00  0.00    -0.393 N 
ATOM     17  H22 UNL     1      22.524  -1.523  22.212  1.00  0.00     0.156 HD
ATOM     18  H21 UNL     1      22.115   0.057  22.538  1.00  0.00     0.156 HD
ENDBRANCH  11  16
BRANCH   8  19
HETATM   19  C11 UNL     1      26.804   3.068  17.862  1.00  0.00     0.210 C 
HETATM   20  O1  UNL     1      26.430   3.986  17.153  1.00  0.00    -0.644 OA
HETATM   21  O2  UNL     1      27.904   3.332  18.701  1.00  0.00    -0.644 OA
ENDBRANCH   8  19
ENDBRANCH   1   4
TORSDOF 5
ENDMDL
