MODEL 1
REMARK VINA RESULT: -8.231451518      0.000      0.000
REMARK  5 active torsions:
REMARK  status: ('A' for Active; 'I' for Inactive)
REMARK    1  A    between atoms: O1_2  and  C2_3 
REMARK    2  A    between atoms: C7_8  and  N1_9 
REMARK       I    between atoms: N2_11  and  C8_13 
REMARK    3  A    between atoms: C10_16  and  O3_17 
REMARK    4  A    between atoms: C12_22  and  O4_23 
REMARK    5  A    between atoms: O4_23  and  C13_24 
ROOT
HETATM    1  C2  UNL     1      21.073   6.846  23.368  1.00  0.00     0.105 A 
HETATM    2  C3  UNL     1      22.068   6.202  22.614  1.00  0.00     0.047 A 
HETATM    3  C4  UNL     1      22.306   6.631  21.331  1.00  0.00    -0.044 A 
HETATM    4  C5  UNL     1      23.346   5.968  20.523  1.00  0.00     0.049 C 
HETATM    5  C6  UNL     1      21.587   7.671  20.793  1.00  0.00     0.032 A 
HETATM    6  C7  UNL     1      21.572   8.329  19.579  1.00  0.00     0.112 A 
HETATM    7  C10 UNL     1      20.620   9.329  19.575  1.00  0.00     0.170 A 
HETATM    8  N3  UNL     1      20.045   9.290  20.790  1.00  0.00    -0.332 N 
ATOM      9  H3  UNL     1      19.298   9.912  21.097  1.00  0.00     0.168 HD
HETATM   10  C11 UNL     1      20.590   8.318  21.545  1.00  0.00     0.084 A 
HETATM   11  C12 UNL     1      20.354   7.886  22.830  1.00  0.00     0.140 A 
ENDROOT
BRANCH   6  12
HETATM   12  N1  UNL     1      22.440   7.986  18.506  1.00  0.00    -0.293 N 
HETATM   13  N2  UNL     1      22.314   8.627  17.402  1.00  0.00    -0.270 N 
HETATM   14  C8  UNL     1      23.168   8.296  16.332  1.00  0.00     0.232 C 
ATOM     15  H2  UNL     1      21.611   9.360  17.302  1.00  0.00     0.190 HD
HETATM   16  C9  UNL     1      22.747   8.596  14.948  1.00  0.00     0.119 C 
HETATM   17  O2  UNL     1      24.273   7.754  16.530  1.00  0.00    -0.272 OA
ATOM     18  H1  UNL     1      23.142   7.253  18.612  1.00  0.00     0.187 HD
ENDBRANCH   6  12
BRANCH   7  19
HETATM   19  O3  UNL     1      20.353  10.176  18.506  1.00  0.00    -0.344 OA
ATOM     20  H3  UNL     1      19.580  10.721  18.420  1.00  0.00     0.219 HD
ENDBRANCH   7  19
BRANCH  11  21
HETATM   21  O4  UNL     1      19.387   8.491  23.602  1.00  0.00    -0.274 OA
BRANCH  21  22
HETATM   22  C13 UNL     1      19.618   9.557  24.450  1.00  0.00     0.260 C 
HETATM   23  C14 UNL     1      20.921  10.291  24.363  1.00  0.00     0.126 C 
HETATM   24  O5  UNL     1      18.732   9.874  25.260  1.00  0.00    -0.265 OA
ENDBRANCH  21  22
ENDBRANCH  11  21
BRANCH   1  25
HETATM   25  O1  UNL     1      20.811   6.433  24.666  1.00  0.00    -0.353 OA
HETATM   26  C1  UNL     1      20.377   5.105  24.948  1.00  0.00     0.210 C 
ENDBRANCH   1  25
TORSDOF 5
ENDMDL
MODEL 2
REMARK VINA RESULT: -7.824053316      3.501      5.765
REMARK  5 active torsions:
REMARK  status: ('A' for Active; 'I' for Inactive)
REMARK    1  A    between atoms: O1_2  and  C2_3 
REMARK    2  A    between atoms: C7_8  and  N1_9 
REMARK       I    between atoms: N2_11  and  C8_13 
REMARK    3  A    between atoms: C10_16  and  O3_17 
REMARK    4  A    between atoms: C12_22  and  O4_23 
REMARK    5  A    between atoms: O4_23  and  C13_24 
ROOT
HETATM    1  C2  UNL     1      22.147   7.479  20.085  1.00  0.00     0.105 A 
HETATM    2  C3  UNL     1      22.405   6.197  20.600  1.00  0.00     0.047 A 
HETATM    3  C4  UNL     1      23.147   5.320  19.849  1.00  0.00    -0.044 A 
HETATM    4  C5  UNL     1      23.428   3.970  20.372  1.00  0.00     0.049 C 
HETATM    5  C6  UNL     1      23.633   5.686  18.617  1.00  0.00     0.032 A 
HETATM    6  C7  UNL     1      24.387   5.071  17.637  1.00  0.00     0.112 A 
HETATM    7  C10 UNL     1      24.591   5.922  16.569  1.00  0.00     0.170 A 
HETATM    8  N3  UNL     1      23.961   7.065  16.889  1.00  0.00    -0.332 N 
ATOM      9  H3  UNL     1      23.929   7.895  16.296  1.00  0.00     0.168 HD
HETATM   10  C11 UNL     1      23.378   6.968  18.099  1.00  0.00     0.084 A 
HETATM   11  C12 UNL     1      22.633   7.845  18.853  1.00  0.00     0.140 A 
ENDROOT
BRANCH   6  12
HETATM   12  N1  UNL     1      24.867   3.738  17.758  1.00  0.00    -0.293 N 
HETATM   13  N2  UNL     1      26.111   3.524  17.527  1.00  0.00    -0.270 N 
HETATM   14  C8  UNL     1      26.599   2.208  17.643  1.00  0.00     0.232 C 
ATOM     15  H2  UNL     1      26.733   4.290  17.266  1.00  0.00     0.190 HD
HETATM   16  C9  UNL     1      27.823   1.820  16.912  1.00  0.00     0.119 C 
HETATM   17  O2  UNL     1      26.017   1.363  18.352  1.00  0.00    -0.272 OA
ATOM     18  H1  UNL     1      24.242   2.976  18.020  1.00  0.00     0.187 HD
ENDBRANCH   6  12
BRANCH   7  19
HETATM   19  O3  UNL     1      25.309   5.608  15.421  1.00  0.00    -0.344 OA
ATOM     20  H3  UNL     1      25.265   6.086  14.601  1.00  0.00     0.219 HD
ENDBRANCH   7  19
BRANCH  11  21
HETATM   21  O4  UNL     1      22.360   9.111  18.384  1.00  0.00    -0.274 OA
BRANCH  21  22
HETATM   22  C13 UNL     1      21.462   9.393  17.373  1.00  0.00     0.260 C 
HETATM   23  C14 UNL     1      20.072   9.823  17.729  1.00  0.00     0.126 C 
HETATM   24  O5  UNL     1      21.839   9.281  16.196  1.00  0.00    -0.265 OA
ENDBRANCH  21  22
ENDBRANCH  11  21
BRANCH   1  25
HETATM   25  O1  UNL     1      21.400   8.384  20.822  1.00  0.00    -0.353 OA
HETATM   26  C1  UNL     1      21.010   8.105  22.165  1.00  0.00     0.210 C 
ENDBRANCH   1  25
TORSDOF 5
ENDMDL
MODEL 3
REMARK VINA RESULT: -7.823655007      2.718      6.772
REMARK  5 active torsions:
REMARK  status: ('A' for Active; 'I' for Inactive)
REMARK    1  A    between atoms: O1_2  and  C2_3 
REMARK    2  A    between atoms: C7_8  and  N1_9 
REMARK       I    between atoms: N2_11  and  C8_13 
REMARK    3  A    between atoms: C10_16  and  O3_17 
REMARK    4  A    between atoms: C12_22  and  O4_23 
REMARK    5  A    between atoms: O4_23  and  C13_24 
ROOT
HETATM    1  C2  UNL     1      22.150   6.470  21.144  1.00  0.00     0.105 A 
HETATM    2  C3  UNL     1      21.927   5.438  22.072  1.00  0.00     0.047 A 
HETATM    3  C4  UNL     1      21.151   5.697  23.174  1.00  0.00    -0.044 A 
HETATM    4  C5  UNL     1      20.905   4.627  24.159  1.00  0.00     0.049 C 
HETATM    5  C6  UNL     1      20.600   6.941  23.370  1.00  0.00     0.032 A 
HETATM    6  C7  UNL     1      19.799   7.519  24.335  1.00  0.00     0.112 A 
HETATM    7  C10 UNL     1      19.536   8.839  24.027  1.00  0.00     0.170 A 
HETATM    8  N3  UNL     1      20.176   9.078  22.870  1.00  0.00    -0.332 N 
ATOM      9  H3  UNL     1      20.173   9.973  22.380  1.00  0.00     0.168 HD
HETATM   10  C11 UNL     1      20.821   7.976  22.443  1.00  0.00     0.084 A 
HETATM   11  C12 UNL     1      21.599   7.713  21.340  1.00  0.00     0.140 A 
ENDROOT
BRANCH   6  12
HETATM   12  N1  UNL     1      19.333   6.808  25.475  1.00  0.00    -0.293 N 
HETATM   13  N2  UNL     1      19.213   7.454  26.577  1.00  0.00    -0.270 N 
HETATM   14  C8  UNL     1      18.752   6.761  27.714  1.00  0.00     0.232 C 
ATOM     15  H2  UNL     1      19.445   8.446  26.629  1.00  0.00     0.190 HD
HETATM   16  C9  UNL     1      19.084   7.274  29.060  1.00  0.00     0.119 C 
HETATM   17  O2  UNL     1      18.069   5.724  27.607  1.00  0.00    -0.272 OA
ATOM     18  H1  UNL     1      19.101   5.817  25.418  1.00  0.00     0.187 HD
ENDBRANCH   6  12
BRANCH   7  19
HETATM   19  O3  UNL     1      18.761   9.701  24.795  1.00  0.00    -0.344 OA
ATOM     20  H3  UNL     1      17.934   9.476  25.203  1.00  0.00     0.219 HD
ENDBRANCH   7  19
BRANCH  11  21
HETATM   21  O4  UNL     1      21.842   8.698  20.407  1.00  0.00    -0.274 OA
BRANCH  21  22
HETATM   22  C13 UNL     1      20.966   9.053  19.400  1.00  0.00     0.260 C 
HETATM   23  C14 UNL     1      21.319   8.738  17.979  1.00  0.00     0.126 C 
HETATM   24  O5  UNL     1      19.908   9.625  19.708  1.00  0.00    -0.265 OA
ENDBRANCH  21  22
ENDBRANCH  11  21
BRANCH   1  25
HETATM   25  O1  UNL     1      22.930   6.236  20.022  1.00  0.00    -0.353 OA
HETATM   26  C1  UNL     1      23.444   4.938  19.734  1.00  0.00     0.210 C 
ENDBRANCH   1  25
TORSDOF 5
ENDMDL
MODEL 4
REMARK VINA RESULT: -7.715088663      4.307      7.650
REMARK  5 active torsions:
REMARK  status: ('A' for Active; 'I' for Inactive)
REMARK    1  A    between atoms: O1_2  and  C2_3 
REMARK    2  A    between atoms: C7_8  and  N1_9 
REMARK       I    between atoms: N2_11  and  C8_13 
REMARK    3  A    between atoms: C10_16  and  O3_17 
REMARK    4  A    between atoms: C12_22  and  O4_23 
REMARK    5  A    between atoms: O4_23  and  C13_24 
ROOT
HETATM    1  C2  UNL     1      22.930   7.901  18.175  1.00  0.00     0.105 A 
HETATM    2  C3  UNL     1      22.421   7.270  19.322  1.00  0.00     0.047 A 
HETATM    3  C4  UNL     1      22.812   5.983  19.598  1.00  0.00    -0.044 A 
HETATM    4  C5  UNL     1      22.288   5.304  20.798  1.00  0.00     0.049 C 
HETATM    5  C6  UNL     1      23.687   5.322  18.771  1.00  0.00     0.032 A 
HETATM    6  C7  UNL     1      24.266   4.068  18.755  1.00  0.00     0.112 A 
HETATM    7  C10 UNL     1      25.092   3.924  17.658  1.00  0.00     0.170 A 
HETATM    8  N3  UNL     1      25.024   5.090  16.995  1.00  0.00    -0.332 N 
ATOM      9  H3  UNL     1      25.529   5.297  16.132  1.00  0.00     0.168 HD
HETATM   10  C11 UNL     1      24.199   5.950  17.621  1.00  0.00     0.084 A 
HETATM   11  C12 UNL     1      23.805   7.239  17.347  1.00  0.00     0.140 A 
ENDROOT
BRANCH   6  12
HETATM   12  N1  UNL     1      24.014   3.091  19.757  1.00  0.00    -0.293 N 
HETATM   13  N2  UNL     1      24.364   1.880  19.517  1.00  0.00    -0.270 N 
HETATM   14  C8  UNL     1      24.119   0.903  20.501  1.00  0.00     0.232 C 
ATOM     15  H2  UNL     1      24.811   1.631  18.634  1.00  0.00     0.190 HD
HETATM   16  C9  UNL     1      24.009  -0.516  20.104  1.00  0.00     0.119 C 
HETATM   17  O2  UNL     1      23.994   1.212  21.703  1.00  0.00    -0.272 OA
ATOM     18  H1  UNL     1      23.567   3.345  20.638  1.00  0.00     0.187 HD
ENDBRANCH   6  12
BRANCH   7  19
HETATM   19  O3  UNL     1      25.823   2.781  17.351  1.00  0.00    -0.344 OA
ATOM     20  H3  UNL     1      26.642   2.769  16.871  1.00  0.00     0.219 HD
ENDBRANCH   7  19
BRANCH  11  21
HETATM   21  O4  UNL     1      24.283   7.892  16.233  1.00  0.00    -0.274 OA
BRANCH  21  22
HETATM   22  C13 UNL     1      23.857   7.649  14.941  1.00  0.00     0.260 C 
HETATM   23  C14 UNL     1      22.748   8.478  14.369  1.00  0.00     0.126 C 
HETATM   24  O5  UNL     1      24.411   6.747  14.294  1.00  0.00    -0.265 OA
ENDBRANCH  21  22
ENDBRANCH  11  21
BRANCH   1  25
HETATM   25  O1  UNL     1      22.551   9.200  17.872  1.00  0.00    -0.353 OA
HETATM   26  C1  UNL     1      21.189   9.534  17.615  1.00  0.00     0.210 C 
ENDBRANCH   1  25
TORSDOF 5
ENDMDL
MODEL 5
REMARK VINA RESULT: -7.713616192      2.511      6.251
REMARK  5 active torsions:
REMARK  status: ('A' for Active; 'I' for Inactive)
REMARK    1  A    between atoms: O1_2  and  C2_3 
REMARK    2  A    between atoms: C7_8  and  N1_9 
REMARK       I    between atoms: N2_11  and  C8_13 
REMARK    3  A    between atoms: C10_16  and  O3_17 
REMARK    4  A    between atoms: C12_22  and  O4_23 
REMARK    5  A    between atoms: O4_23  and  C13_24 
ROOT
HETATM    1  C2  UNL     1      22.975   7.313  18.588  1.00  0.00     0.105 A 
HETATM    2  C3  UNL     1      23.475   6.030  18.865  1.00  0.00     0.047 A 
HETATM    3  C4  UNL     1      23.218   5.471  20.092  1.00  0.00    -0.044 A 
HETATM    4  C5  UNL     1      23.735   4.125  20.401  1.00  0.00     0.049 C 
HETATM    5  C6  UNL     1      22.483   6.150  21.034  1.00  0.00     0.032 A 
HETATM    6  C7  UNL     1      22.055   5.889  22.321  1.00  0.00     0.112 A 
HETATM    7  C10 UNL     1      21.327   6.950  22.820  1.00  0.00     0.170 A 
HETATM    8  N3  UNL     1      21.304   7.870  21.840  1.00  0.00    -0.332 N 
ATOM      9  H3  UNL     1      20.838   8.775  21.906  1.00  0.00     0.168 HD
HETATM   10  C11 UNL     1      21.980   7.435  20.760  1.00  0.00     0.084 A 
HETATM   11  C12 UNL     1      22.240   7.992  19.530  1.00  0.00     0.140 A 
ENDROOT
BRANCH   6  12
HETATM   12  N1  UNL     1      22.351   4.674  22.999  1.00  0.00    -0.293 N 
HETATM   13  N2  UNL     1      21.380   4.045  23.555  1.00  0.00    -0.270 N 
HETATM   14  C8  UNL     1      21.660   2.841  24.230  1.00  0.00     0.232 C 
ATOM     15  H2  UNL     1      20.428   4.409  23.509  1.00  0.00     0.190 HD
HETATM   16  C9  UNL     1      20.743   2.372  25.288  1.00  0.00     0.119 C 
HETATM   17  O2  UNL     1      22.668   2.162  23.950  1.00  0.00    -0.272 OA
ATOM     18  H1  UNL     1      23.304   4.314  23.041  1.00  0.00     0.187 HD
ENDBRANCH   6  12
BRANCH   7  19
HETATM   19  O3  UNL     1      20.756   7.004  24.086  1.00  0.00    -0.344 OA
ATOM     20  H3  UNL     1      20.054   7.588  24.345  1.00  0.00     0.219 HD
ENDBRANCH   7  19
BRANCH  11  21
HETATM   21  O4  UNL     1      21.766   9.248  19.219  1.00  0.00    -0.274 OA
BRANCH  21  22
HETATM   22  C13 UNL     1      20.450   9.533  18.910  1.00  0.00     0.260 C 
HETATM   23  C14 UNL     1      20.080   9.825  17.489  1.00  0.00     0.126 C 
HETATM   24  O5  UNL     1      19.613   9.536  19.826  1.00  0.00    -0.265 OA
ENDBRANCH  21  22
ENDBRANCH  11  21
BRANCH   1  25
HETATM   25  O1  UNL     1      23.220   7.902  17.357  1.00  0.00    -0.353 OA
HETATM   26  C1  UNL     1      24.550   8.124  16.894  1.00  0.00     0.210 C 
ENDBRANCH   1  25
TORSDOF 5
ENDMDL
