MODEL 1
REMARK VINA RESULT: -8.250321188      0.000      0.000
REMARK  7 active torsions:
REMARK  status: ('A' for Active; 'I' for Inactive)
REMARK    1  A    between atoms: C2_2  and  C3_3 
REMARK    2  A    between atoms: C5_6  and  O2_7 
REMARK    3  A    between atoms: O2_7  and  C6_8 
REMARK    4  A    between atoms: C10_13  and  O4_14 
REMARK    5  A    between atoms: C13_17  and  O5_18 
REMARK    6  A    between atoms: C16_21  and  O6_22 
REMARK    7  A    between atoms: C18_25  and  O7_26 
ROOT
HETATM    1  C3  UNL     1      21.780   8.712  18.102  1.00  0.00     0.087 A 
HETATM    2  O1  UNL     1      22.488   7.656  18.404  1.00  0.00    -0.308 OA
HETATM    3  C4  UNL     1      22.243   7.300  19.654  1.00  0.00     0.126 A 
HETATM    4  C5  UNL     1      22.756   6.260  20.387  1.00  0.00     0.125 A 
HETATM    5  C8  UNL     1      22.378   6.037  21.709  1.00  0.00     0.019 A 
HETATM    6  C9  UNL     1      22.932   4.965  22.407  1.00  0.00     0.052 A 
HETATM    7  C10 UNL     1      22.570   4.738  23.702  1.00  0.00     0.071 A 
HETATM    8  C12 UNL     1      21.660   5.587  24.278  1.00  0.00     0.074 A 
HETATM    9  C13 UNL     1      21.089   6.663  23.611  1.00  0.00     0.084 A 
HETATM   10  C15 UNL     1      21.459   6.888  22.300  1.00  0.00     0.045 A 
HETATM   11  C16 UNL     1      20.932   7.952  21.555  1.00  0.00     0.095 A 
HETATM   12  C17 UNL     1      21.335   8.154  20.214  1.00  0.00     0.070 A 
HETATM   13  C18 UNL     1      21.029   9.061  19.237  1.00  0.00     0.111 A 
ENDROOT
BRANCH   4  14
HETATM   14  O2  UNL     1      23.677   5.389  19.830  1.00  0.00    -0.275 OA
BRANCH  14  15
HETATM   15  C6  UNL     1      23.393   4.071  19.548  1.00  0.00     0.260 C 
HETATM   16  C7  UNL     1      24.524   3.119  19.463  1.00  0.00     0.126 C 
HETATM   17  O3  UNL     1      22.196   3.738  19.378  1.00  0.00    -0.265 OA
ENDBRANCH  14  15
ENDBRANCH   4  14
BRANCH   1  18
HETATM   18  C2  UNL     1      21.769   9.411  16.814  1.00  0.00     0.064 C 
HETATM   19  C1  UNL     1      22.526   8.723  15.724  1.00  0.00     0.012 C 
ENDBRANCH   1  18
BRANCH  11  20
HETATM   20  O6  UNL     1      20.049   8.815  22.039  1.00  0.00    -0.359 OA
ATOM     21  H6  UNL     1      19.160   8.576  22.273  1.00  0.00     0.217 HD
ENDBRANCH  11  20
BRANCH  13  22
HETATM   22  O7  UNL     1      20.154  10.112  19.346  1.00  0.00    -0.357 OA
ATOM     23  H7  UNL     1      19.457  10.203  19.985  1.00  0.00     0.217 HD
ENDBRANCH  13  22
BRANCH   7  24
HETATM   24  O4  UNL     1      23.141   3.661  24.368  1.00  0.00    -0.356 OA
HETATM   25  C11 UNL     1      23.266   2.410  23.752  1.00  0.00     0.210 C 
ENDBRANCH   7  24
BRANCH   9  26
HETATM   26  O5  UNL     1      20.182   7.486  24.229  1.00  0.00    -0.355 OA
HETATM   27  C14 UNL     1      20.366   8.087  25.477  1.00  0.00     0.210 C 
ENDBRANCH   9  26
TORSDOF 7
ENDMDL
MODEL 2
REMARK VINA RESULT: -8.245676356      1.510      5.739
REMARK  7 active torsions:
REMARK  status: ('A' for Active; 'I' for Inactive)
REMARK    1  A    between atoms: C2_2  and  C3_3 
REMARK    2  A    between atoms: C5_6  and  O2_7 
REMARK    3  A    between atoms: O2_7  and  C6_8 
REMARK    4  A    between atoms: C10_13  and  O4_14 
REMARK    5  A    between atoms: C13_17  and  O5_18 
REMARK    6  A    between atoms: C16_21  and  O6_22 
REMARK    7  A    between atoms: C18_25  and  O7_26 
ROOT
HETATM    1  C3  UNL     1      20.020   7.365  26.142  1.00  0.00     0.087 A 
HETATM    2  O1  UNL     1      20.756   6.347  25.781  1.00  0.00    -0.308 OA
HETATM    3  C4  UNL     1      21.121   6.490  24.517  1.00  0.00     0.126 A 
HETATM    4  C5  UNL     1      21.890   5.672  23.728  1.00  0.00     0.125 A 
HETATM    5  C8  UNL     1      22.173   5.987  22.401  1.00  0.00     0.019 A 
HETATM    6  C9  UNL     1      22.959   5.120  21.644  1.00  0.00     0.052 A 
HETATM    7  C10 UNL     1      23.242   5.418  20.344  1.00  0.00     0.071 A 
HETATM    8  C12 UNL     1      22.732   6.579  19.821  1.00  0.00     0.074 A 
HETATM    9  C13 UNL     1      21.946   7.465  20.546  1.00  0.00     0.084 A 
HETATM   10  C15 UNL     1      21.664   7.158  21.863  1.00  0.00     0.045 A 
HETATM   11  C16 UNL     1      20.878   7.996  22.666  1.00  0.00     0.095 A 
HETATM   12  C17 UNL     1      20.607   7.650  24.010  1.00  0.00     0.070 A 
HETATM   13  C18 UNL     1      19.903   8.221  25.034  1.00  0.00     0.111 A 
ENDROOT
BRANCH   4  14
HETATM   14  O2  UNL     1      22.415   4.494  24.230  1.00  0.00    -0.275 OA
BRANCH  14  15
HETATM   15  C6  UNL     1      21.661   3.362  24.444  1.00  0.00     0.260 C 
HETATM   16  C7  UNL     1      22.133   2.391  25.457  1.00  0.00     0.126 C 
HETATM   17  O3  UNL     1      20.612   3.205  23.773  1.00  0.00    -0.265 OA
ENDBRANCH  14  15
ENDBRANCH   4  14
BRANCH   1  18
HETATM   18  C2  UNL     1      19.423   7.578  27.463  1.00  0.00     0.064 C 
HETATM   19  C1  UNL     1      20.091   6.839  28.577  1.00  0.00     0.012 C 
ENDBRANCH   1  18
BRANCH  11  20
HETATM   20  O6  UNL     1      20.351   9.134  22.235  1.00  0.00    -0.359 OA
ATOM     21  H6  UNL     1      19.444   9.220  21.964  1.00  0.00     0.217 HD
ENDBRANCH  11  20
BRANCH  13  22
HETATM   22  O7  UNL     1      19.211   9.405  24.988  1.00  0.00    -0.357 OA
ATOM     23  H7  UNL     1      19.389  10.183  25.502  1.00  0.00     0.217 HD
ENDBRANCH  13  22
BRANCH   7  24
HETATM   24  O4  UNL     1      24.027   4.531  19.619  1.00  0.00    -0.356 OA
HETATM   25  C11 UNL     1      23.526   3.292  19.202  1.00  0.00     0.210 C 
ENDBRANCH   7  24
BRANCH   9  26
HETATM   26  O5  UNL     1      21.458   8.616  19.981  1.00  0.00    -0.355 OA
HETATM   27  C14 UNL     1      21.172   8.781  18.624  1.00  0.00     0.210 C 
ENDBRANCH   9  26
TORSDOF 7
ENDMDL
MODEL 3
REMARK VINA RESULT: -7.882387595      2.132      7.523
REMARK  7 active torsions:
REMARK  status: ('A' for Active; 'I' for Inactive)
REMARK    1  A    between atoms: C2_2  and  C3_3 
REMARK    2  A    between atoms: C5_6  and  O2_7 
REMARK    3  A    between atoms: O2_7  and  C6_8 
REMARK    4  A    between atoms: C10_13  and  O4_14 
REMARK    5  A    between atoms: C13_17  and  O5_18 
REMARK    6  A    between atoms: C16_21  and  O6_22 
REMARK    7  A    between atoms: C18_25  and  O7_26 
ROOT
HETATM    1  C3  UNL     1      20.363   4.706  27.105  1.00  0.00     0.087 A 
HETATM    2  O1  UNL     1      19.922   5.753  26.460  1.00  0.00    -0.308 OA
HETATM    3  C4  UNL     1      20.542   5.850  25.296  1.00  0.00     0.126 A 
HETATM    4  C5  UNL     1      20.399   6.784  24.300  1.00  0.00     0.125 A 
HETATM    5  C8  UNL     1      21.148   6.726  23.127  1.00  0.00     0.019 A 
HETATM    6  C9  UNL     1      20.962   7.702  22.149  1.00  0.00     0.052 A 
HETATM    7  C10 UNL     1      21.690   7.657  20.997  1.00  0.00     0.071 A 
HETATM    8  C12 UNL     1      22.593   6.636  20.843  1.00  0.00     0.074 A 
HETATM    9  C13 UNL     1      22.803   5.648  21.796  1.00  0.00     0.084 A 
HETATM   10  C15 UNL     1      22.062   5.699  22.960  1.00  0.00     0.045 A 
HETATM   11  C16 UNL     1      22.211   4.743  23.975  1.00  0.00     0.095 A 
HETATM   12  C17 UNL     1      21.437   4.827  25.155  1.00  0.00     0.070 A 
HETATM   13  C18 UNL     1      21.336   4.088  26.301  1.00  0.00     0.111 A 
ENDROOT
BRANCH   4  14
HETATM   14  O2  UNL     1      19.495   7.824  24.431  1.00  0.00    -0.275 OA
BRANCH  14  15
HETATM   15  C6  UNL     1      19.620   8.817  25.378  1.00  0.00     0.260 C 
HETATM   16  C7  UNL     1      20.953   9.431  25.572  1.00  0.00     0.126 C 
HETATM   17  O3  UNL     1      18.602   9.154  26.030  1.00  0.00    -0.265 OA
ENDBRANCH  14  15
ENDBRANCH   4  14
BRANCH   1  18
HETATM   18  C2  UNL     1      19.927   4.255  28.430  1.00  0.00     0.064 C 
HETATM   19  C1  UNL     1      18.445   4.236  28.625  1.00  0.00     0.012 C 
ENDBRANCH   1  18
BRANCH  11  20
HETATM   20  O6  UNL     1      23.061   3.728  23.900  1.00  0.00    -0.359 OA
ATOM     21  H6  UNL     1      23.114   3.042  24.556  1.00  0.00     0.217 HD
ENDBRANCH  11  20
BRANCH  13  22
HETATM   22  O7  UNL     1      22.049   2.957  26.608  1.00  0.00    -0.357 OA
ATOM     23  H7  UNL     1      22.540   2.797  27.405  1.00  0.00     0.217 HD
ENDBRANCH  13  22
BRANCH   7  24
HETATM   24  O4  UNL     1      21.480   8.644  20.044  1.00  0.00    -0.356 OA
HETATM   25  C11 UNL     1      21.721   8.405  18.685  1.00  0.00     0.210 C 
ENDBRANCH   7  24
BRANCH   9  26
HETATM   26  O5  UNL     1      23.718   4.646  21.598  1.00  0.00    -0.355 OA
HETATM   27  C14 UNL     1      24.281   4.309  20.365  1.00  0.00     0.210 C 
ENDBRANCH   9  26
TORSDOF 7
ENDMDL
MODEL 4
REMARK VINA RESULT: -7.825033519      1.913      4.992
REMARK  7 active torsions:
REMARK  status: ('A' for Active; 'I' for Inactive)
REMARK    1  A    between atoms: C2_2  and  C3_3 
REMARK    2  A    between atoms: C5_6  and  O2_7 
REMARK    3  A    between atoms: O2_7  and  C6_8 
REMARK    4  A    between atoms: C10_13  and  O4_14 
REMARK    5  A    between atoms: C13_17  and  O5_18 
REMARK    6  A    between atoms: C16_21  and  O6_22 
REMARK    7  A    between atoms: C18_25  and  O7_26 
ROOT
HETATM    1  C3  UNL     1      23.180   3.553  19.746  1.00  0.00     0.087 A 
HETATM    2  O1  UNL     1      23.107   4.840  19.958  1.00  0.00    -0.308 OA
HETATM    3  C4  UNL     1      22.445   5.068  21.080  1.00  0.00     0.126 A 
HETATM    4  C5  UNL     1      22.130   6.257  21.688  1.00  0.00     0.125 A 
HETATM    5  C8  UNL     1      21.416   6.304  22.883  1.00  0.00     0.019 A 
HETATM    6  C9  UNL     1      21.123   7.540  23.456  1.00  0.00     0.052 A 
HETATM    7  C10 UNL     1      20.424   7.599  24.625  1.00  0.00     0.071 A 
HETATM    8  C12 UNL     1      20.027   6.418  25.201  1.00  0.00     0.074 A 
HETATM    9  C13 UNL     1      20.302   5.171  24.657  1.00  0.00     0.084 A 
HETATM   10  C15 UNL     1      21.011   5.118  23.473  1.00  0.00     0.045 A 
HETATM   11  C16 UNL     1      21.330   3.901  22.855  1.00  0.00     0.095 A 
HETATM   12  C17 UNL     1      22.057   3.884  21.642  1.00  0.00     0.070 A 
HETATM   13  C18 UNL     1      22.519   2.908  20.804  1.00  0.00     0.111 A 
ENDROOT
BRANCH   4  14
HETATM   14  O2  UNL     1      22.518   7.462  21.127  1.00  0.00    -0.275 OA
BRANCH  14  15
HETATM   15  C6  UNL     1      21.938   7.988  19.994  1.00  0.00     0.260 C 
HETATM   16  C7  UNL     1      20.674   8.745  20.147  1.00  0.00     0.126 C 
HETATM   17  O3  UNL     1      22.504   7.805  18.890  1.00  0.00    -0.265 OA
ENDBRANCH  14  15
ENDBRANCH   4  14
BRANCH   1  18
HETATM   18  C2  UNL     1      23.834   2.896  18.610  1.00  0.00     0.064 C 
HETATM   19  C1  UNL     1      25.248   2.482  18.857  1.00  0.00     0.012 C 
ENDBRANCH   1  18
BRANCH  11  20
HETATM   20  O6  UNL     1      20.984   2.720  23.349  1.00  0.00    -0.359 OA
ATOM     21  H6  UNL     1      21.474   1.922  23.188  1.00  0.00     0.217 HD
ENDBRANCH  11  20
BRANCH  13  22
HETATM   22  O7  UNL     1      22.364   1.554  20.965  1.00  0.00    -0.357 OA
ATOM     23  H7  UNL     1      21.616   1.113  21.351  1.00  0.00     0.217 HD
ENDBRANCH  13  22
BRANCH   7  24
HETATM   24  O4  UNL     1      20.149   8.847  25.169  1.00  0.00    -0.356 OA
HETATM   25  C11 UNL     1      19.185   9.005  26.171  1.00  0.00     0.210 C 
ENDBRANCH   7  24
BRANCH   9  26
HETATM   26  O5  UNL     1      19.885   4.017  25.269  1.00  0.00    -0.355 OA
HETATM   27  C14 UNL     1      19.373   3.939  26.567  1.00  0.00     0.210 C 
ENDBRANCH   9  26
TORSDOF 7
ENDMDL
MODEL 5
REMARK VINA RESULT: -7.724161372      1.916      5.541
REMARK  7 active torsions:
REMARK  status: ('A' for Active; 'I' for Inactive)
REMARK    1  A    between atoms: C2_2  and  C3_3 
REMARK    2  A    between atoms: C5_6  and  O2_7 
REMARK    3  A    between atoms: O2_7  and  C6_8 
REMARK    4  A    between atoms: C10_13  and  O4_14 
REMARK    5  A    between atoms: C13_17  and  O5_18 
REMARK    6  A    between atoms: C16_21  and  O6_22 
REMARK    7  A    between atoms: C18_25  and  O7_26 
ROOT
HETATM    1  C3  UNL     1      20.752   7.912  24.655  1.00  0.00     0.087 A 
HETATM    2  O1  UNL     1      21.394   8.015  23.521  1.00  0.00    -0.308 OA
HETATM    3  C4  UNL     1      21.552   6.814  22.990  1.00  0.00     0.126 A 
HETATM    4  C5  UNL     1      22.161   6.446  21.817  1.00  0.00     0.125 A 
HETATM    5  C8  UNL     1      22.234   5.114  21.414  1.00  0.00     0.019 A 
HETATM    6  C9  UNL     1      22.865   4.797  20.212  1.00  0.00     0.052 A 
HETATM    7  C10 UNL     1      22.943   3.497  19.808  1.00  0.00     0.071 A 
HETATM    8  C12 UNL     1      22.389   2.535  20.614  1.00  0.00     0.074 A 
HETATM    9  C13 UNL     1      21.753   2.816  21.815  1.00  0.00     0.084 A 
HETATM   10  C15 UNL     1      21.676   4.134  22.219  1.00  0.00     0.045 A 
HETATM   11  C16 UNL     1      21.053   4.506  23.418  1.00  0.00     0.095 A 
HETATM   12  C17 UNL     1      20.994   5.866  23.802  1.00  0.00     0.070 A 
HETATM   13  C18 UNL     1      20.480   6.550  24.869  1.00  0.00     0.111 A 
ENDROOT
BRANCH   4  14
HETATM   14  O2  UNL     1      22.729   7.396  20.987  1.00  0.00    -0.275 OA
BRANCH  14  15
HETATM   15  C6  UNL     1      22.069   7.950  19.911  1.00  0.00     0.260 C 
HETATM   16  C7  UNL     1      20.786   8.644  20.164  1.00  0.00     0.126 C 
HETATM   17  O3  UNL     1      22.584   7.843  18.772  1.00  0.00    -0.265 OA
ENDBRANCH  14  15
ENDBRANCH   4  14
BRANCH   1  18
HETATM   18  C2  UNL     1      20.383   9.015  25.546  1.00  0.00     0.064 C 
HETATM   19  C1  UNL     1      18.976   8.966  26.049  1.00  0.00     0.012 C 
ENDBRANCH   1  18
BRANCH  11  20
HETATM   20  O6  UNL     1      20.494   3.637  24.249  1.00  0.00    -0.359 OA
ATOM     21  H6  UNL     1      20.771   3.523  25.151  1.00  0.00     0.217 HD
ENDBRANCH  11  20
BRANCH  13  22
HETATM   22  O7  UNL     1      19.822   6.009  25.944  1.00  0.00    -0.357 OA
ATOM     23  H7  UNL     1      20.207   5.485  26.637  1.00  0.00     0.217 HD
ENDBRANCH  13  22
BRANCH   7  24
HETATM   24  O4  UNL     1      23.580   3.217  18.606  1.00  0.00    -0.356 OA
HETATM   25  C11 UNL     1      24.028   1.924  18.307  1.00  0.00     0.210 C 
ENDBRANCH   7  24
BRANCH   9  26
HETATM   26  O5  UNL     1      21.212   1.820  22.588  1.00  0.00    -0.355 OA
HETATM   27  C14 UNL     1      20.189   0.959  22.183  1.00  0.00     0.210 C 
ENDBRANCH   9  26
TORSDOF 7
ENDMDL
