MODEL 1
REMARK VINA RESULT: -6.836573143      0.000      0.000
REMARK  8 active torsions:
REMARK  status: ('A' for Active; 'I' for Inactive)
REMARK    1  A    between atoms: C2_2  and  C3_3 
REMARK    2  A    between atoms: C3_3  and  C4_4 
REMARK    3  A    between atoms: C4_4  and  C5_5 
REMARK    4  A    between atoms: C5_5  and  S1_6 
REMARK    5  A    between atoms: S1_6  and  C6_7 
REMARK    6  A    between atoms: C9_12  and  O1_13 
REMARK    7  A    between atoms: C11_16  and  O2_17 
REMARK    8  A    between atoms: O2_17  and  C12_18 
ROOT
HETATM    1  C6  UNL     1      22.763   4.724  21.497  1.00  0.00     0.115 C 
HETATM    2  N1  UNL     1      23.712   4.784  20.693  1.00  0.00    -0.369 N 
ATOM      3  H1  UNL     1      24.064   5.730  20.549  1.00  0.00     0.161 HD
HETATM    4  C7  UNL     1      24.388   3.823  19.951  1.00  0.00     0.127 C 
HETATM    5  C8  UNL     1      23.610   3.188  18.844  1.00  0.00     0.037 C 
HETATM    6  C9  UNL     1      24.062   1.970  18.606  1.00  0.00     0.073 C 
HETATM    7  C10 UNL     1      25.161   1.700  19.522  1.00  0.00     0.014 C 
HETATM    8  C11 UNL     1      26.072   0.784  19.339  1.00  0.00     0.157 C 
HETATM    9  C14 UNL     1      25.015   2.667  20.668  1.00  0.00     0.123 C 
HETATM   10  S2  UNL     1      23.910   1.853  21.848  1.00  0.00    -0.078 SA
HETATM   11  S3  UNL     1      22.121   3.055  21.779  1.00  0.00    -0.032 SA
ENDROOT
BRANCH   1  12
HETATM   12  S1  UNL     1      22.039   6.133  22.352  1.00  0.00    -0.105 SA
BRANCH  12  13
HETATM   13  C5  UNL     1      22.528   7.599  21.401  1.00  0.00     0.081 C 
BRANCH  13  14
HETATM   14  C4  UNL     1      21.480   7.993  20.391  1.00  0.00     0.010 C 
BRANCH  14  15
HETATM   15  C3  UNL     1      22.087   7.907  19.002  1.00  0.00     0.000 C 
BRANCH  15  16
HETATM   16  C2  UNL     1      21.271   8.768  18.080  1.00  0.00    -0.005 C 
HETATM   17  C1  UNL     1      22.083   9.051  16.844  1.00  0.00     0.005 C 
ENDBRANCH  15  16
ENDBRANCH  14  15
ENDBRANCH  13  14
ENDBRANCH  12  13
ENDBRANCH   1  12
BRANCH   6  18
HETATM   18  O1  UNL     1      23.521   1.150  17.625  1.00  0.00    -0.360 OA
ATOM     19  H1  UNL     1      24.034   0.808  16.902  1.00  0.00     0.217 HD
ENDBRANCH   6  18
BRANCH   8  20
HETATM   20  O2  UNL     1      26.089  -0.044  18.232  1.00  0.00    -0.291 OA
BRANCH  20  21
HETATM   21  C12 UNL     1      25.766  -1.377  18.386  1.00  0.00     0.259 C 
HETATM   22  C13 UNL     1      26.743  -2.429  18.762  1.00  0.00     0.126 C 
HETATM   23  O3  UNL     1      24.569  -1.712  18.194  1.00  0.00    -0.265 OA
ENDBRANCH  20  21
ENDBRANCH   8  20
TORSDOF 8
ENDMDL
MODEL 2
REMARK VINA RESULT: -6.808942326      1.051      1.269
REMARK  8 active torsions:
REMARK  status: ('A' for Active; 'I' for Inactive)
REMARK    1  A    between atoms: C2_2  and  C3_3 
REMARK    2  A    between atoms: C3_3  and  C4_4 
REMARK    3  A    between atoms: C4_4  and  C5_5 
REMARK    4  A    between atoms: C5_5  and  S1_6 
REMARK    5  A    between atoms: S1_6  and  C6_7 
REMARK    6  A    between atoms: C9_12  and  O1_13 
REMARK    7  A    between atoms: C11_16  and  O2_17 
REMARK    8  A    between atoms: O2_17  and  C12_18 
ROOT
HETATM    1  C6  UNL     1      22.833   4.704  21.402  1.00  0.00     0.115 C 
HETATM    2  N1  UNL     1      23.719   4.775  20.529  1.00  0.00    -0.369 N 
ATOM      3  H1  UNL     1      24.007   5.730  20.319  1.00  0.00     0.161 HD
HETATM    4  C7  UNL     1      24.395   3.817  19.785  1.00  0.00     0.127 C 
HETATM    5  C8  UNL     1      23.580   3.089  18.765  1.00  0.00     0.037 C 
HETATM    6  C9  UNL     1      24.080   1.887  18.548  1.00  0.00     0.073 C 
HETATM    7  C10 UNL     1      25.253   1.719  19.395  1.00  0.00     0.014 C 
HETATM    8  C11 UNL     1      26.200   0.844  19.188  1.00  0.00     0.157 C 
HETATM    9  C14 UNL     1      25.133   2.730  20.505  1.00  0.00     0.123 C 
HETATM   10  S2  UNL     1      24.159   1.917  21.795  1.00  0.00    -0.078 SA
HETATM   11  S3  UNL     1      22.306   3.018  21.801  1.00  0.00    -0.032 SA
ENDROOT
BRANCH   1  12
HETATM   12  S1  UNL     1      22.092   6.112  22.243  1.00  0.00    -0.105 SA
BRANCH  12  13
HETATM   13  C5  UNL     1      22.587   7.578  21.294  1.00  0.00     0.081 C 
BRANCH  13  14
HETATM   14  C4  UNL     1      21.516   8.011  20.324  1.00  0.00     0.010 C 
BRANCH  14  15
HETATM   15  C3  UNL     1      22.075   7.929  18.915  1.00  0.00     0.000 C 
BRANCH  15  16
HETATM   16  C2  UNL     1      21.296   8.876  18.047  1.00  0.00    -0.005 C 
HETATM   17  C1  UNL     1      22.061   9.095  16.768  1.00  0.00     0.005 C 
ENDBRANCH  15  16
ENDBRANCH  14  15
ENDBRANCH  13  14
ENDBRANCH  12  13
ENDBRANCH   1  12
BRANCH   6  18
HETATM   18  O1  UNL     1      23.520   0.994  17.645  1.00  0.00    -0.360 OA
ATOM     19  H1  UNL     1      22.978   0.263  17.918  1.00  0.00     0.217 HD
ENDBRANCH   6  18
BRANCH   8  20
HETATM   20  O2  UNL     1      26.187  -0.033  18.120  1.00  0.00    -0.291 OA
BRANCH  20  21
HETATM   21  C12 UNL     1      26.840   0.317  16.955  1.00  0.00     0.259 C 
HETATM   22  C13 UNL     1      28.298   0.582  16.871  1.00  0.00     0.126 C 
HETATM   23  O3  UNL     1      26.152   0.414  15.908  1.00  0.00    -0.265 OA
ENDBRANCH  20  21
ENDBRANCH   8  20
TORSDOF 8
ENDMDL
MODEL 3
REMARK VINA RESULT: -6.731865060      2.120      2.828
REMARK  8 active torsions:
REMARK  status: ('A' for Active; 'I' for Inactive)
REMARK    1  A    between atoms: C2_2  and  C3_3 
REMARK    2  A    between atoms: C3_3  and  C4_4 
REMARK    3  A    between atoms: C4_4  and  C5_5 
REMARK    4  A    between atoms: C5_5  and  S1_6 
REMARK    5  A    between atoms: S1_6  and  C6_7 
REMARK    6  A    between atoms: C9_12  and  O1_13 
REMARK    7  A    between atoms: C11_16  and  O2_17 
REMARK    8  A    between atoms: O2_17  and  C12_18 
ROOT
HETATM    1  C6  UNL     1      22.552   4.538  23.215  1.00  0.00     0.115 C 
HETATM    2  N1  UNL     1      23.636   4.903  22.722  1.00  0.00    -0.369 N 
ATOM      3  H1  UNL     1      24.027   5.733  23.167  1.00  0.00     0.161 HD
HETATM    4  C7  UNL     1      24.422   4.408  21.689  1.00  0.00     0.127 C 
HETATM    5  C8  UNL     1      23.855   4.550  20.313  1.00  0.00     0.037 C 
HETATM    6  C9  UNL     1      24.321   3.600  19.523  1.00  0.00     0.073 C 
HETATM    7  C10 UNL     1      25.222   2.759  20.299  1.00  0.00     0.014 C 
HETATM    8  C11 UNL     1      26.135   1.979  19.787  1.00  0.00     0.157 C 
HETATM    9  C14 UNL     1      24.882   2.983  21.749  1.00  0.00     0.123 C 
HETATM   10  S2  UNL     1      23.560   1.804  22.121  1.00  0.00    -0.078 SA
HETATM   11  S3  UNL     1      21.838   3.061  22.449  1.00  0.00    -0.032 SA
ENDROOT
BRANCH   1  12
HETATM   12  S1  UNL     1      21.707   5.355  24.577  1.00  0.00    -0.105 SA
BRANCH  12  13
HETATM   13  C5  UNL     1      20.596   6.573  23.817  1.00  0.00     0.081 C 
BRANCH  13  14
HETATM   14  C4  UNL     1      21.344   7.782  23.312  1.00  0.00     0.010 C 
BRANCH  14  15
HETATM   15  C3  UNL     1      20.986   7.999  21.853  1.00  0.00     0.000 C 
BRANCH  15  16
HETATM   16  C2  UNL     1      22.183   7.638  21.019  1.00  0.00    -0.005 C 
HETATM   17  C1  UNL     1      21.898   8.006  19.586  1.00  0.00     0.005 C 
ENDBRANCH  15  16
ENDBRANCH  14  15
ENDBRANCH  13  14
ENDBRANCH  12  13
ENDBRANCH   1  12
BRANCH   6  18
HETATM   18  O1  UNL     1      23.959   3.492  18.187  1.00  0.00    -0.360 OA
ATOM     19  H1  UNL     1      24.581   3.272  17.504  1.00  0.00     0.217 HD
ENDBRANCH   6  18
BRANCH   8  20
HETATM   20  O2  UNL     1      26.345   1.867  18.425  1.00  0.00    -0.291 OA
BRANCH  20  21
HETATM   21  C12 UNL     1      27.369   2.586  17.841  1.00  0.00     0.259 C 
HETATM   22  C13 UNL     1      28.707   2.022  17.534  1.00  0.00     0.126 C 
HETATM   23  O3  UNL     1      27.146   3.790  17.557  1.00  0.00    -0.265 OA
ENDBRANCH  20  21
ENDBRANCH   8  20
TORSDOF 8
ENDMDL
MODEL 4
REMARK VINA RESULT: -6.714551325      2.174      2.693
REMARK  8 active torsions:
REMARK  status: ('A' for Active; 'I' for Inactive)
REMARK    1  A    between atoms: C2_2  and  C3_3 
REMARK    2  A    between atoms: C3_3  and  C4_4 
REMARK    3  A    between atoms: C4_4  and  C5_5 
REMARK    4  A    between atoms: C5_5  and  S1_6 
REMARK    5  A    between atoms: S1_6  and  C6_7 
REMARK    6  A    between atoms: C9_12  and  O1_13 
REMARK    7  A    between atoms: C11_16  and  O2_17 
REMARK    8  A    between atoms: O2_17  and  C12_18 
ROOT
HETATM    1  C6  UNL     1      24.650   3.627  20.896  1.00  0.00     0.115 C 
HETATM    2  N1  UNL     1      25.756   3.055  20.917  1.00  0.00    -0.369 N 
ATOM      3  H1  UNL     1      26.306   3.262  21.750  1.00  0.00     0.161 HD
HETATM    4  C7  UNL     1      26.394   2.191  20.035  1.00  0.00     0.127 C 
HETATM    5  C8  UNL     1      26.832   2.791  18.738  1.00  0.00     0.037 C 
HETATM    6  C9  UNL     1      26.868   1.869  17.794  1.00  0.00     0.073 C 
HETATM    7  C10 UNL     1      26.461   0.598  18.378  1.00  0.00     0.014 C 
HETATM    8  C11 UNL     1      26.731  -0.573  17.869  1.00  0.00     0.157 C 
HETATM    9  C14 UNL     1      25.700   0.924  19.636  1.00  0.00     0.123 C 
HETATM   10  S2  UNL     1      23.985   1.164  19.113  1.00  0.00    -0.078 SA
HETATM   11  S3  UNL     1      23.648   3.271  19.430  1.00  0.00    -0.032 SA
ENDROOT
BRANCH   1  12
HETATM   12  S1  UNL     1      24.027   4.724  22.179  1.00  0.00    -0.105 SA
BRANCH  12  13
HETATM   13  C5  UNL     1      22.505   5.456  21.513  1.00  0.00     0.081 C 
BRANCH  13  14
HETATM   14  C4  UNL     1      22.586   6.960  21.439  1.00  0.00     0.010 C 
BRANCH  14  15
HETATM   15  C3  UNL     1      22.787   7.365  19.990  1.00  0.00     0.000 C 
BRANCH  15  16
HETATM   16  C2  UNL     1      21.622   8.219  19.576  1.00  0.00    -0.005 C 
HETATM   17  C1  UNL     1      21.683   8.424  18.085  1.00  0.00     0.005 C 
ENDBRANCH  15  16
ENDBRANCH  14  15
ENDBRANCH  13  14
ENDBRANCH  12  13
ENDBRANCH   1  12
BRANCH   6  18
HETATM   18  O1  UNL     1      27.243   2.149  16.487  1.00  0.00    -0.360 OA
ATOM     19  H1  UNL     1      26.639   2.089  15.756  1.00  0.00     0.217 HD
ENDBRANCH   6  18
BRANCH   8  20
HETATM   20  O2  UNL     1      27.446  -0.733  16.696  1.00  0.00    -0.291 OA
BRANCH  20  21
HETATM   21  C12 UNL     1      26.821  -1.294  15.600  1.00  0.00     0.259 C 
HETATM   22  C13 UNL     1      26.136  -0.506  14.544  1.00  0.00     0.126 C 
HETATM   23  O3  UNL     1      26.836  -2.547  15.499  1.00  0.00    -0.265 OA
ENDBRANCH  20  21
ENDBRANCH   8  20
TORSDOF 8
ENDMDL
MODEL 5
REMARK VINA RESULT: -6.597710331      1.997      2.850
REMARK  8 active torsions:
REMARK  status: ('A' for Active; 'I' for Inactive)
REMARK    1  A    between atoms: C2_2  and  C3_3 
REMARK    2  A    between atoms: C3_3  and  C4_4 
REMARK    3  A    between atoms: C4_4  and  C5_5 
REMARK    4  A    between atoms: C5_5  and  S1_6 
REMARK    5  A    between atoms: S1_6  and  C6_7 
REMARK    6  A    between atoms: C9_12  and  O1_13 
REMARK    7  A    between atoms: C11_16  and  O2_17 
REMARK    8  A    between atoms: O2_17  and  C12_18 
ROOT
HETATM    1  C6  UNL     1      22.550   3.420  21.901  1.00  0.00     0.115 C 
HETATM    2  N1  UNL     1      23.247   4.031  21.069  1.00  0.00    -0.369 N 
ATOM      3  H1  UNL     1      23.081   5.037  21.060  1.00  0.00     0.161 HD
HETATM    4  C7  UNL     1      24.206   3.620  20.151  1.00  0.00     0.127 C 
HETATM    5  C8  UNL     1      23.701   2.815  18.998  1.00  0.00     0.037 C 
HETATM    6  C9  UNL     1      24.648   2.015  18.546  1.00  0.00     0.073 C 
HETATM    7  C10 UNL     1      25.845   2.219  19.352  1.00  0.00     0.014 C 
HETATM    8  C11 UNL     1      27.054   1.899  18.979  1.00  0.00     0.157 C 
HETATM    9  C14 UNL     1      25.394   2.850  20.643  1.00  0.00     0.123 C 
HETATM   10  S2  UNL     1      24.969   1.469  21.732  1.00  0.00    -0.078 SA
HETATM   11  S3  UNL     1      22.830   1.631  21.946  1.00  0.00    -0.032 SA
ENDROOT
BRANCH   1  12
HETATM   12  S1  UNL     1      21.349   4.180  23.005  1.00  0.00    -0.105 SA
BRANCH  12  13
HETATM   13  C5  UNL     1      22.039   5.798  23.454  1.00  0.00     0.081 C 
BRANCH  13  14
HETATM   14  C4  UNL     1      21.000   6.891  23.397  1.00  0.00     0.010 C 
BRANCH  14  15
HETATM   15  C3  UNL     1      21.192   7.676  22.112  1.00  0.00     0.000 C 
BRANCH  15  16
HETATM   16  C2  UNL     1      22.591   7.435  21.620  1.00  0.00    -0.005 C 
HETATM   17  C1  UNL     1      22.597   7.549  20.118  1.00  0.00     0.005 C 
ENDBRANCH  15  16
ENDBRANCH  14  15
ENDBRANCH  13  14
ENDBRANCH  12  13
ENDBRANCH   1  12
BRANCH   6  18
HETATM   18  O1  UNL     1      24.453   1.152  17.476  1.00  0.00    -0.360 OA
ATOM     19  H1  UNL     1      24.914   1.247  16.651  1.00  0.00     0.217 HD
ENDBRANCH   6  18
BRANCH   8  20
HETATM   20  O2  UNL     1      27.332   1.320  17.755  1.00  0.00    -0.291 OA
BRANCH  20  21
HETATM   21  C12 UNL     1      28.276   1.903  16.935  1.00  0.00     0.259 C 
HETATM   22  C13 UNL     1      27.975   2.472  15.597  1.00  0.00     0.126 C 
HETATM   23  O3  UNL     1      29.461   1.951  17.353  1.00  0.00    -0.265 OA
ENDBRANCH  20  21
ENDBRANCH   8  20
TORSDOF 8
ENDMDL
