MODEL 1
REMARK VINA RESULT: -7.907702808      0.000      0.000
REMARK  9 active torsions:
REMARK  status: ('A' for Active; 'I' for Inactive)
REMARK    1  A    between atoms: O1_2  and  C2_3 
REMARK    2  A    between atoms: C4_5  and  O2_6 
REMARK    3  A    between atoms: C5_8  and  C6_9 
REMARK    4  A    between atoms: C8_12  and  O4_13 
REMARK    5  A    between atoms: C9_15  and  C10_16 
REMARK    6  A    between atoms: C10_16  and  O5_17 
REMARK    7  A    between atoms: C10_16  and  C11_19 
REMARK    8  A    between atoms: C11_19  and  C12_20 
REMARK    9  A    between atoms: C12_20  and  C13_21 
ROOT
HETATM    1  C2  UNL     1      26.913   0.623  15.703  1.00  0.00     0.086 A 
HETATM    2  C3  UNL     1      26.513   0.324  14.395  1.00  0.00     0.075 A 
HETATM    3  C4  UNL     1      26.821   1.133  13.353  1.00  0.00     0.085 A 
HETATM    4  C5  UNL     1      27.544   2.292  13.524  1.00  0.00     0.077 A 
HETATM    5  C8  UNL     1      27.958   2.617  14.821  1.00  0.00     0.098 A 
HETATM    6  C9  UNL     1      27.632   1.761  15.926  1.00  0.00     0.065 A 
ENDROOT
BRANCH   6   7
HETATM    7  C10 UNL     1      28.097   2.171  17.224  1.00  0.00     0.081 C 
BRANCH   7   8
HETATM    8  O5  UNL     1      29.443   2.030  17.304  1.00  0.00    -0.360 OA
ATOM      9  H5  UNL     1      29.772   2.463  18.082  1.00  0.00     0.217 HD
ENDBRANCH   7   8
BRANCH   7  10
HETATM   10  C11 UNL     1      27.580   2.675  18.439  1.00  0.00     0.039 C 
BRANCH  10  11
HETATM   11  C12 UNL     1      27.153   2.306  19.579  1.00  0.00     0.021 C 
BRANCH  11  12
HETATM   12  C13 UNL     1      25.698   2.432  19.917  1.00  0.00     0.005 A 
HETATM   13  C14 UNL     1      24.826   3.453  19.715  1.00  0.00     0.026 A 
HETATM   14  C15 UNL     1      23.553   3.281  20.133  1.00  0.00    -0.048 A 
HETATM   15  C16 UNL     1      22.476   4.340  19.968  1.00  0.00     0.049 C 
HETATM   16  C17 UNL     1      23.241   2.095  20.726  1.00  0.00    -0.015 A 
HETATM   17  C18 UNL     1      21.923   1.634  21.280  1.00  0.00     0.057 C 
HETATM   18  S1  UNL     1      24.717   1.248  20.691  1.00  0.00    -0.095 SA
ENDBRANCH  11  12
ENDBRANCH  10  11
ENDBRANCH   7  10
ENDBRANCH   6   7
BRANCH   1  19
HETATM   19  O1  UNL     1      26.550  -0.263  16.694  1.00  0.00    -0.355 OA
HETATM   20  C1  UNL     1      25.261  -0.288  17.222  1.00  0.00     0.210 C 
ENDBRANCH   1  19
BRANCH   5  21
HETATM   21  O4  UNL     1      28.649   3.729  14.974  1.00  0.00    -0.359 OA
ATOM     22  H4  UNL     1      29.301   3.745  15.665  1.00  0.00     0.217 HD
ENDBRANCH   5  21
BRANCH   4  23
HETATM   23  C6  UNL     1      27.855   3.135  12.380  1.00  0.00     0.161 C 
HETATM   24  C7  UNL     1      29.164   3.166  11.729  1.00  0.00     0.097 C 
HETATM   25  O3  UNL     1      26.949   3.876  11.929  1.00  0.00    -0.293 OA
ENDBRANCH   4  23
BRANCH   3  26
HETATM   26  O2  UNL     1      26.412   0.819  12.043  1.00  0.00    -0.360 OA
ATOM     27  H2  UNL     1      26.259   1.502  11.400  1.00  0.00     0.217 HD
ENDBRANCH   3  26
TORSDOF 9
ENDMDL
MODEL 2
REMARK VINA RESULT: -7.820396778      1.001      1.267
REMARK  9 active torsions:
REMARK  status: ('A' for Active; 'I' for Inactive)
REMARK    1  A    between atoms: O1_2  and  C2_3 
REMARK    2  A    between atoms: C4_5  and  O2_6 
REMARK    3  A    between atoms: C5_8  and  C6_9 
REMARK    4  A    between atoms: C8_12  and  O4_13 
REMARK    5  A    between atoms: C9_15  and  C10_16 
REMARK    6  A    between atoms: C10_16  and  O5_17 
REMARK    7  A    between atoms: C10_16  and  C11_19 
REMARK    8  A    between atoms: C11_19  and  C12_20 
REMARK    9  A    between atoms: C12_20  and  C13_21 
ROOT
HETATM    1  C2  UNL     1      26.876   0.544  15.722  1.00  0.00     0.086 A 
HETATM    2  C3  UNL     1      26.446   0.308  14.411  1.00  0.00     0.075 A 
HETATM    3  C4  UNL     1      26.763   1.147  13.395  1.00  0.00     0.085 A 
HETATM    4  C5  UNL     1      27.524   2.276  13.599  1.00  0.00     0.077 A 
HETATM    5  C8  UNL     1      27.968   2.537  14.900  1.00  0.00     0.098 A 
HETATM    6  C9  UNL     1      27.634   1.649  15.977  1.00  0.00     0.065 A 
ENDROOT
BRANCH   6   7
HETATM    7  C10 UNL     1      28.132   1.994  17.281  1.00  0.00     0.081 C 
BRANCH   7   8
HETATM    8  O5  UNL     1      29.488   1.975  17.283  1.00  0.00    -0.360 OA
ATOM      9  H5  UNL     1      29.821   2.356  16.480  1.00  0.00     0.217 HD
ENDBRANCH   7   8
BRANCH   7  10
HETATM   10  C11 UNL     1      27.641   2.346  18.559  1.00  0.00     0.039 C 
BRANCH  10  11
HETATM   11  C12 UNL     1      26.900   1.923  19.502  1.00  0.00     0.021 C 
BRANCH  11  12
HETATM   12  C13 UNL     1      25.754   2.754  19.993  1.00  0.00     0.005 A 
HETATM   13  C14 UNL     1      25.521   3.313  21.208  1.00  0.00     0.026 A 
HETATM   14  C15 UNL     1      24.381   4.022  21.363  1.00  0.00    -0.048 A 
HETATM   15  C16 UNL     1      23.998   4.700  22.667  1.00  0.00     0.049 C 
HETATM   16  C17 UNL     1      23.552   4.122  20.287  1.00  0.00    -0.015 A 
HETATM   17  C18 UNL     1      22.237   4.838  20.172  1.00  0.00     0.057 C 
HETATM   18  S1  UNL     1      24.369   3.232  19.089  1.00  0.00    -0.095 SA
ENDBRANCH  11  12
ENDBRANCH  10  11
ENDBRANCH   7  10
ENDBRANCH   6   7
BRANCH   1  19
HETATM   19  O1  UNL     1      26.501  -0.369  16.685  1.00  0.00    -0.355 OA
HETATM   20  C1  UNL     1      25.206  -0.409  17.195  1.00  0.00     0.210 C 
ENDBRANCH   1  19
BRANCH   5  21
HETATM   21  O4  UNL     1      28.697   3.620  15.084  1.00  0.00    -0.359 OA
ATOM     22  H4  UNL     1      29.448   3.548  15.661  1.00  0.00     0.217 HD
ENDBRANCH   5  21
BRANCH   4  23
HETATM   23  C6  UNL     1      27.843   3.153  12.482  1.00  0.00     0.161 C 
HETATM   24  C7  UNL     1      29.165   3.226  11.863  1.00  0.00     0.097 C 
HETATM   25  O3  UNL     1      26.932   3.886  12.028  1.00  0.00    -0.293 OA
ENDBRANCH   4  23
BRANCH   3  26
HETATM   26  O2  UNL     1      26.323   0.897  12.081  1.00  0.00    -0.360 OA
ATOM     27  H2  UNL     1      26.673   0.173  11.576  1.00  0.00     0.217 HD
ENDBRANCH   3  26
TORSDOF 9
ENDMDL
MODEL 3
REMARK VINA RESULT: -7.741578424      8.783     12.665
REMARK  9 active torsions:
REMARK  status: ('A' for Active; 'I' for Inactive)
REMARK    1  A    between atoms: O1_2  and  C2_3 
REMARK    2  A    between atoms: C4_5  and  O2_6 
REMARK    3  A    between atoms: C5_8  and  C6_9 
REMARK    4  A    between atoms: C8_12  and  O4_13 
REMARK    5  A    between atoms: C9_15  and  C10_16 
REMARK    6  A    between atoms: C10_16  and  O5_17 
REMARK    7  A    between atoms: C10_16  and  C11_19 
REMARK    8  A    between atoms: C11_19  and  C12_20 
REMARK    9  A    between atoms: C12_20  and  C13_21 
ROOT
HETATM    1  C2  UNL     1      20.328   5.320  24.678  1.00  0.00     0.086 A 
HETATM    2  C3  UNL     1      20.138   4.461  25.768  1.00  0.00     0.075 A 
HETATM    3  C4  UNL     1      20.099   4.922  27.040  1.00  0.00     0.085 A 
HETATM    4  C5  UNL     1      20.243   6.260  27.331  1.00  0.00     0.077 A 
HETATM    5  C8  UNL     1      20.434   7.143  26.262  1.00  0.00     0.098 A 
HETATM    6  C9  UNL     1      20.476   6.655  24.913  1.00  0.00     0.065 A 
ENDROOT
BRANCH   6   7
HETATM    7  C10 UNL     1      20.675   7.632  23.875  1.00  0.00     0.081 C 
BRANCH   7   8
HETATM    8  O5  UNL     1      19.680   8.552  23.903  1.00  0.00    -0.360 OA
ATOM      9  H5  UNL     1      19.769   9.107  24.668  1.00  0.00     0.217 HD
ENDBRANCH   7   8
BRANCH   7  10
HETATM   10  C11 UNL     1      21.590   7.924  22.838  1.00  0.00     0.039 C 
BRANCH  10  11
HETATM   11  C12 UNL     1      22.059   7.459  21.751  1.00  0.00     0.021 C 
BRANCH  11  12
HETATM   12  C13 UNL     1      21.629   8.033  20.436  1.00  0.00     0.005 A 
HETATM   13  C14 UNL     1      22.235   8.017  19.221  1.00  0.00     0.026 A 
HETATM   14  C15 UNL     1      21.600   8.628  18.196  1.00  0.00    -0.048 A 
HETATM   15  C16 UNL     1      22.164   8.684  16.787  1.00  0.00     0.049 C 
HETATM   16  C17 UNL     1      20.399   9.214  18.461  1.00  0.00    -0.015 A 
HETATM   17  C18 UNL     1      19.484   9.954  17.528  1.00  0.00     0.057 C 
HETATM   18  S1  UNL     1      20.179   8.906  20.120  1.00  0.00    -0.095 SA
ENDBRANCH  11  12
ENDBRANCH  10  11
ENDBRANCH   7  10
ENDBRANCH   6   7
BRANCH   1  19
HETATM   19  O1  UNL     1      20.353   4.753  23.422  1.00  0.00    -0.355 OA
HETATM   20  C1  UNL     1      21.390   3.918  23.013  1.00  0.00     0.210 C 
ENDBRANCH   1  19
BRANCH   5  21
HETATM   21  O4  UNL     1      20.571   8.422  26.551  1.00  0.00    -0.359 OA
ATOM     22  H4  UNL     1      19.851   8.846  27.002  1.00  0.00     0.217 HD
ENDBRANCH   5  21
BRANCH   4  23
HETATM   23  C6  UNL     1      20.195   6.718  28.712  1.00  0.00     0.161 C 
HETATM   24  C7  UNL     1      18.968   7.143  29.381  1.00  0.00     0.097 C 
HETATM   25  O3  UNL     1      21.268   6.748  29.361  1.00  0.00    -0.293 OA
ENDBRANCH   4  23
BRANCH   3  26
HETATM   26  O2  UNL     1      19.909   4.047  28.126  1.00  0.00    -0.360 OA
ATOM     27  H2  UNL     1      19.259   3.354  28.090  1.00  0.00     0.217 HD
ENDBRANCH   3  26
TORSDOF 9
ENDMDL
MODEL 4
REMARK VINA RESULT: -7.537650338      4.992      8.033
REMARK  9 active torsions:
REMARK  status: ('A' for Active; 'I' for Inactive)
REMARK    1  A    between atoms: O1_2  and  C2_3 
REMARK    2  A    between atoms: C4_5  and  O2_6 
REMARK    3  A    between atoms: C5_8  and  C6_9 
REMARK    4  A    between atoms: C8_12  and  O4_13 
REMARK    5  A    between atoms: C9_15  and  C10_16 
REMARK    6  A    between atoms: C10_16  and  O5_17 
REMARK    7  A    between atoms: C10_16  and  C11_19 
REMARK    8  A    between atoms: C11_19  and  C12_20 
REMARK    9  A    between atoms: C12_20  and  C13_21 
ROOT
HETATM    1  C2  UNL     1      21.472   2.826  22.064  1.00  0.00     0.086 A 
HETATM    2  C3  UNL     1      21.851   1.775  21.219  1.00  0.00     0.075 A 
HETATM    3  C4  UNL     1      22.983   1.832  20.476  1.00  0.00     0.085 A 
HETATM    4  C5  UNL     1      23.819   2.925  20.512  1.00  0.00     0.077 A 
HETATM    5  C8  UNL     1      23.465   3.990  21.348  1.00  0.00     0.098 A 
HETATM    6  C9  UNL     1      22.267   3.931  22.135  1.00  0.00     0.065 A 
ENDROOT
BRANCH   6   7
HETATM    7  C10 UNL     1      21.980   5.070  22.967  1.00  0.00     0.081 C 
BRANCH   7   8
HETATM    8  O5  UNL     1      22.521   4.898  24.198  1.00  0.00    -0.360 OA
ATOM      9  H5  UNL     1      23.140   5.595  24.383  1.00  0.00     0.217 HD
ENDBRANCH   7   8
BRANCH   7  10
HETATM   10  C11 UNL     1      21.307   6.311  22.892  1.00  0.00     0.039 C 
BRANCH  10  11
HETATM   11  C12 UNL     1      21.486   7.534  22.591  1.00  0.00     0.021 C 
BRANCH  11  12
HETATM   12  C13 UNL     1      21.389   7.984  21.165  1.00  0.00     0.005 A 
HETATM   13  C14 UNL     1      20.461   8.752  20.539  1.00  0.00     0.026 A 
HETATM   14  C15 UNL     1      20.636   8.997  19.222  1.00  0.00    -0.048 A 
HETATM   15  C16 UNL     1      19.676   9.840  18.401  1.00  0.00     0.049 C 
HETATM   16  C17 UNL     1      21.731   8.452  18.622  1.00  0.00    -0.015 A 
HETATM   17  C18 UNL     1      22.172   8.556  17.189  1.00  0.00     0.057 C 
HETATM   18  S1  UNL     1      22.491   7.616  19.894  1.00  0.00    -0.095 SA
ENDBRANCH  11  12
ENDBRANCH  10  11
ENDBRANCH   7  10
ENDBRANCH   6   7
BRANCH   1  19
HETATM   19  O1  UNL     1      20.303   2.673  22.778  1.00  0.00    -0.355 OA
HETATM   20  C1  UNL     1      20.157   1.681  23.745  1.00  0.00     0.210 C 
ENDBRANCH   1  19
BRANCH   5  21
HETATM   21  O4  UNL     1      24.273   5.032  21.375  1.00  0.00    -0.359 OA
ATOM     22  H4  UNL     1      24.685   5.242  22.205  1.00  0.00     0.217 HD
ENDBRANCH   5  21
BRANCH   4  23
HETATM   23  C6  UNL     1      25.026   2.948  19.699  1.00  0.00     0.161 C 
HETATM   24  C7  UNL     1      26.301   2.372  20.125  1.00  0.00     0.097 C 
HETATM   25  O3  UNL     1      24.967   3.494  18.571  1.00  0.00    -0.293 OA
ENDBRANCH   4  23
BRANCH   3  26
HETATM   26  O2  UNL     1      23.352   0.769  19.631  1.00  0.00    -0.360 OA
ATOM     27  H2  UNL     1      24.121   0.241  19.813  1.00  0.00     0.217 HD
ENDBRANCH   3  26
TORSDOF 9
ENDMDL
MODEL 5
REMARK VINA RESULT: -7.499656323      0.893      1.350
REMARK  9 active torsions:
REMARK  status: ('A' for Active; 'I' for Inactive)
REMARK    1  A    between atoms: O1_2  and  C2_3 
REMARK    2  A    between atoms: C4_5  and  O2_6 
REMARK    3  A    between atoms: C5_8  and  C6_9 
REMARK    4  A    between atoms: C8_12  and  O4_13 
REMARK    5  A    between atoms: C9_15  and  C10_16 
REMARK    6  A    between atoms: C10_16  and  O5_17 
REMARK    7  A    between atoms: C10_16  and  C11_19 
REMARK    8  A    between atoms: C11_19  and  C12_20 
REMARK    9  A    between atoms: C12_20  and  C13_21 
ROOT
HETATM    1  C2  UNL     1      26.782   0.545  15.587  1.00  0.00     0.086 A 
HETATM    2  C3  UNL     1      26.451   0.220  14.266  1.00  0.00     0.075 A 
HETATM    3  C4  UNL     1      26.798   1.017  13.228  1.00  0.00     0.085 A 
HETATM    4  C5  UNL     1      27.497   2.189  13.416  1.00  0.00     0.077 A 
HETATM    5  C8  UNL     1      27.843   2.539  14.726  1.00  0.00     0.098 A 
HETATM    6  C9  UNL     1      27.474   1.695  15.827  1.00  0.00     0.065 A 
ENDROOT
BRANCH   6   7
HETATM    7  C10 UNL     1      27.871   2.131  17.139  1.00  0.00     0.081 C 
BRANCH   7   8
HETATM    8  O5  UNL     1      29.220   2.085  17.260  1.00  0.00    -0.360 OA
ATOM      9  H5  UNL     1      29.495   2.546  18.043  1.00  0.00     0.217 HD
ENDBRANCH   7   8
BRANCH   7  10
HETATM   10  C11 UNL     1      27.283   2.593  18.339  1.00  0.00     0.039 C 
BRANCH  10  11
HETATM   11  C12 UNL     1      26.302   3.271  18.782  1.00  0.00     0.021 C 
BRANCH  11  12
HETATM   12  C13 UNL     1      25.269   2.624  19.654  1.00  0.00     0.005 A 
HETATM   13  C14 UNL     1      25.400   1.753  20.686  1.00  0.00     0.026 A 
HETATM   14  C15 UNL     1      24.271   1.331  21.297  1.00  0.00    -0.048 A 
HETATM   15  C16 UNL     1      24.273   0.358  22.464  1.00  0.00     0.049 C 
HETATM   16  C17 UNL     1      23.085   1.813  20.828  1.00  0.00    -0.015 A 
HETATM   17  C18 UNL     1      21.692   1.520  21.308  1.00  0.00     0.057 C 
HETATM   18  S1  UNL     1      23.563   2.837  19.556  1.00  0.00    -0.095 SA
ENDBRANCH  11  12
ENDBRANCH  10  11
ENDBRANCH   7  10
ENDBRANCH   6   7
BRANCH   1  19
HETATM   19  O1  UNL     1      26.383  -0.331  16.573  1.00  0.00    -0.355 OA
HETATM   20  C1  UNL     1      25.114  -0.268  17.143  1.00  0.00     0.210 C 
ENDBRANCH   1  19
BRANCH   5  21
HETATM   21  O4  UNL     1      28.511   3.663  14.895  1.00  0.00    -0.359 OA
ATOM     22  H4  UNL     1      28.064   4.374  15.337  1.00  0.00     0.217 HD
ENDBRANCH   5  21
BRANCH   4  23
HETATM   23  C6  UNL     1      27.852   3.019  12.274  1.00  0.00     0.161 C 
HETATM   24  C7  UNL     1      29.139   2.939  11.584  1.00  0.00     0.097 C 
HETATM   25  O3  UNL     1      27.007   3.849  11.862  1.00  0.00    -0.293 OA
ENDBRANCH   4  23
BRANCH   3  26
HETATM   26  O2  UNL     1      26.457   0.679  11.904  1.00  0.00    -0.360 OA
ATOM     27  H2  UNL     1      25.753   1.126  11.449  1.00  0.00     0.217 HD
ENDBRANCH   3  26
TORSDOF 9
ENDMDL
