MODEL 1
REMARK VINA RESULT: -8.677507593      0.000      0.000
REMARK  7 active torsions:
REMARK  status: ('A' for Active; 'I' for Inactive)
REMARK    1  A    between atoms: C2_2  and  S1_3 
REMARK    2  A    between atoms: S1_3  and  C3_6 
REMARK    3  A    between atoms: C3_6  and  C4_7 
REMARK    4  A    between atoms: C5_9  and  C6_10 
REMARK    5  A    between atoms: C11_18  and  N2_19 
REMARK    6  A    between atoms: N2_19  and  N3_21 
REMARK    7  A    between atoms: C15_29  and  O5_30 
ROOT
HETATM    1  C6  UNL     1      23.211   4.622  21.122  1.00  0.00     0.059 A 
HETATM    2  C7  UNL     1      23.120   4.372  22.515  1.00  0.00     0.171 A 
HETATM    3  N1  UNL     1      23.650   3.188  23.106  1.00  0.00    -0.073 NA
HETATM    4  O4  UNL     1      22.521   5.362  23.084  1.00  0.00    -0.291 OA
HETATM    5  C8  UNL     1      22.193   6.283  22.203  1.00  0.00     0.127 A 
HETATM    6  C9  UNL     1      21.560   7.480  22.336  1.00  0.00     0.153 A 
HETATM    7  F1  UNL     1      21.126   7.961  23.517  1.00  0.00    -0.203 F 
HETATM    8  C10 UNL     1      21.361   8.222  21.171  1.00  0.00     0.076 A 
HETATM    9  C11 UNL     1      21.754   7.816  19.938  1.00  0.00     0.053 A 
HETATM   10  C12 UNL     1      22.391   6.604  19.832  1.00  0.00     0.046 A 
HETATM   11  C13 UNL     1      22.627   5.821  20.956  1.00  0.00     0.020 A 
ENDROOT
BRANCH   1  12
HETATM   12  C5  UNL     1      23.781   3.641  20.202  1.00  0.00     0.093 A 
HETATM   13  O3  UNL     1      25.050   3.285  19.998  1.00  0.00    -0.310 OA
HETATM   14  C4  UNL     1      25.146   2.348  19.116  1.00  0.00     0.100 A 
HETATM   15  C15 UNL     1      23.874   2.038  18.652  1.00  0.00     0.099 A 
HETATM   16  C14 UNL     1      23.026   2.856  19.338  1.00  0.00     0.077 A 
BRANCH  14  17
HETATM   17  C3  UNL     1      26.312   1.575  18.611  1.00  0.00     0.208 C 
BRANCH  17  18
HETATM   18  S1  UNL     1      27.611   2.409  17.822  1.00  0.00     0.150 S 
HETATM   19  O1  UNL     1      28.868   2.503  18.590  1.00  0.00    -0.228 OA
HETATM   20  O2  UNL     1      27.182   3.829  17.394  1.00  0.00    -0.228 OA
BRANCH  18  21
HETATM   21  C2  UNL     1      27.872   1.577  16.227  1.00  0.00     0.136 C 
HETATM   22  C1  UNL     1      29.026   0.652  16.418  1.00  0.00     0.021 C 
ENDBRANCH  18  21
ENDBRANCH  17  18
ENDBRANCH  14  17
BRANCH  15  23
HETATM   23  O5  UNL     1      23.488   1.103  17.685  1.00  0.00    -0.358 OA
ATOM     24  H5  UNL     1      23.698   1.075  16.759  1.00  0.00     0.217 HD
ENDBRANCH  15  23
ENDBRANCH   1  12
BRANCH   9  25
HETATM   25  N2  UNL     1      21.519   8.604  18.759  1.00  0.00    -0.287 N 
ATOM     26  H2  UNL     1      22.176   8.576  17.979  1.00  0.00     0.188 HD
BRANCH  25  27
HETATM   27  N3  UNL     1      20.499   9.322  18.706  1.00  0.00    -0.249 N 
HETATM   28  N4  UNL     1      19.743  10.016  17.971  1.00  0.00    -0.331 N 
ATOM     29  H42 UNL     1      20.149   9.953  17.038  1.00  0.00     0.178 HD
ATOM     30  H41 UNL     1      18.910  10.602  17.927  1.00  0.00     0.178 HD
ATOM     31  H3  UNL     1      20.117   9.365  19.650  1.00  0.00     0.207 HD
ENDBRANCH  25  27
ENDBRANCH   9  25
TORSDOF 7
ENDMDL
MODEL 2
REMARK VINA RESULT: -8.542888247      2.073      4.050
REMARK  7 active torsions:
REMARK  status: ('A' for Active; 'I' for Inactive)
REMARK    1  A    between atoms: C2_2  and  S1_3 
REMARK    2  A    between atoms: S1_3  and  C3_6 
REMARK    3  A    between atoms: C3_6  and  C4_7 
REMARK    4  A    between atoms: C5_9  and  C6_10 
REMARK    5  A    between atoms: C11_18  and  N2_19 
REMARK    6  A    between atoms: N2_19  and  N3_21 
REMARK    7  A    between atoms: C15_29  and  O5_30 
ROOT
HETATM    1  C6  UNL     1      22.627   5.768  21.290  1.00  0.00     0.059 A 
HETATM    2  C7  UNL     1      22.522   7.044  20.681  1.00  0.00     0.171 A 
HETATM    3  N1  UNL     1      23.018   7.298  19.368  1.00  0.00    -0.073 NA
HETATM    4  O4  UNL     1      21.921   7.850  21.488  1.00  0.00    -0.291 OA
HETATM    5  C8  UNL     1      21.596   7.239  22.608  1.00  0.00     0.127 A 
HETATM    6  C9  UNL     1      20.961   7.678  23.729  1.00  0.00     0.153 A 
HETATM    7  F1  UNL     1      20.519   8.941  23.883  1.00  0.00    -0.203 F 
HETATM    8  C10 UNL     1      20.779   6.750  24.755  1.00  0.00     0.076 A 
HETATM    9  C11 UNL     1      21.198   5.462  24.695  1.00  0.00     0.053 A 
HETATM   10  C12 UNL     1      21.835   5.045  23.552  1.00  0.00     0.046 A 
HETATM   11  C13 UNL     1      22.040   5.918  22.489  1.00  0.00     0.020 A 
ENDROOT
BRANCH   1  12
HETATM   12  C5  UNL     1      23.325   4.662  20.639  1.00  0.00     0.093 A 
HETATM   13  O3  UNL     1      24.569   4.212  20.801  1.00  0.00    -0.310 OA
HETATM   14  C4  UNL     1      24.805   3.182  20.061  1.00  0.00     0.100 A 
HETATM   15  C15 UNL     1      23.668   2.898  19.315  1.00  0.00     0.099 A 
HETATM   16  C14 UNL     1      22.747   3.834  19.684  1.00  0.00     0.077 A 
BRANCH  14  17
HETATM   17  C3  UNL     1      25.991   2.292  19.944  1.00  0.00     0.208 C 
BRANCH  17  18
HETATM   18  S1  UNL     1      27.089   2.506  18.619  1.00  0.00     0.150 S 
HETATM   19  O1  UNL     1      28.511   2.647  18.987  1.00  0.00    -0.228 OA
HETATM   20  O2  UNL     1      26.679   3.710  17.745  1.00  0.00    -0.228 OA
BRANCH  18  21
HETATM   21  C2  UNL     1      26.833   1.098  17.499  1.00  0.00     0.136 C 
HETATM   22  C1  UNL     1      26.479  -0.067  18.360  1.00  0.00     0.021 C 
ENDBRANCH  18  21
ENDBRANCH  17  18
ENDBRANCH  14  17
BRANCH  15  23
HETATM   23  O5  UNL     1      23.459   1.889  18.369  1.00  0.00    -0.358 OA
ATOM     24  H5  UNL     1      23.031   1.939  17.522  1.00  0.00     0.217 HD
ENDBRANCH  15  23
ENDBRANCH   1  12
BRANCH   9  25
HETATM   25  N2  UNL     1      21.003   4.538  25.779  1.00  0.00    -0.287 N 
ATOM     26  H2  UNL     1      20.222   3.882  25.766  1.00  0.00     0.188 HD
BRANCH  25  27
HETATM   27  N3  UNL     1      21.804   4.554  26.736  1.00  0.00    -0.249 N 
HETATM   28  N4  UNL     1      22.265   5.216  27.707  1.00  0.00    -0.331 N 
ATOM     29  H42 UNL     1      21.765   6.104  27.684  1.00  0.00     0.178 HD
ATOM     30  H41 UNL     1      22.920   5.228  28.489  1.00  0.00     0.178 HD
ATOM     31  H3  UNL     1      22.287   3.655  26.734  1.00  0.00     0.207 HD
ENDBRANCH  25  27
ENDBRANCH   9  25
TORSDOF 7
ENDMDL
MODEL 3
REMARK VINA RESULT: -8.409633260      2.195      4.224
REMARK  7 active torsions:
REMARK  status: ('A' for Active; 'I' for Inactive)
REMARK    1  A    between atoms: C2_2  and  S1_3 
REMARK    2  A    between atoms: S1_3  and  C3_6 
REMARK    3  A    between atoms: C3_6  and  C4_7 
REMARK    4  A    between atoms: C5_9  and  C6_10 
REMARK    5  A    between atoms: C11_18  and  N2_19 
REMARK    6  A    between atoms: N2_19  and  N3_21 
REMARK    7  A    between atoms: C15_29  and  O5_30 
ROOT
HETATM    1  C6  UNL     1      22.896   5.676  21.490  1.00  0.00     0.059 A 
HETATM    2  C7  UNL     1      22.635   6.833  20.713  1.00  0.00     0.171 A 
HETATM    3  N1  UNL     1      23.132   6.980  19.384  1.00  0.00    -0.073 NA
HETATM    4  O4  UNL     1      21.905   7.646  21.397  1.00  0.00    -0.291 OA
HETATM    5  C8  UNL     1      21.632   7.148  22.584  1.00  0.00     0.127 A 
HETATM    6  C9  UNL     1      20.909   7.638  23.628  1.00  0.00     0.153 A 
HETATM    7  F1  UNL     1      20.293   8.835  23.605  1.00  0.00    -0.203 F 
HETATM    8  C10 UNL     1      20.824   6.837  24.768  1.00  0.00     0.076 A 
HETATM    9  C11 UNL     1      21.418   5.624  24.887  1.00  0.00     0.053 A 
HETATM   10  C12 UNL     1      22.141   5.154  23.818  1.00  0.00     0.046 A 
HETATM   11  C13 UNL     1      22.257   5.899  22.650  1.00  0.00     0.020 A 
ENDROOT
BRANCH   1  12
HETATM   12  C5  UNL     1      23.759   4.603  21.002  1.00  0.00     0.093 A 
HETATM   13  O3  UNL     1      23.933   4.130  19.768  1.00  0.00    -0.310 OA
HETATM   14  C4  UNL     1      24.818   3.191  19.738  1.00  0.00     0.100 A 
HETATM   15  C15 UNL     1      25.282   2.971  21.029  1.00  0.00     0.099 A 
HETATM   16  C14 UNL     1      24.609   3.861  21.814  1.00  0.00     0.077 A 
BRANCH  14  17
HETATM   17  C3  UNL     1      25.409   2.418  18.613  1.00  0.00     0.208 C 
BRANCH  17  18
HETATM   18  S1  UNL     1      27.068   2.678  18.179  1.00  0.00     0.150 S 
HETATM   19  O1  UNL     1      28.037   2.596  19.289  1.00  0.00    -0.228 OA
HETATM   20  O2  UNL     1      27.249   4.031  17.459  1.00  0.00    -0.228 OA
BRANCH  18  21
HETATM   21  C2  UNL     1      27.458   1.477  16.872  1.00  0.00     0.136 C 
HETATM   22  C1  UNL     1      28.946   1.424  16.779  1.00  0.00     0.021 C 
ENDBRANCH  18  21
ENDBRANCH  17  18
ENDBRANCH  14  17
BRANCH  15  23
HETATM   23  O5  UNL     1      26.226   2.046  21.485  1.00  0.00    -0.358 OA
ATOM     24  H5  UNL     1      26.268   1.108  21.338  1.00  0.00     0.217 HD
ENDBRANCH  15  23
ENDBRANCH   1  12
BRANCH   9  25
HETATM   25  N2  UNL     1      21.318   4.833  26.083  1.00  0.00    -0.287 N 
ATOM     26  H2  UNL     1      20.753   3.984  26.097  1.00  0.00     0.188 HD
BRANCH  25  27
HETATM   27  N3  UNL     1      21.934   5.203  27.104  1.00  0.00    -0.249 N 
HETATM   28  N4  UNL     1      22.589   4.843  28.121  1.00  0.00    -0.331 N 
ATOM     29  H42 UNL     1      22.616   3.825  28.072  1.00  0.00     0.178 HD
ATOM     30  H41 UNL     1      23.092   5.145  28.955  1.00  0.00     0.178 HD
ATOM     31  H3  UNL     1      21.890   6.222  27.125  1.00  0.00     0.207 HD
ENDBRANCH  25  27
ENDBRANCH   9  25
TORSDOF 7
ENDMDL
MODEL 4
REMARK VINA RESULT: -8.262007357      5.416      8.866
REMARK  7 active torsions:
REMARK  status: ('A' for Active; 'I' for Inactive)
REMARK    1  A    between atoms: C2_2  and  S1_3 
REMARK    2  A    between atoms: S1_3  and  C3_6 
REMARK    3  A    between atoms: C3_6  and  C4_7 
REMARK    4  A    between atoms: C5_9  and  C6_10 
REMARK    5  A    between atoms: C11_18  and  N2_19 
REMARK    6  A    between atoms: N2_19  and  N3_21 
REMARK    7  A    between atoms: C15_29  and  O5_30 
ROOT
HETATM    1  C6  UNL     1      26.910   0.353  16.017  1.00  0.00     0.059 A 
HETATM    2  C7  UNL     1      26.642  -1.039  15.999  1.00  0.00     0.171 A 
HETATM    3  N1  UNL     1      26.344  -1.767  17.189  1.00  0.00    -0.073 NA
HETATM    4  O4  UNL     1      26.706  -1.467  14.785  1.00  0.00    -0.291 OA
HETATM    5  C8  UNL     1      26.991  -0.485  13.955  1.00  0.00     0.127 A 
HETATM    6  C9  UNL     1      27.156  -0.460  12.604  1.00  0.00     0.153 A 
HETATM    7  F1  UNL     1      27.040  -1.551  11.823  1.00  0.00    -0.203 F 
HETATM    8  C10 UNL     1      27.466   0.773  12.030  1.00  0.00     0.076 A 
HETATM    9  C11 UNL     1      27.614   1.922  12.735  1.00  0.00     0.053 A 
HETATM   10  C12 UNL     1      27.441   1.868  14.097  1.00  0.00     0.046 A 
HETATM   11  C13 UNL     1      27.122   0.672  14.729  1.00  0.00     0.020 A 
ENDROOT
BRANCH   1  12
HETATM   12  C5  UNL     1      26.977   1.106  17.267  1.00  0.00     0.093 A 
HETATM   13  O3  UNL     1      26.053   1.299  18.209  1.00  0.00    -0.310 OA
HETATM   14  C4  UNL     1      26.510   2.001  19.190  1.00  0.00     0.100 A 
HETATM   15  C15 UNL     1      27.829   2.344  18.918  1.00  0.00     0.099 A 
HETATM   16  C14 UNL     1      28.110   1.780  17.709  1.00  0.00     0.077 A 
BRANCH  14  17
HETATM   17  C3  UNL     1      25.906   2.409  20.486  1.00  0.00     0.208 C 
BRANCH  17  18
HETATM   18  S1  UNL     1      24.329   3.130  20.502  1.00  0.00     0.150 S 
HETATM   19  O1  UNL     1      23.258   2.331  19.877  1.00  0.00    -0.228 OA
HETATM   20  O2  UNL     1      24.350   4.530  19.852  1.00  0.00    -0.228 OA
BRANCH  18  21
HETATM   21  C2  UNL     1      23.946   3.506  22.239  1.00  0.00     0.136 C 
HETATM   22  C1  UNL     1      23.991   4.991  22.368  1.00  0.00     0.021 C 
ENDBRANCH  18  21
ENDBRANCH  17  18
ENDBRANCH  14  17
BRANCH  15  23
HETATM   23  O5  UNL     1      28.719   3.109  19.679  1.00  0.00    -0.358 OA
ATOM     24  H5  UNL     1      28.922   4.035  19.616  1.00  0.00     0.217 HD
ENDBRANCH  15  23
ENDBRANCH   1  12
BRANCH   9  25
HETATM   25  N2  UNL     1      27.947   3.172  12.108  1.00  0.00    -0.287 N 
ATOM     26  H2  UNL     1      28.781   3.254  11.528  1.00  0.00     0.188 HD
BRANCH  25  27
HETATM   27  N3  UNL     1      27.197   4.154  12.285  1.00  0.00    -0.249 N 
HETATM   28  N4  UNL     1      26.981   5.201  12.957  1.00  0.00    -0.331 N 
ATOM     29  H42 UNL     1      27.746   5.247  13.629  1.00  0.00     0.178 HD
ATOM     30  H41 UNL     1      26.368   6.003  13.102  1.00  0.00     0.178 HD
ATOM     31  H3  UNL     1      26.444   4.081  11.601  1.00  0.00     0.207 HD
ENDBRANCH  25  27
ENDBRANCH   9  25
TORSDOF 7
ENDMDL
MODEL 5
REMARK VINA RESULT: -8.176213263      2.255      4.331
REMARK  7 active torsions:
REMARK  status: ('A' for Active; 'I' for Inactive)
REMARK    1  A    between atoms: C2_2  and  S1_3 
REMARK    2  A    between atoms: S1_3  and  C3_6 
REMARK    3  A    between atoms: C3_6  and  C4_7 
REMARK    4  A    between atoms: C5_9  and  C6_10 
REMARK    5  A    between atoms: C11_18  and  N2_19 
REMARK    6  A    between atoms: N2_19  and  N3_21 
REMARK    7  A    between atoms: C15_29  and  O5_30 
ROOT
HETATM    1  C6  UNL     1      22.273   6.078  21.265  1.00  0.00     0.059 A 
HETATM    2  C7  UNL     1      22.159   7.334  20.617  1.00  0.00     0.171 A 
HETATM    3  N1  UNL     1      22.544   7.522  19.257  1.00  0.00    -0.073 NA
HETATM    4  O4  UNL     1      21.662   8.191  21.442  1.00  0.00    -0.291 OA
HETATM    5  C8  UNL     1      21.416   7.634  22.609  1.00  0.00     0.127 A 
HETATM    6  C9  UNL     1      20.900   8.137  23.763  1.00  0.00     0.153 A 
HETATM    7  F1  UNL     1      20.518   9.420  23.906  1.00  0.00    -0.203 F 
HETATM    8  C10 UNL     1      20.778   7.254  24.837  1.00  0.00     0.076 A 
HETATM    9  C11 UNL     1      21.145   5.949  24.791  1.00  0.00     0.053 A 
HETATM   10  C12 UNL     1      21.662   5.468  23.614  1.00  0.00     0.046 A 
HETATM   11  C13 UNL     1      21.802   6.293  22.504  1.00  0.00     0.020 A 
ENDROOT
BRANCH   1  12
HETATM   12  C5  UNL     1      22.871   4.923  20.599  1.00  0.00     0.093 A 
HETATM   13  O3  UNL     1      24.031   4.805  19.953  1.00  0.00    -0.310 OA
HETATM   14  C4  UNL     1      24.221   3.602  19.528  1.00  0.00     0.100 A 
HETATM   15  C15 UNL     1      23.121   2.827  19.875  1.00  0.00     0.099 A 
HETATM   16  C14 UNL     1      22.280   3.666  20.543  1.00  0.00     0.077 A 
BRANCH  14  17
HETATM   17  C3  UNL     1      25.372   2.961  18.837  1.00  0.00     0.208 C 
BRANCH  17  18
HETATM   18  S1  UNL     1      26.515   2.040  19.760  1.00  0.00     0.150 S 
HETATM   19  O1  UNL     1      26.406   2.174  21.225  1.00  0.00    -0.228 OA
HETATM   20  O2  UNL     1      27.963   2.367  19.337  1.00  0.00    -0.228 OA
BRANCH  18  21
HETATM   21  C2  UNL     1      26.332   0.309  19.238  1.00  0.00     0.136 C 
HETATM   22  C1  UNL     1      25.768   0.342  17.858  1.00  0.00     0.021 C 
ENDBRANCH  18  21
ENDBRANCH  17  18
ENDBRANCH  14  17
BRANCH  15  23
HETATM   23  O5  UNL     1      22.873   1.475  19.613  1.00  0.00    -0.358 OA
ATOM     24  H5  UNL     1      22.614   1.059  18.799  1.00  0.00     0.217 HD
ENDBRANCH  15  23
ENDBRANCH   1  12
BRANCH   9  25
HETATM   25  N2  UNL     1      21.015   5.074  25.924  1.00  0.00    -0.287 N 
ATOM     26  H2  UNL     1      20.220   4.439  25.999  1.00  0.00     0.188 HD
BRANCH  25  27
HETATM   27  N3  UNL     1      21.890   5.104  26.813  1.00  0.00    -0.249 N 
HETATM   28  N4  UNL     1      22.260   4.660  27.936  1.00  0.00    -0.331 N 
ATOM     29  H42 UNL     1      21.529   4.008  28.217  1.00  0.00     0.178 HD
ATOM     30  H41 UNL     1      22.975   4.685  28.662  1.00  0.00     0.178 HD
ATOM     31  H3  UNL     1      22.606   5.762  26.504  1.00  0.00     0.207 HD
ENDBRANCH  25  27
ENDBRANCH   9  25
TORSDOF 7
ENDMDL
