MODEL 1
REMARK VINA RESULT: -7.898494553      0.000      0.000
REMARK  6 active torsions:
REMARK  status: ('A' for Active; 'I' for Inactive)
REMARK    1  A    between atoms: C2_2  and  O1_3 
REMARK    2  A    between atoms: C2_2  and  C16_24 
REMARK    3  A    between atoms: O1_3  and  C3_4 
REMARK    4  A    between atoms: C5_7  and  O2_8 
REMARK    5  A    between atoms: C8_13  and  C9_14 
REMARK    6  A    between atoms: C9_14  and  C10_16 
ROOT
HETATM    1  C3  UNL     1      20.935   7.994  21.200  1.00  0.00     0.123 A 
HETATM    2  C4  UNL     1      20.565   8.898  20.216  1.00  0.00     0.183 A 
HETATM    3  F1  UNL     1      19.599   9.830  20.416  1.00  0.00    -0.200 F 
HETATM    4  C5  UNL     1      21.226   8.816  19.010  1.00  0.00     0.109 A 
HETATM    5  C6  UNL     1      22.205   7.881  18.786  1.00  0.00     0.078 A 
HETATM    6  C7  UNL     1      22.563   6.986  19.773  1.00  0.00     0.092 A 
HETATM    7  O3  UNL     1      23.445   6.017  19.820  1.00  0.00    -0.306 OA
HETATM    8  C8  UNL     1      23.455   5.407  20.971  1.00  0.00     0.128 A 
HETATM    9  C14 UNL     1      22.491   6.039  21.746  1.00  0.00     0.058 A 
HETATM   10  C15 UNL     1      21.913   7.046  21.004  1.00  0.00     0.037 A 
ENDROOT
BRANCH   8  11
HETATM   11  C9  UNL     1      24.325   4.286  21.338  1.00  0.00     0.218 C 
HETATM   12  O4  UNL     1      25.004   4.309  22.390  1.00  0.00    -0.284 OA
BRANCH  11  13
HETATM   13  C10 UNL     1      24.376   3.115  20.414  1.00  0.00     0.049 A 
HETATM   14  C11 UNL     1      25.357   2.910  19.524  1.00  0.00     0.025 A 
HETATM   15  C12 UNL     1      25.290   1.784  18.752  1.00  0.00     0.052 A 
HETATM   16  S1  UNL     1      23.862   1.036  19.283  1.00  0.00    -0.086 SA
HETATM   17  C13 UNL     1      23.382   2.165  20.470  1.00  0.00     0.101 A 
HETATM   18  N1  UNL     1      22.216   2.141  21.322  1.00  0.00    -0.093 NA
ENDBRANCH  11  13
ENDBRANCH   8  11
BRANCH   1  19
HETATM   19  O1  UNL     1      20.296   8.050  22.416  1.00  0.00    -0.341 OA
BRANCH  19  20
HETATM   20  C2  UNL     1      20.950   7.930  23.658  1.00  0.00     0.139 C 
HETATM   21  C1  UNL     1      21.157   9.255  24.339  1.00  0.00     0.041 C 
BRANCH  20  22
HETATM   22  C16 UNL     1      20.167   6.986  24.526  1.00  0.00     0.085 A 
HETATM   23  C17 UNL     1      20.341   7.009  26.026  1.00  0.00     0.092 A 
HETATM   24  S2  UNL     1      21.072   5.584  25.238  1.00  0.00    -0.160 SA
ENDBRANCH  20  22
ENDBRANCH  19  20
ENDBRANCH   1  19
BRANCH   4  25
HETATM   25  O2  UNL     1      20.895   9.691  18.003  1.00  0.00    -0.357 OA
ATOM     26  H2  UNL     1      20.449   9.363  17.231  1.00  0.00     0.217 HD
ENDBRANCH   4  25
TORSDOF 6
ENDMDL
MODEL 2
REMARK VINA RESULT: -7.858828503      8.387     11.486
REMARK  6 active torsions:
REMARK  status: ('A' for Active; 'I' for Inactive)
REMARK    1  A    between atoms: C2_2  and  O1_3 
REMARK    2  A    between atoms: C2_2  and  C16_24 
REMARK    3  A    between atoms: O1_3  and  C3_4 
REMARK    4  A    between atoms: C5_7  and  O2_8 
REMARK    5  A    between atoms: C8_13  and  C9_14 
REMARK    6  A    between atoms: C9_14  and  C10_16 
ROOT
HETATM    1  C3  UNL     1      27.186  -1.587  16.022  1.00  0.00     0.123 A 
HETATM    2  C4  UNL     1      27.167  -2.973  15.997  1.00  0.00     0.183 A 
HETATM    3  F1  UNL     1      27.209  -3.717  17.131  1.00  0.00    -0.200 F 
HETATM    4  C5  UNL     1      27.100  -3.576  14.761  1.00  0.00     0.109 A 
HETATM    5  C6  UNL     1      27.057  -2.843  13.602  1.00  0.00     0.078 A 
HETATM    6  C7  UNL     1      27.078  -1.464  13.639  1.00  0.00     0.092 A 
HETATM    7  O3  UNL     1      27.047  -0.546  12.704  1.00  0.00    -0.306 OA
HETATM    8  C8  UNL     1      27.087   0.662  13.189  1.00  0.00     0.128 A 
HETATM    9  C14 UNL     1      27.150   0.518  14.569  1.00  0.00     0.058 A 
HETATM   10  C15 UNL     1      27.144  -0.825  14.876  1.00  0.00     0.037 A 
ENDROOT
BRANCH   8  11
HETATM   11  C9  UNL     1      27.067   1.900  12.405  1.00  0.00     0.218 C 
HETATM   12  O4  UNL     1      26.262   2.057  11.458  1.00  0.00    -0.284 OA
BRANCH  11  13
HETATM   13  C10 UNL     1      28.041   2.971  12.771  1.00  0.00     0.049 A 
HETATM   14  C11 UNL     1      27.805   3.908  13.700  1.00  0.00     0.025 A 
HETATM   15  C12 UNL     1      28.793   4.818  13.951  1.00  0.00     0.052 A 
HETATM   16  S1  UNL     1      30.029   4.349  12.887  1.00  0.00    -0.086 SA
HETATM   17  C13 UNL     1      29.268   3.012  12.149  1.00  0.00     0.101 A 
HETATM   18  N1  UNL     1      29.776   2.137  11.117  1.00  0.00    -0.093 NA
ENDBRANCH  11  13
ENDBRANCH   8  11
BRANCH   1  19
HETATM   19  O1  UNL     1      27.250  -0.954  17.240  1.00  0.00    -0.341 OA
BRANCH  19  20
HETATM   20  C2  UNL     1      26.247  -0.099  17.740  1.00  0.00     0.139 C 
HETATM   21  C1  UNL     1      24.986  -0.830  18.107  1.00  0.00     0.041 C 
BRANCH  20  22
HETATM   22  C16 UNL     1      26.801   0.658  18.915  1.00  0.00     0.085 A 
HETATM   23  C17 UNL     1      26.091   1.886  19.432  1.00  0.00     0.092 A 
HETATM   24  S2  UNL     1      27.607   2.244  18.562  1.00  0.00    -0.160 SA
ENDBRANCH  20  22
ENDBRANCH  19  20
ENDBRANCH   1  19
BRANCH   4  25
HETATM   25  O2  UNL     1      27.078  -4.948  14.684  1.00  0.00    -0.357 OA
ATOM     26  H2  UNL     1      26.478  -5.369  14.080  1.00  0.00     0.217 HD
ENDBRANCH   4  25
TORSDOF 6
ENDMDL
MODEL 3
REMARK VINA RESULT: -7.688527986      2.254      5.833
REMARK  6 active torsions:
REMARK  status: ('A' for Active; 'I' for Inactive)
REMARK    1  A    between atoms: C2_2  and  O1_3 
REMARK    2  A    between atoms: C2_2  and  C16_24 
REMARK    3  A    between atoms: O1_3  and  C3_4 
REMARK    4  A    between atoms: C5_7  and  O2_8 
REMARK    5  A    between atoms: C8_13  and  C9_14 
REMARK    6  A    between atoms: C9_14  and  C10_16 
ROOT
HETATM    1  C3  UNL     1      22.399   6.889  21.370  1.00  0.00     0.123 A 
HETATM    2  C4  UNL     1      22.283   7.468  20.116  1.00  0.00     0.183 A 
HETATM    3  F1  UNL     1      23.144   7.182  19.106  1.00  0.00    -0.200 F 
HETATM    4  C5  UNL     1      21.247   8.355  19.929  1.00  0.00     0.109 A 
HETATM    5  C6  UNL     1      20.366   8.659  20.936  1.00  0.00     0.078 A 
HETATM    6  C7  UNL     1      20.492   8.077  22.181  1.00  0.00     0.092 A 
HETATM    7  O3  UNL     1      19.804   8.189  23.291  1.00  0.00    -0.306 OA
HETATM    8  C8  UNL     1      20.279   7.446  24.250  1.00  0.00     0.128 A 
HETATM    9  C14 UNL     1      21.378   6.788  23.714  1.00  0.00     0.058 A 
HETATM   10  C15 UNL     1      21.531   7.174  22.400  1.00  0.00     0.037 A 
ENDROOT
BRANCH   8  11
HETATM   11  C9  UNL     1      19.734   7.347  25.607  1.00  0.00     0.218 C 
HETATM   12  O4  UNL     1      18.801   8.091  25.988  1.00  0.00    -0.284 OA
BRANCH  11  13
HETATM   13  C10 UNL     1      20.330   6.331  26.523  1.00  0.00     0.049 A 
HETATM   14  C11 UNL     1      21.161   6.631  27.531  1.00  0.00     0.025 A 
HETATM   15  C12 UNL     1      21.619   5.603  28.306  1.00  0.00     0.052 A 
HETATM   16  S1  UNL     1      20.884   4.239  27.612  1.00  0.00    -0.086 SA
HETATM   17  C13 UNL     1      20.013   5.001  26.358  1.00  0.00     0.101 A 
HETATM   18  N1  UNL     1      19.157   4.405  25.358  1.00  0.00    -0.093 NA
ENDBRANCH  11  13
ENDBRANCH   8  11
BRANCH   1  19
HETATM   19  O1  UNL     1      23.423   5.998  21.590  1.00  0.00    -0.341 OA
BRANCH  19  20
HETATM   20  C2  UNL     1      23.328   4.612  21.352  1.00  0.00     0.139 C 
HETATM   21  C1  UNL     1      24.217   4.150  20.231  1.00  0.00     0.041 C 
BRANCH  20  22
HETATM   22  C16 UNL     1      23.635   3.882  22.630  1.00  0.00     0.085 A 
HETATM   23  C17 UNL     1      23.694   2.373  22.648  1.00  0.00     0.092 A 
HETATM   24  S2  UNL     1      22.248   3.047  23.449  1.00  0.00    -0.160 SA
ENDBRANCH  20  22
ENDBRANCH  19  20
ENDBRANCH   1  19
BRANCH   4  25
HETATM   25  O2  UNL     1      21.090   8.954  18.702  1.00  0.00    -0.357 OA
ATOM     26  H2  UNL     1      20.463   9.662  18.608  1.00  0.00     0.217 HD
ENDBRANCH   4  25
TORSDOF 6
ENDMDL
MODEL 4
REMARK VINA RESULT: -7.647287098      5.612      9.778
REMARK  6 active torsions:
REMARK  status: ('A' for Active; 'I' for Inactive)
REMARK    1  A    between atoms: C2_2  and  O1_3 
REMARK    2  A    between atoms: C2_2  and  C16_24 
REMARK    3  A    between atoms: O1_3  and  C3_4 
REMARK    4  A    between atoms: C5_7  and  O2_8 
REMARK    5  A    between atoms: C8_13  and  C9_14 
REMARK    6  A    between atoms: C9_14  and  C10_16 
ROOT
HETATM    1  C3  UNL     1      27.336   0.989  15.838  1.00  0.00     0.123 A 
HETATM    2  C4  UNL     1      27.049  -0.058  14.977  1.00  0.00     0.183 A 
HETATM    3  F1  UNL     1      27.657  -0.189  13.771  1.00  0.00    -0.200 F 
HETATM    4  C5  UNL     1      26.111  -0.975  15.396  1.00  0.00     0.109 A 
HETATM    5  C6  UNL     1      25.483  -0.861  16.611  1.00  0.00     0.078 A 
HETATM    6  C7  UNL     1      25.777   0.187  17.460  1.00  0.00     0.092 A 
HETATM    7  O3  UNL     1      25.334   0.523  18.647  1.00  0.00    -0.306 OA
HETATM    8  C8  UNL     1      25.890   1.611  19.097  1.00  0.00     0.128 A 
HETATM    9  C14 UNL     1      26.778   2.022  18.111  1.00  0.00     0.058 A 
HETATM   10  C15 UNL     1      26.723   1.130  17.063  1.00  0.00     0.037 A 
ENDROOT
BRANCH   8  11
HETATM   11  C9  UNL     1      25.611   2.244  20.389  1.00  0.00     0.218 C 
HETATM   12  O4  UNL     1      26.539   2.601  21.152  1.00  0.00    -0.284 OA
BRANCH  11  13
HETATM   13  C10 UNL     1      24.182   2.448  20.769  1.00  0.00     0.049 A 
HETATM   14  C11 UNL     1      23.431   1.518  21.374  1.00  0.00     0.025 A 
HETATM   15  C12 UNL     1      22.140   1.845  21.684  1.00  0.00     0.052 A 
HETATM   16  S1  UNL     1      22.001   3.441  21.124  1.00  0.00    -0.086 SA
HETATM   17  C13 UNL     1      23.579   3.659  20.511  1.00  0.00     0.101 A 
HETATM   18  N1  UNL     1      24.148   4.822  19.870  1.00  0.00    -0.093 NA
ENDBRANCH  11  13
ENDBRANCH   8  11
BRANCH   1  19
HETATM   19  O1  UNL     1      28.269   1.921  15.451  1.00  0.00    -0.341 OA
BRANCH  19  20
HETATM   20  C2  UNL     1      28.029   2.929  14.495  1.00  0.00     0.139 C 
HETATM   21  C1  UNL     1      27.791   4.278  15.116  1.00  0.00     0.041 C 
BRANCH  20  22
HETATM   22  C16 UNL     1      29.184   2.967  13.534  1.00  0.00     0.085 A 
HETATM   23  C17 UNL     1      29.279   4.065  12.502  1.00  0.00     0.092 A 
HETATM   24  S2  UNL     1      28.841   2.474  11.822  1.00  0.00    -0.160 SA
ENDBRANCH  20  22
ENDBRANCH  19  20
ENDBRANCH   1  19
BRANCH   4  25
HETATM   25  O2  UNL     1      25.793  -2.032  14.577  1.00  0.00    -0.357 OA
ATOM     26  H2  UNL     1      25.041  -2.572  14.788  1.00  0.00     0.217 HD
ENDBRANCH   4  25
TORSDOF 6
ENDMDL
MODEL 5
REMARK VINA RESULT: -7.633981509      2.906      4.445
REMARK  6 active torsions:
REMARK  status: ('A' for Active; 'I' for Inactive)
REMARK    1  A    between atoms: C2_2  and  O1_3 
REMARK    2  A    between atoms: C2_2  and  C16_24 
REMARK    3  A    between atoms: O1_3  and  C3_4 
REMARK    4  A    between atoms: C5_7  and  O2_8 
REMARK    5  A    between atoms: C8_13  and  C9_14 
REMARK    6  A    between atoms: C9_14  and  C10_16 
ROOT
HETATM    1  C3  UNL     1      20.056   6.119  24.753  1.00  0.00     0.123 A 
HETATM    2  C4  UNL     1      19.790   7.128  25.666  1.00  0.00     0.183 A 
HETATM    3  F1  UNL     1      19.027   6.922  26.769  1.00  0.00    -0.200 F 
HETATM    4  C5  UNL     1      20.338   8.365  25.410  1.00  0.00     0.109 A 
HETATM    5  C6  UNL     1      21.111   8.596  24.300  1.00  0.00     0.078 A 
HETATM    6  C7  UNL     1      21.368   7.584  23.398  1.00  0.00     0.092 A 
HETATM    7  O3  UNL     1      22.059   7.537  22.285  1.00  0.00    -0.306 OA
HETATM    8  C8  UNL     1      22.038   6.356  21.735  1.00  0.00     0.128 A 
HETATM    9  C14 UNL     1      21.263   5.560  22.568  1.00  0.00     0.058 A 
HETATM   10  C15 UNL     1      20.828   6.321  23.631  1.00  0.00     0.037 A 
ENDROOT
BRANCH   8  11
HETATM   11  C9  UNL     1      22.712   5.980  20.489  1.00  0.00     0.218 C 
HETATM   12  O4  UNL     1      22.826   6.792  19.541  1.00  0.00    -0.284 OA
BRANCH  11  13
HETATM   13  C10 UNL     1      23.256   4.594  20.384  1.00  0.00     0.049 A 
HETATM   14  C11 UNL     1      22.917   3.730  19.418  1.00  0.00     0.025 A 
HETATM   15  C12 UNL     1      23.507   2.497  19.430  1.00  0.00     0.052 A 
HETATM   16  S1  UNL     1      24.522   2.569  20.788  1.00  0.00    -0.086 SA
HETATM   17  C13 UNL     1      24.177   4.157  21.310  1.00  0.00     0.101 A 
HETATM   18  N1  UNL     1      24.709   4.871  22.447  1.00  0.00    -0.093 NA
ENDBRANCH  11  13
ENDBRANCH   8  11
BRANCH   1  19
HETATM   19  O1  UNL     1      19.525   4.872  24.980  1.00  0.00    -0.341 OA
BRANCH  19  20
HETATM   20  C2  UNL     1      20.177   3.857  25.709  1.00  0.00     0.139 C 
HETATM   21  C1  UNL     1      19.469   3.511  26.990  1.00  0.00     0.041 C 
BRANCH  20  22
HETATM   22  C16 UNL     1      20.326   2.650  24.825  1.00  0.00     0.085 A 
HETATM   23  C17 UNL     1      20.806   1.340  25.402  1.00  0.00     0.092 A 
HETATM   24  S2  UNL     1      22.017   2.164  24.382  1.00  0.00    -0.160 SA
ENDBRANCH  20  22
ENDBRANCH  19  20
ENDBRANCH   1  19
BRANCH   4  25
HETATM   25  O2  UNL     1      20.103   9.397  26.286  1.00  0.00    -0.357 OA
ATOM     26  H2  UNL     1      20.804   9.690  26.857  1.00  0.00     0.217 HD
ENDBRANCH   4  25
TORSDOF 6
ENDMDL
