MODEL 1
REMARK VINA RESULT: -8.009240113      0.000      0.000
REMARK  7 active torsions:
REMARK  status: ('A' for Active; 'I' for Inactive)
REMARK    1  A    between atoms: C2_2  and  C3_4 
REMARK    2  A    between atoms: C3_4  and  O5_15 
REMARK    3  A    between atoms: C4_5  and  C5_6 
REMARK    4  A    between atoms: C7_9  and  O3_10 
REMARK    5  A    between atoms: C8_12  and  O4_13 
REMARK    6  A    between atoms: O5_15  and  C9_16 
REMARK    7  A    between atoms: C9_16  and  C11_18 
ROOT
HETATM    1  C3  UNL     1      21.204   4.357  23.652  1.00  0.00     0.116 C 
HETATM    2  C4  UNL     1      21.003   5.110  24.709  1.00  0.00     0.057 C 
ENDROOT
BRANCH   1   3
HETATM    3  C2  UNL     1      21.108   2.938  23.678  1.00  0.00     0.178 C 
HETATM    4  C1  UNL     1      22.309   2.049  23.833  1.00  0.00     0.099 C 
HETATM    5  O1  UNL     1      20.028   2.258  23.576  1.00  0.00    -0.291 OA
ENDBRANCH   1   3
BRANCH   1   6
HETATM    6  O5  UNL     1      21.533   4.997  22.431  1.00  0.00    -0.338 OA
BRANCH   6   7
HETATM    7  C9  UNL     1      22.286   6.149  22.424  1.00  0.00     0.159 C 
HETATM    8  C10 UNL     1      23.600   5.824  21.690  1.00  0.00     0.045 C 
BRANCH   7   9
HETATM    9  C11 UNL     1      21.604   7.204  21.592  1.00  0.00    -0.007 A 
HETATM   10  C12 UNL     1      21.968   7.366  20.277  1.00  0.00     0.023 A 
HETATM   11  C13 UNL     1      21.384   8.330  19.447  1.00  0.00    -0.000 A 
HETATM   12  C14 UNL     1      20.409   9.154  19.944  1.00  0.00     0.081 A 
HETATM   13  C18 UNL     1      21.813   8.483  18.049  1.00  0.00     0.212 C 
HETATM   14  C15 UNL     1      20.047   8.996  21.247  1.00  0.00     0.061 A 
HETATM   15  O6  UNL     1      19.873  10.088  19.056  1.00  0.00    -0.326 OA
HETATM   16  C16 UNL     1      20.624   8.038  22.081  1.00  0.00     0.045 A 
HETATM   17 CL1  UNL     1      20.090   7.897  23.721  1.00  0.00    -0.084 Cl
HETATM   18  C17 UNL     1      19.820   9.644  17.687  1.00  0.00     0.345 C 
HETATM   19  O7  UNL     1      21.108   9.385  17.313  1.00  0.00    -0.362 OA
ENDBRANCH   7   9
ENDBRANCH   6   7
ENDBRANCH   1   6
BRANCH   2  20
HETATM   20  C5  UNL     1      20.674   4.773  26.058  1.00  0.00     0.027 A 
HETATM   21  C6  UNL     1      21.424   4.900  27.220  1.00  0.00     0.159 A 
HETATM   22  O2  UNL     1      20.767   4.460  28.256  1.00  0.00    -0.297 OA
HETATM   23  C7  UNL     1      19.594   4.033  27.866  1.00  0.00     0.218 A 
HETATM   24  C8  UNL     1      19.474   4.198  26.521  1.00  0.00     0.136 A 
BRANCH  23  25
HETATM   25  O3  UNL     1      18.622   3.492  28.718  1.00  0.00    -0.339 OA
ATOM     26  H3  UNL     1      18.711   2.666  29.180  1.00  0.00     0.220 HD
ENDBRANCH  23  25
BRANCH  24  27
HETATM   27  O4  UNL     1      18.416   3.887  25.707  1.00  0.00    -0.356 OA
ATOM     28  H4  UNL     1      17.755   3.239  25.924  1.00  0.00     0.218 HD
ENDBRANCH  24  27
ENDBRANCH   2  20
TORSDOF 7
ENDMDL
MODEL 2
REMARK VINA RESULT: -7.973064144      4.064      6.331
REMARK  7 active torsions:
REMARK  status: ('A' for Active; 'I' for Inactive)
REMARK    1  A    between atoms: C2_2  and  C3_4 
REMARK    2  A    between atoms: C3_4  and  O5_15 
REMARK    3  A    between atoms: C4_5  and  C5_6 
REMARK    4  A    between atoms: C7_9  and  O3_10 
REMARK    5  A    between atoms: C8_12  and  O4_13 
REMARK    6  A    between atoms: O5_15  and  C9_16 
REMARK    7  A    between atoms: C9_16  and  C11_18 
ROOT
HETATM    1  C3  UNL     1      24.059   3.264  20.175  1.00  0.00     0.116 C 
HETATM    2  C4  UNL     1      24.955   2.951  19.268  1.00  0.00     0.057 C 
ENDROOT
BRANCH   1   3
HETATM    3  C2  UNL     1      23.387   2.297  20.972  1.00  0.00     0.178 C 
HETATM    4  C1  UNL     1      23.947   1.792  22.272  1.00  0.00     0.099 C 
HETATM    5  O1  UNL     1      22.261   1.752  20.700  1.00  0.00    -0.291 OA
ENDBRANCH   1   3
BRANCH   1   6
HETATM    6  O5  UNL     1      23.750   4.636  20.360  1.00  0.00    -0.338 OA
BRANCH   6   7
HETATM    7  C9  UNL     1      23.075   5.056  21.484  1.00  0.00     0.159 C 
HETATM    8  C10 UNL     1      24.136   5.512  22.502  1.00  0.00     0.045 C 
BRANCH   7   9
HETATM    9  C11 UNL     1      22.262   6.284  21.165  1.00  0.00    -0.007 A 
HETATM   10  C12 UNL     1      22.361   6.855  19.919  1.00  0.00     0.023 A 
HETATM   11  C13 UNL     1      21.642   7.999  19.556  1.00  0.00    -0.000 A 
HETATM   12  C14 UNL     1      20.800   8.589  20.461  1.00  0.00     0.081 A 
HETATM   13  C18 UNL     1      21.787   8.590  18.217  1.00  0.00     0.212 C 
HETATM   14  C15 UNL     1      20.701   8.027  21.697  1.00  0.00     0.061 A 
HETATM   15  O6  UNL     1      20.115   9.726  20.025  1.00  0.00    -0.326 OA
HETATM   16  C16 UNL     1      21.414   6.886  22.068  1.00  0.00     0.045 A 
HETATM   17 CL1  UNL     1      21.213   6.229  23.656  1.00  0.00    -0.084 Cl
HETATM   18  C17 UNL     1      19.784   9.718  18.625  1.00  0.00     0.345 C 
HETATM   19  O7  UNL     1      20.967   9.642  17.946  1.00  0.00    -0.362 OA
ENDBRANCH   7   9
ENDBRANCH   6   7
ENDBRANCH   1   6
BRANCH   2  20
HETATM   20  C5  UNL     1      25.466   1.685  18.845  1.00  0.00     0.027 A 
HETATM   21  C6  UNL     1      26.730   1.132  19.004  1.00  0.00     0.159 A 
HETATM   22  O2  UNL     1      26.800  -0.048  18.456  1.00  0.00    -0.297 OA
HETATM   23  C7  UNL     1      25.642  -0.340  17.923  1.00  0.00     0.218 A 
HETATM   24  C8  UNL     1      24.775   0.688  18.128  1.00  0.00     0.136 A 
BRANCH  23  25
HETATM   25  O3  UNL     1      25.356  -1.535  17.249  1.00  0.00    -0.339 OA
ATOM     26  H3  UNL     1      25.169  -1.597  16.320  1.00  0.00     0.220 HD
ENDBRANCH  23  25
BRANCH  24  27
HETATM   27  O4  UNL     1      23.465   0.799  17.741  1.00  0.00    -0.356 OA
ATOM     28  H4  UNL     1      22.988   0.112  17.288  1.00  0.00     0.218 HD
ENDBRANCH  24  27
ENDBRANCH   2  20
TORSDOF 7
ENDMDL
MODEL 3
REMARK VINA RESULT: -7.893934878      1.934      7.854
REMARK  7 active torsions:
REMARK  status: ('A' for Active; 'I' for Inactive)
REMARK    1  A    between atoms: C2_2  and  C3_4 
REMARK    2  A    between atoms: C3_4  and  O5_15 
REMARK    3  A    between atoms: C4_5  and  C5_6 
REMARK    4  A    between atoms: C7_9  and  O3_10 
REMARK    5  A    between atoms: C8_12  and  O4_13 
REMARK    6  A    between atoms: O5_15  and  C9_16 
REMARK    7  A    between atoms: C9_16  and  C11_18 
ROOT
HETATM    1  C3  UNL     1      22.281   6.249  21.659  1.00  0.00     0.116 C 
HETATM    2  C4  UNL     1      21.753   7.394  21.291  1.00  0.00     0.057 C 
ENDROOT
BRANCH   1   3
HETATM    3  C2  UNL     1      22.894   5.346  20.747  1.00  0.00     0.178 C 
HETATM    4  C1  UNL     1      22.169   4.165  20.168  1.00  0.00     0.099 C 
HETATM    5  O1  UNL     1      24.098   5.418  20.317  1.00  0.00    -0.291 OA
ENDBRANCH   1   3
BRANCH   1   6
HETATM    6  O5  UNL     1      22.232   5.903  23.033  1.00  0.00    -0.338 OA
BRANCH   6   7
HETATM    7  C9  UNL     1      21.047   5.514  23.616  1.00  0.00     0.159 C 
HETATM    8  C10 UNL     1      21.062   3.976  23.682  1.00  0.00     0.045 C 
BRANCH   7   9
HETATM    9  C11 UNL     1      20.999   5.984  25.047  1.00  0.00    -0.007 A 
HETATM   10  C12 UNL     1      21.364   5.121  26.053  1.00  0.00     0.023 A 
HETATM   11  C13 UNL     1      21.336   5.486  27.403  1.00  0.00    -0.000 A 
HETATM   12  C14 UNL     1      20.935   6.746  27.759  1.00  0.00     0.081 A 
HETATM   13  C18 UNL     1      21.718   4.528  28.452  1.00  0.00     0.212 C 
HETATM   14  C15 UNL     1      20.573   7.603  26.765  1.00  0.00     0.061 A 
HETATM   15  O6  UNL     1      20.937   7.037  29.125  1.00  0.00    -0.326 OA
HETATM   16  C16 UNL     1      20.597   7.247  25.416  1.00  0.00     0.045 A 
HETATM   17 CL1  UNL     1      20.135   8.407  24.217  1.00  0.00    -0.084 Cl
HETATM   18  C17 UNL     1      21.965   6.363  29.874  1.00  0.00     0.345 C 
HETATM   19  O7  UNL     1      21.746   5.024  29.720  1.00  0.00    -0.362 OA
ENDBRANCH   7   9
ENDBRANCH   6   7
ENDBRANCH   1   6
BRANCH   2  20
HETATM   20  C5  UNL     1      21.636   8.009  20.007  1.00  0.00     0.027 A 
HETATM   21  C6  UNL     1      22.457   7.914  18.891  1.00  0.00     0.159 A 
HETATM   22  O2  UNL     1      22.011   8.649  17.913  1.00  0.00    -0.297 OA
HETATM   23  C7  UNL     1      20.915   9.251  18.298  1.00  0.00     0.218 A 
HETATM   24  C8  UNL     1      20.630   8.899  19.581  1.00  0.00     0.136 A 
BRANCH  23  25
HETATM   25  O3  UNL     1      20.164  10.122  17.498  1.00  0.00    -0.339 OA
ATOM     26  H3  UNL     1      19.545  10.762  17.831  1.00  0.00     0.220 HD
ENDBRANCH  23  25
BRANCH  24  27
HETATM   27  O4  UNL     1      19.580   9.295  20.368  1.00  0.00    -0.356 OA
ATOM     28  H4  UNL     1      19.062   8.699  20.896  1.00  0.00     0.218 HD
ENDBRANCH  24  27
ENDBRANCH   2  20
TORSDOF 7
ENDMDL
MODEL 4
REMARK VINA RESULT: -7.848493343      4.353      7.255
REMARK  7 active torsions:
REMARK  status: ('A' for Active; 'I' for Inactive)
REMARK    1  A    between atoms: C2_2  and  C3_4 
REMARK    2  A    between atoms: C3_4  and  O5_15 
REMARK    3  A    between atoms: C4_5  and  C5_6 
REMARK    4  A    between atoms: C7_9  and  O3_10 
REMARK    5  A    between atoms: C8_12  and  O4_13 
REMARK    6  A    between atoms: O5_15  and  C9_16 
REMARK    7  A    between atoms: C9_16  and  C11_18 
ROOT
HETATM    1  C3  UNL     1      24.738   3.127  20.933  1.00  0.00     0.116 C 
HETATM    2  C4  UNL     1      25.150   2.930  19.703  1.00  0.00     0.057 C 
ENDROOT
BRANCH   1   3
HETATM    3  C2  UNL     1      24.632   2.085  21.896  1.00  0.00     0.178 C 
HETATM    4  C1  UNL     1      23.312   1.622  22.445  1.00  0.00     0.099 C 
HETATM    5  O1  UNL     1      25.609   1.428  22.400  1.00  0.00    -0.291 OA
ENDBRANCH   1   3
BRANCH   1   6
HETATM    6  O5  UNL     1      24.382   4.446  21.314  1.00  0.00    -0.338 OA
BRANCH   6   7
HETATM    7  C9  UNL     1      23.468   5.164  20.578  1.00  0.00     0.159 C 
HETATM    8  C10 UNL     1      22.533   4.145  19.900  1.00  0.00     0.045 C 
BRANCH   7   9
HETATM    9  C11 UNL     1      22.590   5.974  21.497  1.00  0.00    -0.007 A 
HETATM   10  C12 UNL     1      22.311   5.498  22.756  1.00  0.00     0.023 A 
HETATM   11  C13 UNL     1      21.498   6.192  23.659  1.00  0.00    -0.000 A 
HETATM   12  C14 UNL     1      20.950   7.393  23.296  1.00  0.00     0.081 A 
HETATM   13  C18 UNL     1      21.210   5.642  24.992  1.00  0.00     0.212 C 
HETATM   14  C15 UNL     1      21.223   7.867  22.049  1.00  0.00     0.061 A 
HETATM   15  O6  UNL     1      20.152   8.027  24.252  1.00  0.00    -0.326 OA
HETATM   16  C16 UNL     1      22.033   7.182  21.142  1.00  0.00     0.045 A 
HETATM   17 CL1  UNL     1      22.341   7.867  19.583  1.00  0.00    -0.084 Cl
HETATM   18  C17 UNL     1      20.561   7.797  25.612  1.00  0.00     0.345 C 
HETATM   19  O7  UNL     1      20.488   6.448  25.818  1.00  0.00    -0.362 OA
ENDBRANCH   7   9
ENDBRANCH   6   7
ENDBRANCH   1   6
BRANCH   2  20
HETATM   20  C5  UNL     1      25.562   1.741  19.025  1.00  0.00     0.027 A 
HETATM   21  C6  UNL     1      26.799   1.110  18.997  1.00  0.00     0.159 A 
HETATM   22  O2  UNL     1      26.770   0.049  18.242  1.00  0.00    -0.297 OA
HETATM   23  C7  UNL     1      25.569  -0.086  17.743  1.00  0.00     0.218 A 
HETATM   24  C8  UNL     1      24.776   0.926  18.187  1.00  0.00     0.136 A 
BRANCH  23  25
HETATM   25  O3  UNL     1      25.177  -1.122  16.884  1.00  0.00    -0.339 OA
ATOM     26  H3  UNL     1      24.746  -1.921  17.166  1.00  0.00     0.220 HD
ENDBRANCH  23  25
BRANCH  24  27
HETATM   27  O4  UNL     1      23.454   1.166  17.914  1.00  0.00    -0.356 OA
ATOM     28  H4  UNL     1      22.807   0.481  17.788  1.00  0.00     0.218 HD
ENDBRANCH  24  27
ENDBRANCH   2  20
TORSDOF 7
ENDMDL
MODEL 5
REMARK VINA RESULT: -7.805031352      3.200      4.146
REMARK  7 active torsions:
REMARK  status: ('A' for Active; 'I' for Inactive)
REMARK    1  A    between atoms: C2_2  and  C3_4 
REMARK    2  A    between atoms: C3_4  and  O5_15 
REMARK    3  A    between atoms: C4_5  and  C5_6 
REMARK    4  A    between atoms: C7_9  and  O3_10 
REMARK    5  A    between atoms: C8_12  and  O4_13 
REMARK    6  A    between atoms: O5_15  and  C9_16 
REMARK    7  A    between atoms: C9_16  and  C11_18 
ROOT
HETATM    1  C3  UNL     1      22.436   3.168  22.281  1.00  0.00     0.116 C 
HETATM    2  C4  UNL     1      23.319   3.002  23.237  1.00  0.00     0.057 C 
ENDROOT
BRANCH   1   3
HETATM    3  C2  UNL     1      21.955   2.102  21.471  1.00  0.00     0.178 C 
HETATM    4  C1  UNL     1      20.582   1.515  21.639  1.00  0.00     0.099 C 
HETATM    5  O1  UNL     1      22.603   1.526  20.529  1.00  0.00    -0.291 OA
ENDBRANCH   1   3
BRANCH   1   6
HETATM    6  O5  UNL     1      21.943   4.478  22.049  1.00  0.00    -0.338 OA
BRANCH   6   7
HETATM    7  C9  UNL     1      22.807   5.515  21.784  1.00  0.00     0.159 C 
HETATM    8  C10 UNL     1      23.714   5.062  20.625  1.00  0.00     0.045 C 
BRANCH   7   9
HETATM    9  C11 UNL     1      22.041   6.703  21.262  1.00  0.00    -0.007 A 
HETATM   10  C12 UNL     1      22.182   7.072  19.946  1.00  0.00     0.023 A 
HETATM   11  C13 UNL     1      21.508   8.167  19.395  1.00  0.00    -0.000 A 
HETATM   12  C14 UNL     1      20.670   8.914  20.179  1.00  0.00     0.081 A 
HETATM   13  C18 UNL     1      21.699   8.541  17.985  1.00  0.00     0.212 C 
HETATM   14  C15 UNL     1      20.528   8.551  21.484  1.00  0.00     0.061 A 
HETATM   15  O6  UNL     1      20.031   9.990  19.558  1.00  0.00    -0.326 OA
HETATM   16  C16 UNL     1      21.196   7.461  22.041  1.00  0.00     0.045 A 
HETATM   17 CL1  UNL     1      20.943   7.061  23.706  1.00  0.00    -0.084 Cl
HETATM   18  C17 UNL     1      19.727   9.776  18.167  1.00  0.00     0.345 C 
HETATM   19  O7  UNL     1      20.919   9.562  17.537  1.00  0.00    -0.362 OA
ENDBRANCH   7   9
ENDBRANCH   6   7
ENDBRANCH   1   6
BRANCH   2  20
HETATM   20  C5  UNL     1      24.000   1.834  23.700  1.00  0.00     0.027 A 
HETATM   21  C6  UNL     1      23.815   1.090  24.858  1.00  0.00     0.159 A 
HETATM   22  O2  UNL     1      24.656   0.097  24.920  1.00  0.00    -0.297 OA
HETATM   23  C7  UNL     1      25.417   0.117  23.857  1.00  0.00     0.218 A 
HETATM   24  C8  UNL     1      25.064   1.164  23.064  1.00  0.00     0.136 A 
BRANCH  23  25
HETATM   25  O3  UNL     1      26.436  -0.809  23.592  1.00  0.00    -0.339 OA
ATOM     26  H3  UNL     1      27.352  -0.677  23.807  1.00  0.00     0.220 HD
ENDBRANCH  23  25
BRANCH  24  27
HETATM   27  O4  UNL     1      25.597   1.551  21.862  1.00  0.00    -0.356 OA
ATOM     28  H4  UNL     1      26.341   2.137  21.778  1.00  0.00     0.218 HD
ENDBRANCH  24  27
ENDBRANCH   2  20
TORSDOF 7
ENDMDL
