MODEL 1
REMARK VINA RESULT: -8.473140605      0.000      0.000
REMARK  6 active torsions:
REMARK  status: ('A' for Active; 'I' for Inactive)
REMARK    1  A    between atoms: O1_2  and  C2_3 
REMARK    2  A    between atoms: C4_5  and  N1_6 
REMARK    3  A    between atoms: C5_8  and  C6_9 
REMARK    4  A    between atoms: C7_10  and  O2_11 
REMARK    5  A    between atoms: C12_18  and  O3_19 
REMARK    6  A    between atoms: C18_28  and  O6_29 
ROOT
HETATM    1  C6  UNL     1      23.238   5.373  21.255  1.00  0.00     0.089 A 
HETATM    2  C7  UNL     1      22.856   5.054  22.558  1.00  0.00     0.096 A 
HETATM    3  C8  UNL     1      21.998   5.917  23.189  1.00  0.00     0.038 A 
HETATM    4  C9  UNL     1      21.551   5.694  24.494  1.00  0.00     0.059 A 
HETATM    5  C10 UNL     1      20.687   6.575  25.111  1.00  0.00     0.120 A 
HETATM    6  F1  UNL     1      20.263   6.347  26.373  1.00  0.00    -0.206 F 
HETATM    7  C11 UNL     1      20.230   7.717  24.456  1.00  0.00     0.081 A 
HETATM    8  C12 UNL     1      20.675   7.929  23.169  1.00  0.00     0.103 A 
HETATM    9  C13 UNL     1      21.538   7.057  22.541  1.00  0.00     0.125 A 
HETATM   10  O4  UNL     1      21.945   7.287  21.316  1.00  0.00    -0.271 OA
HETATM   11  C14 UNL     1      22.749   6.521  20.661  1.00  0.00     0.302 A 
HETATM   12  O5  UNL     1      23.096   6.819  19.466  1.00  0.00    -0.259 OA
ENDROOT
BRANCH   1  13
HETATM   13  C5  UNL     1      24.148   4.501  20.524  1.00  0.00     0.108 C 
HETATM   14  N1  UNL     1      23.797   3.308  20.282  1.00  0.00    -0.365 N 
ATOM     15  H1  UNL     1      22.881   3.009  20.617  1.00  0.00     0.165 HD
BRANCH  14  16
HETATM   16  C4  UNL     1      24.582   2.358  19.582  1.00  0.00     0.035 A 
HETATM   17  C3  UNL     1      24.127   1.111  19.228  1.00  0.00     0.069 A 
HETATM   18  C2  UNL     1      24.942   0.230  18.545  1.00  0.00     0.104 A 
HETATM   19  C18 UNL     1      26.236   0.547  18.186  1.00  0.00     0.107 A 
HETATM   20  C16 UNL     1      26.694   1.799  18.541  1.00  0.00    -0.024 A 
HETATM   21  C15 UNL     1      25.874   2.687  19.228  1.00  0.00     0.039 A 
HETATM   22  C17 UNL     1      28.095   2.169  18.164  1.00  0.00     0.051 C 
BRANCH  18  23
HETATM   23  O1  UNL     1      24.490  -1.041  18.180  1.00  0.00    -0.353 OA
HETATM   24  C1  UNL     1      24.756  -2.124  19.054  1.00  0.00     0.210 C 
ENDBRANCH  18  23
BRANCH  19  25
HETATM   25  O6  UNL     1      27.030  -0.366  17.498  1.00  0.00    -0.353 OA
HETATM   26  C19 UNL     1      26.906  -0.388  16.082  1.00  0.00     0.210 C 
ENDBRANCH  19  25
ENDBRANCH  14  16
ENDBRANCH   1  13
BRANCH   2  27
HETATM   27  O2  UNL     1      23.308   3.927  23.205  1.00  0.00    -0.359 OA
ATOM     28  H2  UNL     1      22.915   3.609  24.009  1.00  0.00     0.217 HD
ENDBRANCH   2  27
BRANCH   8  29
HETATM   29  O3  UNL     1      20.224   9.064  22.512  1.00  0.00    -0.358 OA
ATOM     30  H3  UNL     1      20.829   9.501  21.924  1.00  0.00     0.217 HD
ENDBRANCH   8  29
TORSDOF 6
ENDMDL
MODEL 2
REMARK VINA RESULT: -8.468785940      1.739      2.349
REMARK  6 active torsions:
REMARK  status: ('A' for Active; 'I' for Inactive)
REMARK    1  A    between atoms: O1_2  and  C2_3 
REMARK    2  A    between atoms: C4_5  and  N1_6 
REMARK    3  A    between atoms: C5_8  and  C6_9 
REMARK    4  A    between atoms: C7_10  and  O2_11 
REMARK    5  A    between atoms: C12_18  and  O3_19 
REMARK    6  A    between atoms: C18_28  and  O6_29 
ROOT
HETATM    1  C6  UNL     1      21.992   4.016  21.472  1.00  0.00     0.089 A 
HETATM    2  C7  UNL     1      22.212   5.384  21.642  1.00  0.00     0.096 A 
HETATM    3  C8  UNL     1      21.535   6.005  22.659  1.00  0.00     0.038 A 
HETATM    4  C9  UNL     1      21.681   7.370  22.918  1.00  0.00     0.059 A 
HETATM    5  C10 UNL     1      20.992   7.977  23.948  1.00  0.00     0.120 A 
HETATM    6  F1  UNL     1      21.143   9.298  24.187  1.00  0.00    -0.206 F 
HETATM    7  C11 UNL     1      20.127   7.252  24.766  1.00  0.00     0.081 A 
HETATM    8  C12 UNL     1      19.990   5.906  24.503  1.00  0.00     0.103 A 
HETATM    9  C13 UNL     1      20.673   5.287  23.478  1.00  0.00     0.125 A 
HETATM   10  O4  UNL     1      20.520   4.005  23.253  1.00  0.00    -0.271 OA
HETATM   11  C14 UNL     1      21.121   3.354  22.316  1.00  0.00     0.302 A 
HETATM   12  O5  UNL     1      20.916   2.100  22.166  1.00  0.00    -0.259 OA
ENDROOT
BRANCH   1  13
HETATM   13  C5  UNL     1      22.676   3.290  20.410  1.00  0.00     0.108 C 
HETATM   14  N1  UNL     1      23.643   2.528  20.710  1.00  0.00    -0.365 N 
ATOM     15  H1  UNL     1      23.902   2.458  21.694  1.00  0.00     0.165 HD
BRANCH  14  16
HETATM   16  C4  UNL     1      24.392   1.766  19.779  1.00  0.00     0.035 A 
HETATM   17  C3  UNL     1      24.078   0.475  19.428  1.00  0.00     0.069 A 
HETATM   18  C2  UNL     1      24.848  -0.216  18.513  1.00  0.00     0.104 A 
HETATM   19  C18 UNL     1      25.957   0.342  17.910  1.00  0.00     0.107 A 
HETATM   20  C16 UNL     1      26.273   1.638  18.262  1.00  0.00    -0.024 A 
HETATM   21  C15 UNL     1      25.498   2.334  19.183  1.00  0.00     0.039 A 
HETATM   22  C17 UNL     1      27.472   2.267  17.623  1.00  0.00     0.051 C 
BRANCH  18  23
HETATM   23  O1  UNL     1      24.537  -1.529  18.149  1.00  0.00    -0.353 OA
HETATM   24  C1  UNL     1      24.874  -2.571  19.047  1.00  0.00     0.210 C 
ENDBRANCH  18  23
BRANCH  19  25
HETATM   25  O6  UNL     1      26.710  -0.383  16.992  1.00  0.00    -0.353 OA
HETATM   26  C19 UNL     1      26.264  -0.374  15.642  1.00  0.00     0.210 C 
ENDBRANCH  19  25
ENDBRANCH  14  16
ENDBRANCH   1  13
BRANCH   2  27
HETATM   27  O2  UNL     1      23.064   6.099  20.834  1.00  0.00    -0.359 OA
ATOM     28  H2  UNL     1      24.010   6.035  20.908  1.00  0.00     0.217 HD
ENDBRANCH   2  27
BRANCH   8  29
HETATM   29  O3  UNL     1      19.130   5.178  25.313  1.00  0.00    -0.358 OA
ATOM     30  H3  UNL     1      19.378   4.286  25.527  1.00  0.00     0.217 HD
ENDBRANCH   8  29
TORSDOF 6
ENDMDL
MODEL 3
REMARK VINA RESULT: -8.353580493      0.834      2.009
REMARK  6 active torsions:
REMARK  status: ('A' for Active; 'I' for Inactive)
REMARK    1  A    between atoms: O1_2  and  C2_3 
REMARK    2  A    between atoms: C4_5  and  N1_6 
REMARK    3  A    between atoms: C5_8  and  C6_9 
REMARK    4  A    between atoms: C7_10  and  O2_11 
REMARK    5  A    between atoms: C12_18  and  O3_19 
REMARK    6  A    between atoms: C18_28  and  O6_29 
ROOT
HETATM    1  C6  UNL     1      23.300   5.312  21.290  1.00  0.00     0.089 A 
HETATM    2  C7  UNL     1      22.905   5.052  22.603  1.00  0.00     0.096 A 
HETATM    3  C8  UNL     1      22.025   5.932  23.178  1.00  0.00     0.038 A 
HETATM    4  C9  UNL     1      21.564   5.766  24.486  1.00  0.00     0.059 A 
HETATM    5  C10 UNL     1      20.678   6.663  25.048  1.00  0.00     0.120 A 
HETATM    6  F1  UNL     1      20.240   6.491  26.313  1.00  0.00    -0.206 F 
HETATM    7  C11 UNL     1      20.211   7.763  24.330  1.00  0.00     0.081 A 
HETATM    8  C12 UNL     1      20.671   7.918  23.040  1.00  0.00     0.103 A 
HETATM    9  C13 UNL     1      21.556   7.030  22.468  1.00  0.00     0.125 A 
HETATM   10  O4  UNL     1      21.976   7.205  21.238  1.00  0.00    -0.271 OA
HETATM   11  C14 UNL     1      22.801   6.421  20.633  1.00  0.00     0.302 A 
HETATM   12  O5  UNL     1      23.159   6.664  19.429  1.00  0.00    -0.259 OA
ENDROOT
BRANCH   1  13
HETATM   13  C5  UNL     1      24.234   4.421  20.615  1.00  0.00     0.108 C 
HETATM   14  N1  UNL     1      24.078   3.168  20.725  1.00  0.00    -0.365 N 
ATOM     15  H1  UNL     1      23.296   2.838  21.290  1.00  0.00     0.165 HD
BRANCH  14  16
HETATM   16  C4  UNL     1      24.910   2.192  20.122  1.00  0.00     0.035 A 
HETATM   17  C3  UNL     1      26.035   2.499  19.395  1.00  0.00     0.069 A 
HETATM   18  C2  UNL     1      26.806   1.501  18.832  1.00  0.00     0.104 A 
HETATM   19  C18 UNL     1      26.495   0.163  18.964  1.00  0.00     0.107 A 
HETATM   20  C16 UNL     1      25.365  -0.146  19.693  1.00  0.00    -0.024 A 
HETATM   21  C15 UNL     1      24.588   0.858  20.261  1.00  0.00     0.039 A 
HETATM   22  C17 UNL     1      25.003  -1.590  19.851  1.00  0.00     0.051 C 
BRANCH  18  23
HETATM   23  O1  UNL     1      27.953   1.802  18.092  1.00  0.00    -0.353 OA
HETATM   24  C1  UNL     1      27.790   2.317  16.783  1.00  0.00     0.210 C 
ENDBRANCH  18  23
BRANCH  19  25
HETATM   25  O6  UNL     1      27.294  -0.816  18.383  1.00  0.00    -0.353 OA
HETATM   26  C19 UNL     1      26.930  -1.255  17.080  1.00  0.00     0.210 C 
ENDBRANCH  19  25
ENDBRANCH  14  16
ENDBRANCH   1  13
BRANCH   2  27
HETATM   27  O2  UNL     1      23.366   3.967  23.310  1.00  0.00    -0.359 OA
ATOM     28  H2  UNL     1      23.884   4.058  24.102  1.00  0.00     0.217 HD
ENDBRANCH   2  27
BRANCH   8  29
HETATM   29  O3  UNL     1      20.210   9.011  22.321  1.00  0.00    -0.358 OA
ATOM     30  H3  UNL     1      20.855   9.544  21.870  1.00  0.00     0.217 HD
ENDBRANCH   8  29
TORSDOF 6
ENDMDL
MODEL 4
REMARK VINA RESULT: -8.284731164      4.182      6.229
REMARK  6 active torsions:
REMARK  status: ('A' for Active; 'I' for Inactive)
REMARK    1  A    between atoms: O1_2  and  C2_3 
REMARK    2  A    between atoms: C4_5  and  N1_6 
REMARK    3  A    between atoms: C5_8  and  C6_9 
REMARK    4  A    between atoms: C7_10  and  O2_11 
REMARK    5  A    between atoms: C12_18  and  O3_19 
REMARK    6  A    between atoms: C18_28  and  O6_29 
ROOT
HETATM    1  C6  UNL     1      21.887   6.866  21.359  1.00  0.00     0.089 A 
HETATM    2  C7  UNL     1      22.454   6.863  20.084  1.00  0.00     0.096 A 
HETATM    3  C8  UNL     1      22.005   7.806  19.196  1.00  0.00     0.038 A 
HETATM    4  C9  UNL     1      22.505   7.891  17.894  1.00  0.00     0.059 A 
HETATM    5  C10 UNL     1      22.041   8.849  17.015  1.00  0.00     0.120 A 
HETATM    6  F1  UNL     1      22.532   8.920  15.760  1.00  0.00    -0.206 F 
HETATM    7  C11 UNL     1      21.060   9.763  17.394  1.00  0.00     0.081 A 
HETATM    8  C12 UNL     1      20.573   9.671  18.681  1.00  0.00     0.103 A 
HETATM    9  C13 UNL     1      21.028   8.720  19.568  1.00  0.00     0.125 A 
HETATM   10  O4  UNL     1      20.545   8.658  20.786  1.00  0.00    -0.271 OA
HETATM   11  C14 UNL     1      20.917   7.800  21.673  1.00  0.00     0.302 A 
HETATM   12  O5  UNL     1      20.394   7.809  22.841  1.00  0.00    -0.259 OA
ENDROOT
BRANCH   1  13
HETATM   13  C5  UNL     1      22.314   5.892  22.355  1.00  0.00     0.108 C 
HETATM   14  N1  UNL     1      21.969   4.681  22.219  1.00  0.00    -0.365 N 
ATOM     15  H1  UNL     1      21.398   4.441  21.409  1.00  0.00     0.165 HD
BRANCH  14  16
HETATM   16  C4  UNL     1      22.316   3.635  23.110  1.00  0.00     0.035 A 
HETATM   17  C3  UNL     1      23.411   2.823  22.937  1.00  0.00     0.069 A 
HETATM   18  C2  UNL     1      23.696   1.820  23.843  1.00  0.00     0.104 A 
HETATM   19  C18 UNL     1      22.911   1.581  24.953  1.00  0.00     0.107 A 
HETATM   20  C16 UNL     1      21.812   2.396  25.127  1.00  0.00    -0.024 A 
HETATM   21  C15 UNL     1      21.524   3.406  24.216  1.00  0.00     0.039 A 
HETATM   22  C17 UNL     1      20.943   2.159  26.323  1.00  0.00     0.051 C 
BRANCH  18  23
HETATM   23  O1  UNL     1      24.807   0.988  23.677  1.00  0.00    -0.353 OA
HETATM   24  C1  UNL     1      24.850   0.146  22.539  1.00  0.00     0.210 C 
ENDBRANCH  18  23
BRANCH  19  25
HETATM   25  O6  UNL     1      23.229   0.562  25.844  1.00  0.00    -0.353 OA
HETATM   26  C19 UNL     1      22.718  -0.732  25.552  1.00  0.00     0.210 C 
ENDBRANCH  19  25
ENDBRANCH  14  16
ENDBRANCH   1  13
BRANCH   2  27
HETATM   27  O2  UNL     1      23.422   5.960  19.710  1.00  0.00    -0.359 OA
ATOM     28  H2  UNL     1      23.898   6.034  18.891  1.00  0.00     0.217 HD
ENDBRANCH   2  27
BRANCH   8  29
HETATM   29  O3  UNL     1      19.596  10.578  19.064  1.00  0.00    -0.358 OA
ATOM     30  H3  UNL     1      19.379  10.626  19.988  1.00  0.00     0.217 HD
ENDBRANCH   8  29
TORSDOF 6
ENDMDL
MODEL 5
REMARK VINA RESULT: -8.263498780      3.929      8.929
REMARK  6 active torsions:
REMARK  status: ('A' for Active; 'I' for Inactive)
REMARK    1  A    between atoms: O1_2  and  C2_3 
REMARK    2  A    between atoms: C4_5  and  N1_6 
REMARK    3  A    between atoms: C5_8  and  C6_9 
REMARK    4  A    between atoms: C7_10  and  O2_11 
REMARK    5  A    between atoms: C12_18  and  O3_19 
REMARK    6  A    between atoms: C18_28  and  O6_29 
ROOT
HETATM    1  C6  UNL     1      25.316   1.489  19.434  1.00  0.00     0.089 A 
HETATM    2  C7  UNL     1      25.159   0.809  18.226  1.00  0.00     0.096 A 
HETATM    3  C8  UNL     1      26.253   0.735  17.402  1.00  0.00     0.038 A 
HETATM    4  C9  UNL     1      26.207   0.079  16.170  1.00  0.00     0.059 A 
HETATM    5  C10 UNL     1      27.319   0.014  15.356  1.00  0.00     0.120 A 
HETATM    6  F1  UNL     1      27.260  -0.623  14.167  1.00  0.00    -0.206 F 
HETATM    7  C11 UNL     1      28.526   0.601  15.733  1.00  0.00     0.081 A 
HETATM    8  C12 UNL     1      28.562   1.246  16.950  1.00  0.00     0.103 A 
HETATM    9  C13 UNL     1      27.459   1.317  17.773  1.00  0.00     0.125 A 
HETATM   10  O4  UNL     1      27.525   1.939  18.925  1.00  0.00    -0.271 OA
HETATM   11  C14 UNL     1      26.539   2.049  19.750  1.00  0.00     0.302 A 
HETATM   12  O5  UNL     1      26.689   2.673  20.857  1.00  0.00    -0.259 OA
ENDROOT
BRANCH   1  13
HETATM   13  C5  UNL     1      24.196   1.608  20.359  1.00  0.00     0.108 C 
HETATM   14  N1  UNL     1      23.891   2.751  20.813  1.00  0.00    -0.365 N 
ATOM     15  H1  UNL     1      24.452   3.546  20.506  1.00  0.00     0.165 HD
BRANCH  14  16
HETATM   16  C4  UNL     1      22.828   3.007  21.715  1.00  0.00     0.035 A 
HETATM   17  C3  UNL     1      21.786   2.137  21.925  1.00  0.00     0.069 A 
HETATM   18  C2  UNL     1      20.779   2.444  22.819  1.00  0.00     0.104 A 
HETATM   19  C18 UNL     1      20.764   3.621  23.540  1.00  0.00     0.107 A 
HETATM   20  C16 UNL     1      21.811   4.495  23.329  1.00  0.00    -0.024 A 
HETATM   21  C15 UNL     1      22.825   4.187  22.429  1.00  0.00     0.039 A 
HETATM   22  C17 UNL     1      21.819   5.780  24.097  1.00  0.00     0.051 C 
BRANCH  18  23
HETATM   23  O1  UNL     1      19.714   1.567  23.041  1.00  0.00    -0.353 OA
HETATM   24  C1  UNL     1      19.208   0.836  21.939  1.00  0.00     0.210 C 
ENDBRANCH  18  23
BRANCH  19  25
HETATM   25  O6  UNL     1      19.734   3.898  24.432  1.00  0.00    -0.353 OA
HETATM   26  C19 UNL     1      19.873   3.392  25.754  1.00  0.00     0.210 C 
ENDBRANCH  19  25
ENDBRANCH  14  16
ENDBRANCH   1  13
BRANCH   2  27
HETATM   27  O2  UNL     1      23.968   0.231  17.854  1.00  0.00    -0.359 OA
ATOM     28  H2  UNL     1      23.685   0.185  16.948  1.00  0.00     0.217 HD
ENDBRANCH   2  27
BRANCH   8  29
HETATM   29  O3  UNL     1      29.760   1.832  17.331  1.00  0.00    -0.358 OA
ATOM     30  H3  UNL     1      29.728   2.721  17.665  1.00  0.00     0.217 HD
ENDBRANCH   8  29
TORSDOF 6
ENDMDL
