MODEL 1
REMARK VINA RESULT: -7.258517006      0.000      0.000
REMARK  7 active torsions:
REMARK  status: ('A' for Active; 'I' for Inactive)
REMARK    1  A    between atoms: C2_2  and  O2_4 
REMARK    2  A    between atoms: O2_4  and  C3_5 
REMARK    3  A    between atoms: C3_5  and  C4_6 
REMARK    4  A    between atoms: C11_15  and  O5_16 
REMARK    5  A    between atoms: C15_21  and  C16_22 
REMARK    6  A    between atoms: C16_22  and  C17_23 
REMARK    7  A    between atoms: C17_23  and  O6_24 
ROOT
HETATM    1  C4  UNL     1      24.062   3.551  18.336  1.00  0.00     0.071 C 
HETATM    2  C5  UNL     1      22.929   3.192  19.199  1.00  0.00     0.159 C 
HETATM    3  O3  UNL     1      22.981   1.816  19.545  1.00  0.00    -0.374 OA
HETATM    4  C6  UNL     1      24.060   1.448  20.328  1.00  0.00     0.165 C 
HETATM    5  C7  UNL     1      23.858   1.641  21.792  1.00  0.00     0.186 A 
HETATM    6  O4  UNL     1      23.981   2.833  22.446  1.00  0.00    -0.367 OA
HETATM    7  C8  UNL     1      22.703   2.342  22.253  1.00  0.00     0.089 A 
HETATM    8  C9  UNL     1      22.007   1.805  23.514  1.00  0.00     0.049 C 
HETATM    9  C10 UNL     1      21.766   2.996  21.311  1.00  0.00     0.074 C 
HETATM   10  C11 UNL     1      22.478   3.968  20.342  1.00  0.00     0.150 C 
HETATM   11  C12 UNL     1      25.344   1.865  19.741  1.00  0.00     0.014 C 
HETATM   12  C13 UNL     1      26.315   2.608  20.558  1.00  0.00     0.020 C 
HETATM   13  C14 UNL     1      26.179   0.678  19.191  1.00  0.00     0.046 C 
HETATM   14  C15 UNL     1      26.943   1.443  18.101  1.00  0.00     0.125 C 
HETATM   15  O7  UNL     1      26.298   2.646  17.892  1.00  0.00    -0.379 OA
HETATM   16  C18 UNL     1      25.057   2.442  18.370  1.00  0.00     0.141 C 
ENDROOT
BRANCH   1  17
HETATM   17  C3  UNL     1      24.676   4.891  18.465  1.00  0.00     0.188 C 
BRANCH  17  18
HETATM   18  O2  UNL     1      23.980   5.969  17.910  1.00  0.00    -0.321 OA
BRANCH  18  19
HETATM   19  C2  UNL     1      24.509   6.931  17.090  1.00  0.00     0.254 C 
HETATM   20  C1  UNL     1      23.998   7.220  15.721  1.00  0.00     0.126 C 
HETATM   21  O1  UNL     1      25.479   7.614  17.506  1.00  0.00    -0.266 OA
ENDBRANCH  18  19
ENDBRANCH  17  18
ENDBRANCH   1  17
BRANCH  10  22
HETATM   22  O5  UNL     1      23.318   4.675  21.121  1.00  0.00    -0.393 OA
ATOM     23  H5  UNL     1      23.149   5.574  21.376  1.00  0.00     0.210 HD
ENDBRANCH  10  22
BRANCH  14  24
HETATM   24  C16 UNL     1      27.082   0.607  16.868  1.00  0.00     0.058 C 
BRANCH  24  25
HETATM   25  C17 UNL     1      28.567   0.594  16.503  1.00  0.00     0.166 C 
BRANCH  25  26
HETATM   26  O6  UNL     1      29.270   1.545  17.236  1.00  0.00    -0.401 OA
ATOM     27  H6  UNL     1      28.828   2.386  17.214  1.00  0.00     0.209 HD
ENDBRANCH  25  26
ENDBRANCH  24  25
ENDBRANCH  14  24
TORSDOF 7
ENDMDL
MODEL 2
REMARK VINA RESULT: -7.202550011      1.634      1.823
REMARK  7 active torsions:
REMARK  status: ('A' for Active; 'I' for Inactive)
REMARK    1  A    between atoms: C2_2  and  O2_4 
REMARK    2  A    between atoms: O2_4  and  C3_5 
REMARK    3  A    between atoms: C3_5  and  C4_6 
REMARK    4  A    between atoms: C11_15  and  O5_16 
REMARK    5  A    between atoms: C15_21  and  C16_22 
REMARK    6  A    between atoms: C16_22  and  C17_23 
REMARK    7  A    between atoms: C17_23  and  O6_24 
ROOT
HETATM    1  C4  UNL     1      23.275   3.839  19.315  1.00  0.00     0.071 C 
HETATM    2  C5  UNL     1      22.206   3.324  20.179  1.00  0.00     0.159 C 
HETATM    3  O3  UNL     1      22.315   1.916  20.324  1.00  0.00    -0.374 OA
HETATM    4  C6  UNL     1      23.449   1.480  20.987  1.00  0.00     0.165 C 
HETATM    5  C7  UNL     1      23.329   1.460  22.472  1.00  0.00     0.186 A 
HETATM    6  O4  UNL     1      23.458   2.553  23.281  1.00  0.00    -0.367 OA
HETATM    7  C8  UNL     1      22.185   2.048  23.091  1.00  0.00     0.089 A 
HETATM    8  C9  UNL     1      21.579   1.316  24.299  1.00  0.00     0.049 C 
HETATM    9  C10 UNL     1      21.176   2.795  22.303  1.00  0.00     0.074 C 
HETATM   10  C11 UNL     1      21.803   3.917  21.444  1.00  0.00     0.150 C 
HETATM   11  C12 UNL     1      24.684   2.020  20.396  1.00  0.00     0.014 C 
HETATM   12  C13 UNL     1      25.681   2.674  21.254  1.00  0.00     0.020 C 
HETATM   13  C14 UNL     1      25.517   0.951  19.638  1.00  0.00     0.046 C 
HETATM   14  C15 UNL     1      26.193   1.886  18.627  1.00  0.00     0.125 C 
HETATM   15  O7  UNL     1      25.505   3.084  18.625  1.00  0.00    -0.379 OA
HETATM   16  C18 UNL     1      24.301   2.772  19.137  1.00  0.00     0.141 C 
ENDROOT
BRANCH   1  17
HETATM   17  C3  UNL     1      23.860   5.168  19.599  1.00  0.00     0.188 C 
BRANCH  17  18
HETATM   18  O2  UNL     1      23.247   6.276  19.005  1.00  0.00    -0.321 OA
BRANCH  18  19
HETATM   19  C2  UNL     1      22.450   7.191  19.642  1.00  0.00     0.254 C 
HETATM   20  C1  UNL     1      21.533   8.124  18.928  1.00  0.00     0.126 C 
HETATM   21  O1  UNL     1      22.485   7.255  20.897  1.00  0.00    -0.266 OA
ENDBRANCH  18  19
ENDBRANCH  17  18
ENDBRANCH   1  17
BRANCH  10  22
HETATM   22  O5  UNL     1      22.668   4.537  22.268  1.00  0.00    -0.393 OA
ATOM     23  H5  UNL     1      22.419   4.864  23.124  1.00  0.00     0.210 HD
ENDBRANCH  10  22
BRANCH  14  24
HETATM   24  C16 UNL     1      26.282   1.236  17.283  1.00  0.00     0.058 C 
BRANCH  24  25
HETATM   25  C17 UNL     1      27.530   1.795  16.597  1.00  0.00     0.166 C 
BRANCH  25  26
HETATM   26  O6  UNL     1      27.374   3.145  16.301  1.00  0.00    -0.401 OA
ATOM     27  H6  UNL     1      27.329   3.664  17.094  1.00  0.00     0.209 HD
ENDBRANCH  25  26
ENDBRANCH  24  25
ENDBRANCH  14  24
TORSDOF 7
ENDMDL
MODEL 3
REMARK VINA RESULT: -7.125612459      2.161      4.860
REMARK  7 active torsions:
REMARK  status: ('A' for Active; 'I' for Inactive)
REMARK    1  A    between atoms: C2_2  and  O2_4 
REMARK    2  A    between atoms: O2_4  and  C3_5 
REMARK    3  A    between atoms: C3_5  and  C4_6 
REMARK    4  A    between atoms: C11_15  and  O5_16 
REMARK    5  A    between atoms: C15_21  and  C16_22 
REMARK    6  A    between atoms: C16_22  and  C17_23 
REMARK    7  A    between atoms: C17_23  and  O6_24 
ROOT
HETATM    1  C4  UNL     1      24.116   1.113  21.094  1.00  0.00     0.071 C 
HETATM    2  C5  UNL     1      23.932   2.338  21.882  1.00  0.00     0.159 C 
HETATM    3  O3  UNL     1      24.805   3.361  21.427  1.00  0.00    -0.374 OA
HETATM    4  C6  UNL     1      24.561   3.813  20.142  1.00  0.00     0.165 C 
HETATM    5  C7  UNL     1      23.526   4.880  20.047  1.00  0.00     0.186 A 
HETATM    6  O4  UNL     1      22.177   4.663  20.066  1.00  0.00    -0.367 OA
HETATM    7  C8  UNL     1      22.751   5.209  21.199  1.00  0.00     0.089 A 
HETATM    8  C9  UNL     1      22.442   6.695  21.443  1.00  0.00     0.049 C 
HETATM    9  C10 UNL     1      22.858   4.429  22.455  1.00  0.00     0.074 C 
HETATM   10  C11 UNL     1      22.644   2.914  22.234  1.00  0.00     0.150 C 
HETATM   11  C12 UNL     1      24.523   2.715  19.162  1.00  0.00     0.014 C 
HETATM   12  C13 UNL     1      23.386   2.600  18.237  1.00  0.00     0.020 C 
HETATM   13  C14 UNL     1      25.753   2.697  18.216  1.00  0.00     0.046 C 
HETATM   14  C15 UNL     1      25.774   1.190  17.924  1.00  0.00     0.125 C 
HETATM   15  O7  UNL     1      24.985   0.561  18.868  1.00  0.00    -0.379 OA
HETATM   16  C18 UNL     1      24.919   1.442  19.882  1.00  0.00     0.141 C 
ENDROOT
BRANCH   1  17
HETATM   17  C3  UNL     1      22.946   0.255  20.804  1.00  0.00     0.188 C 
BRANCH  17  18
HETATM   18  O2  UNL     1      22.562  -0.657  21.791  1.00  0.00    -0.321 OA
BRANCH  18  19
HETATM   19  C2  UNL     1      21.346  -0.694  22.422  1.00  0.00     0.254 C 
HETATM   20  C1  UNL     1      21.016  -1.643  23.522  1.00  0.00     0.126 C 
HETATM   21  O1  UNL     1      20.451   0.113  22.061  1.00  0.00    -0.266 OA
ENDBRANCH  18  19
ENDBRANCH  17  18
ENDBRANCH   1  17
BRANCH  10  22
HETATM   22  O5  UNL     1      21.566   2.833  21.432  1.00  0.00    -0.393 OA
ATOM     23  H5  UNL     1      20.728   3.221  21.655  1.00  0.00     0.210 HD
ENDBRANCH  10  22
BRANCH  14  24
HETATM   24  C16 UNL     1      27.180   0.681  17.873  1.00  0.00     0.058 C 
BRANCH  24  25
HETATM   25  C17 UNL     1      27.946   1.581  16.902  1.00  0.00     0.166 C 
BRANCH  25  26
HETATM   26  O6  UNL     1      29.317   1.494  17.118  1.00  0.00    -0.401 OA
ATOM     27  H6  UNL     1      29.680   2.341  17.348  1.00  0.00     0.209 HD
ENDBRANCH  25  26
ENDBRANCH  24  25
ENDBRANCH  14  24
TORSDOF 7
ENDMDL
MODEL 4
REMARK VINA RESULT: -7.091061493      1.714      5.351
REMARK  7 active torsions:
REMARK  status: ('A' for Active; 'I' for Inactive)
REMARK    1  A    between atoms: C2_2  and  O2_4 
REMARK    2  A    between atoms: O2_4  and  C3_5 
REMARK    3  A    between atoms: C3_5  and  C4_6 
REMARK    4  A    between atoms: C11_15  and  O5_16 
REMARK    5  A    between atoms: C15_21  and  C16_22 
REMARK    6  A    between atoms: C16_22  and  C17_23 
REMARK    7  A    between atoms: C17_23  and  O6_24 
ROOT
HETATM    1  C4  UNL     1      25.212   2.859  19.648  1.00  0.00     0.071 C 
HETATM    2  C5  UNL     1      26.528   2.371  19.217  1.00  0.00     0.159 C 
HETATM    3  O3  UNL     1      26.747   1.048  19.683  1.00  0.00    -0.374 OA
HETATM    4  C6  UNL     1      25.902   0.091  19.149  1.00  0.00     0.165 C 
HETATM    5  C7  UNL     1      26.347  -0.470  17.843  1.00  0.00     0.186 A 
HETATM    6  O4  UNL     1      26.175   0.139  16.633  1.00  0.00    -0.367 OA
HETATM    7  C8  UNL     1      27.452   0.127  17.164  1.00  0.00     0.089 A 
HETATM    8  C9  UNL     1      28.446  -0.815  16.467  1.00  0.00     0.049 C 
HETATM    9  C10 UNL     1      28.086   1.371  17.661  1.00  0.00     0.074 C 
HETATM   10  C11 UNL     1      27.068   2.514  17.875  1.00  0.00     0.150 C 
HETATM   11  C12 UNL     1      24.483   0.448  19.307  1.00  0.00     0.014 C 
HETATM   12  C13 UNL     1      23.585   0.410  18.144  1.00  0.00     0.020 C 
HETATM   13  C14 UNL     1      23.743  -0.430  20.352  1.00  0.00     0.046 C 
HETATM   14  C15 UNL     1      22.682   0.595  20.778  1.00  0.00     0.125 C 
HETATM   15  O7  UNL     1      23.091   1.840  20.340  1.00  0.00    -0.379 OA
HETATM   16  C18 UNL     1      24.416   1.704  20.152  1.00  0.00     0.141 C 
ENDROOT
BRANCH   1  17
HETATM   17  C3  UNL     1      24.442   3.753  18.755  1.00  0.00     0.188 C 
BRANCH  17  18
HETATM   18  O2  UNL     1      24.051   4.991  19.273  1.00  0.00    -0.321 OA
BRANCH  18  19
HETATM   19  C2  UNL     1      23.942   6.160  18.566  1.00  0.00     0.254 C 
HETATM   20  C1  UNL     1      24.794   6.495  17.390  1.00  0.00     0.126 C 
HETATM   21  O1  UNL     1      23.080   7.004  18.919  1.00  0.00    -0.266 OA
ENDBRANCH  18  19
ENDBRANCH  17  18
ENDBRANCH   1  17
BRANCH  10  22
HETATM   22  O5  UNL     1      26.295   2.496  16.773  1.00  0.00    -0.393 OA
ATOM     23  H5  UNL     1      26.117   1.703  16.282  1.00  0.00     0.210 HD
ENDBRANCH  10  22
BRANCH  14  24
HETATM   24  C16 UNL     1      22.437   0.520  22.251  1.00  0.00     0.058 C 
BRANCH  24  25
HETATM   25  C17 UNL     1      20.962   0.857  22.476  1.00  0.00     0.166 C 
BRANCH  25  26
HETATM   26  O6  UNL     1      20.370   1.313  21.303  1.00  0.00    -0.401 OA
ATOM     27  H6  UNL     1      20.996   1.784  20.767  1.00  0.00     0.209 HD
ENDBRANCH  25  26
ENDBRANCH  24  25
ENDBRANCH  14  24
TORSDOF 7
ENDMDL
MODEL 5
REMARK VINA RESULT: -7.035230635      1.973      2.306
REMARK  7 active torsions:
REMARK  status: ('A' for Active; 'I' for Inactive)
REMARK    1  A    between atoms: C2_2  and  O2_4 
REMARK    2  A    between atoms: O2_4  and  C3_5 
REMARK    3  A    between atoms: C3_5  and  C4_6 
REMARK    4  A    between atoms: C11_15  and  O5_16 
REMARK    5  A    between atoms: C15_21  and  C16_22 
REMARK    6  A    between atoms: C16_22  and  C17_23 
REMARK    7  A    between atoms: C17_23  and  O6_24 
ROOT
HETATM    1  C4  UNL     1      23.036   3.261  19.398  1.00  0.00     0.071 C 
HETATM    2  C5  UNL     1      22.039   3.431  20.463  1.00  0.00     0.159 C 
HETATM    3  O3  UNL     1      21.516   2.174  20.863  1.00  0.00    -0.374 OA
HETATM    4  C6  UNL     1      22.428   1.323  21.464  1.00  0.00     0.165 C 
HETATM    5  C7  UNL     1      22.601   1.534  22.928  1.00  0.00     0.186 A 
HETATM    6  O4  UNL     1      23.371   2.513  23.490  1.00  0.00    -0.367 OA
HETATM    7  C8  UNL     1      21.998   2.670  23.549  1.00  0.00     0.089 A 
HETATM    8  C9  UNL     1      21.371   2.467  24.937  1.00  0.00     0.049 C 
HETATM    9  C10 UNL     1      21.312   3.715  22.753  1.00  0.00     0.074 C 
HETATM   10  C11 UNL     1      22.205   4.286  21.626  1.00  0.00     0.150 C 
HETATM   11  C12 UNL     1      23.633   1.126  20.641  1.00  0.00     0.014 C 
HETATM   12  C13 UNL     1      24.964   1.310  21.236  1.00  0.00     0.020 C 
HETATM   13  C14 UNL     1      23.719  -0.292  20.014  1.00  0.00     0.046 C 
HETATM   14  C15 UNL     1      24.540   0.076  18.770  1.00  0.00     0.125 C 
HETATM   15  O7  UNL     1      24.491   1.448  18.616  1.00  0.00    -0.379 OA
HETATM   16  C18 UNL     1      23.402   1.819  19.313  1.00  0.00     0.141 C 
ENDROOT
BRANCH   1  17
HETATM   17  C3  UNL     1      24.206   4.164  19.350  1.00  0.00     0.188 C 
BRANCH  17  18
HETATM   18  O2  UNL     1      24.341   4.977  18.220  1.00  0.00    -0.321 OA
BRANCH  18  19
HETATM   19  C2  UNL     1      24.118   6.328  18.170  1.00  0.00     0.254 C 
HETATM   20  C1  UNL     1      24.857   7.253  17.266  1.00  0.00     0.126 C 
HETATM   21  O1  UNL     1      23.243   6.826  18.925  1.00  0.00    -0.266 OA
ENDBRANCH  18  19
ENDBRANCH  17  18
ENDBRANCH   1  17
BRANCH  10  22
HETATM   22  O5  UNL     1      23.399   4.500  22.210  1.00  0.00    -0.393 OA
ATOM     23  H5  UNL     1      23.711   3.989  22.947  1.00  0.00     0.210 HD
ENDBRANCH  10  22
BRANCH  14  24
HETATM   24  C16 UNL     1      24.059  -0.686  17.576  1.00  0.00     0.058 C 
BRANCH  24  25
HETATM   25  C17 UNL     1      25.064  -0.433  16.450  1.00  0.00     0.166 C 
BRANCH  25  26
HETATM   26  O6  UNL     1      24.461  -0.569  15.204  1.00  0.00    -0.401 OA
ATOM     27  H6  UNL     1      25.051  -0.979  14.583  1.00  0.00     0.209 HD
ENDBRANCH  25  26
ENDBRANCH  24  25
ENDBRANCH  14  24
TORSDOF 7
ENDMDL
