MODEL 1
REMARK VINA RESULT: -8.438111664      0.000      0.000
REMARK  6 active torsions:
REMARK  status: ('A' for Active; 'I' for Inactive)
REMARK    1  A    between atoms: C5_6  and  C6_7 
REMARK    2  A    between atoms: C7_8  and  C8_9 
REMARK    3  A    between atoms: C10_12  and  O3_13 
REMARK    4  A    between atoms: C12_17  and  O5_18 
REMARK    5  A    between atoms: O5_18  and  C13_19 
REMARK    6  A    between atoms: C16_23  and  O7_24 
ROOT
HETATM    1  C8  UNL     1      21.953   5.722  20.914  1.00  0.00     0.096 C 
HETATM    2  C9  UNL     1      21.780   6.548  22.150  1.00  0.00     0.166 C 
HETATM    3  O2  UNL     1      21.808   7.740  22.300  1.00  0.00    -0.294 OA
HETATM    4  C10 UNL     1      21.552   5.563  23.244  1.00  0.00     0.218 C 
HETATM    5  C11 UNL     1      22.478   4.420  22.883  1.00  0.00     0.177 C 
HETATM    6  O4  UNL     1      21.882   3.246  23.338  1.00  0.00    -0.330 OA
HETATM    7  C12 UNL     1      22.475   2.138  22.740  1.00  0.00     0.416 C 
HETATM    8  O6  UNL     1      22.253   2.072  21.381  1.00  0.00    -0.308 OA
HETATM    9  C16 UNL     1      21.893   3.264  20.803  1.00  0.00     0.274 C 
HETATM   10  C17 UNL     1      22.609   4.458  21.387  1.00  0.00     0.049 C 
HETATM   11  C18 UNL     1      24.046   4.389  20.932  1.00  0.00     0.024 C 
ENDROOT
BRANCH   1  12
HETATM   12  C7  UNL     1      22.828   6.451  19.975  1.00  0.00    -0.017 C 
HETATM   13  C6  UNL     1      22.349   7.191  18.984  1.00  0.00    -0.019 C 
BRANCH  13  14
HETATM   14  C5  UNL     1      23.219   7.916  18.051  1.00  0.00     0.062 C 
HETATM   15  C2  UNL     1      22.499   8.548  16.924  1.00  0.00    -0.056 C 
HETATM   16  C1  UNL     1      21.507   9.404  17.021  1.00  0.00     0.017 C 
HETATM   17  C3  UNL     1      23.102   8.037  15.677  1.00  0.00     0.202 C 
HETATM   18  O1  UNL     1      23.645   6.817  16.049  1.00  0.00    -0.386 OA
HETATM   19  C4  UNL     1      24.198   7.022  17.321  1.00  0.00     0.180 C 
ENDBRANCH  13  14
ENDBRANCH   1  12
BRANCH   4  20
HETATM   20  O3  UNL     1      20.241   5.083  23.240  1.00  0.00    -0.385 OA
ATOM     21  H3  UNL     1      20.120   4.387  23.875  1.00  0.00     0.210 HD
ENDBRANCH   4  20
BRANCH   9  22
HETATM   22  O7  UNL     1      22.258   3.203  19.449  1.00  0.00    -0.370 OA
ATOM     23  H7  UNL     1      21.589   3.659  18.952  1.00  0.00     0.212 HD
ENDBRANCH   9  22
BRANCH   7  24
HETATM   24  O5  UNL     1      22.019   0.981  23.329  1.00  0.00    -0.334 OA
BRANCH  24  25
HETATM   25  C13 UNL     1      21.813  -0.049  22.418  1.00  0.00     0.118 C 
HETATM   26  C14 UNL     1      20.406  -0.596  22.488  1.00  0.00     0.039 C 
HETATM   27  C15 UNL     1      22.781  -1.158  22.780  1.00  0.00     0.039 C 
ENDBRANCH  24  25
ENDBRANCH   7  24
TORSDOF 6
ENDMDL
MODEL 2
REMARK VINA RESULT: -8.034018627      0.865      1.028
REMARK  6 active torsions:
REMARK  status: ('A' for Active; 'I' for Inactive)
REMARK    1  A    between atoms: C5_6  and  C6_7 
REMARK    2  A    between atoms: C7_8  and  C8_9 
REMARK    3  A    between atoms: C10_12  and  O3_13 
REMARK    4  A    between atoms: C12_17  and  O5_18 
REMARK    5  A    between atoms: O5_18  and  C13_19 
REMARK    6  A    between atoms: C16_23  and  O7_24 
ROOT
HETATM    1  C8  UNL     1      22.022   5.152  20.997  1.00  0.00     0.096 C 
HETATM    2  C9  UNL     1      21.783   5.723  22.360  1.00  0.00     0.166 C 
HETATM    3  O2  UNL     1      21.670   6.866  22.715  1.00  0.00    -0.294 OA
HETATM    4  C10 UNL     1      21.705   4.543  23.265  1.00  0.00     0.218 C 
HETATM    5  C11 UNL     1      22.753   3.604  22.705  1.00  0.00     0.177 C 
HETATM    6  O4  UNL     1      22.317   2.304  22.950  1.00  0.00    -0.330 OA
HETATM    7  C12 UNL     1      23.024   1.399  22.164  1.00  0.00     0.416 C 
HETATM    8  O6  UNL     1      22.776   1.542  20.815  1.00  0.00    -0.308 OA
HETATM    9  C16 UNL     1      22.259   2.762  20.457  1.00  0.00     0.274 C 
HETATM   10  C17 UNL     1      22.840   3.917  21.238  1.00  0.00     0.049 C 
HETATM   11  C18 UNL     1      24.262   4.107  20.771  1.00  0.00     0.024 C 
ENDROOT
BRANCH   1  12
HETATM   12  C7  UNL     1      22.777   6.136  20.196  1.00  0.00    -0.017 C 
HETATM   13  C6  UNL     1      22.206   6.881  19.260  1.00  0.00    -0.019 C 
BRANCH  13  14
HETATM   14  C5  UNL     1      22.956   7.858  18.463  1.00  0.00     0.062 C 
HETATM   15  C2  UNL     1      22.172   8.473  17.371  1.00  0.00    -0.056 C 
HETATM   16  C1  UNL     1      21.032   9.114  17.501  1.00  0.00     0.017 C 
HETATM   17  C3  UNL     1      22.908   8.234  16.114  1.00  0.00     0.202 C 
HETATM   18  O1  UNL     1      23.659   7.100  16.383  1.00  0.00    -0.386 OA
HETATM   19  C4  UNL     1      24.115   7.253  17.700  1.00  0.00     0.180 C 
ENDBRANCH  13  14
ENDBRANCH   1  12
BRANCH   4  20
HETATM   20  O3  UNL     1      20.463   3.911  23.183  1.00  0.00    -0.385 OA
ATOM     21  H3  UNL     1      20.079   3.777  24.042  1.00  0.00     0.210 HD
ENDBRANCH   4  20
BRANCH   9  22
HETATM   22  O7  UNL     1      22.593   2.983  19.112  1.00  0.00    -0.370 OA
ATOM     23  H7  UNL     1      21.977   3.618  18.766  1.00  0.00     0.212 HD
ENDBRANCH   9  22
BRANCH   7  24
HETATM   24  O5  UNL     1      22.728   0.110  22.544  1.00  0.00    -0.334 OA
BRANCH  24  25
HETATM   25  C13 UNL     1      21.574   0.021  23.314  1.00  0.00     0.118 C 
HETATM   26  C14 UNL     1      21.782  -0.814  24.556  1.00  0.00     0.039 C 
HETATM   27  C15 UNL     1      20.520  -0.648  22.454  1.00  0.00     0.039 C 
ENDBRANCH  24  25
ENDBRANCH   7  24
TORSDOF 6
ENDMDL
MODEL 3
REMARK VINA RESULT: -7.995049913      2.733      3.478
REMARK  6 active torsions:
REMARK  status: ('A' for Active; 'I' for Inactive)
REMARK    1  A    between atoms: C5_6  and  C6_7 
REMARK    2  A    between atoms: C7_8  and  C8_9 
REMARK    3  A    between atoms: C10_12  and  O3_13 
REMARK    4  A    between atoms: C12_17  and  O5_18 
REMARK    5  A    between atoms: O5_18  and  C13_19 
REMARK    6  A    between atoms: C16_23  and  O7_24 
ROOT
HETATM    1  C8  UNL     1      23.553   3.813  19.952  1.00  0.00     0.096 C 
HETATM    2  C9  UNL     1      23.960   3.943  21.387  1.00  0.00     0.166 C 
HETATM    3  O2  UNL     1      24.148   4.923  22.056  1.00  0.00    -0.294 OA
HETATM    4  C10 UNL     1      24.101   2.544  21.877  1.00  0.00     0.218 C 
HETATM    5  C11 UNL     1      24.703   1.819  20.692  1.00  0.00     0.177 C 
HETATM    6  O4  UNL     1      24.238   0.506  20.731  1.00  0.00    -0.330 OA
HETATM    7  C12 UNL     1      24.446  -0.119  19.505  1.00  0.00     0.416 C 
HETATM    8  O6  UNL     1      23.696   0.428  18.485  1.00  0.00    -0.308 OA
HETATM    9  C16 UNL     1      23.241   1.699  18.730  1.00  0.00     0.274 C 
HETATM   10  C17 UNL     1      24.231   2.562  19.476  1.00  0.00     0.049 C 
HETATM   11  C18 UNL     1      25.356   2.883  18.523  1.00  0.00     0.024 C 
ENDROOT
BRANCH   1  12
HETATM   12  C7  UNL     1      24.042   4.992  19.212  1.00  0.00    -0.017 C 
HETATM   13  C6  UNL     1      23.284   6.058  18.991  1.00  0.00    -0.019 C 
BRANCH  13  14
HETATM   14  C5  UNL     1      23.770   7.231  18.255  1.00  0.00     0.062 C 
HETATM   15  C2  UNL     1      22.706   7.990  17.563  1.00  0.00    -0.056 C 
HETATM   16  C1  UNL     1      21.632   8.501  18.121  1.00  0.00     0.017 C 
HETATM   17  C3  UNL     1      23.078   8.066  16.137  1.00  0.00     0.202 C 
HETATM   18  O1  UNL     1      23.897   6.962  15.951  1.00  0.00    -0.386 OA
HETATM   19  C4  UNL     1      24.690   6.882  17.104  1.00  0.00     0.180 C 
ENDBRANCH  13  14
ENDBRANCH   1  12
BRANCH   4  20
HETATM   20  O3  UNL     1      22.861   1.968  22.158  1.00  0.00    -0.385 OA
ATOM     21  H3  UNL     1      22.458   2.356  22.927  1.00  0.00     0.210 HD
ENDBRANCH   4  20
BRANCH   9  22
HETATM   22  O7  UNL     1      23.030   2.318  17.487  1.00  0.00    -0.370 OA
ATOM     23  H7  UNL     1      22.409   3.024  17.622  1.00  0.00     0.212 HD
ENDBRANCH   9  22
BRANCH   7  24
HETATM   24  O5  UNL     1      24.164  -1.462  19.604  1.00  0.00    -0.334 OA
BRANCH  24  25
HETATM   25  C13 UNL     1      24.942  -2.244  18.758  1.00  0.00     0.118 C 
HETATM   26  C14 UNL     1      24.832  -3.716  19.084  1.00  0.00     0.039 C 
HETATM   27  C15 UNL     1      26.381  -1.812  18.956  1.00  0.00     0.039 C 
ENDBRANCH  24  25
ENDBRANCH   7  24
TORSDOF 6
ENDMDL
MODEL 4
REMARK VINA RESULT: -7.760805052      3.576      4.705
REMARK  6 active torsions:
REMARK  status: ('A' for Active; 'I' for Inactive)
REMARK    1  A    between atoms: C5_6  and  C6_7 
REMARK    2  A    between atoms: C7_8  and  C8_9 
REMARK    3  A    between atoms: C10_12  and  O3_13 
REMARK    4  A    between atoms: C12_17  and  O5_18 
REMARK    5  A    between atoms: O5_18  and  C13_19 
REMARK    6  A    between atoms: C16_23  and  O7_24 
ROOT
HETATM    1  C8  UNL     1      23.786   3.839  20.065  1.00  0.00     0.096 C 
HETATM    2  C9  UNL     1      24.453   3.728  21.401  1.00  0.00     0.166 C 
HETATM    3  O2  UNL     1      24.497   4.506  22.315  1.00  0.00    -0.294 OA
HETATM    4  C10 UNL     1      25.099   2.386  21.400  1.00  0.00     0.218 C 
HETATM    5  C11 UNL     1      25.599   2.242  19.977  1.00  0.00     0.177 C 
HETATM    6  O4  UNL     1      25.554   0.886  19.660  1.00  0.00    -0.330 OA
HETATM    7  C12 UNL     1      25.648   0.707  18.282  1.00  0.00     0.416 C 
HETATM    8  O6  UNL     1      24.562   1.206  17.595  1.00  0.00    -0.308 OA
HETATM    9  C16 UNL     1      23.828   2.136  18.288  1.00  0.00     0.274 C 
HETATM   10  C17 UNL     1      24.669   3.064  19.132  1.00  0.00     0.049 C 
HETATM   11  C18 UNL     1      25.406   3.984  18.191  1.00  0.00     0.024 C 
ENDROOT
BRANCH   1  12
HETATM   12  C7  UNL     1      23.732   5.263  19.679  1.00  0.00    -0.017 C 
HETATM   13  C6  UNL     1      22.730   6.058  20.028  1.00  0.00    -0.019 C 
BRANCH  13  14
HETATM   14  C5  UNL     1      22.676   7.473  19.645  1.00  0.00     0.062 C 
HETATM   15  C2  UNL     1      21.385   8.128  19.942  1.00  0.00    -0.056 C 
HETATM   16  C1  UNL     1      20.799   8.189  21.117  1.00  0.00     0.017 C 
HETATM   17  C3  UNL     1      20.881   8.698  18.677  1.00  0.00     0.202 C 
HETATM   18  O1  UNL     1      21.485   7.920  17.701  1.00  0.00    -0.386 OA
HETATM   19  C4  UNL     1      22.794   7.698  18.152  1.00  0.00     0.180 C 
ENDBRANCH  13  14
ENDBRANCH   1  12
BRANCH   4  20
HETATM   20  O3  UNL     1      24.175   1.368  21.644  1.00  0.00    -0.385 OA
ATOM     21  H3  UNL     1      24.581   0.619  22.064  1.00  0.00     0.210 HD
ENDBRANCH   4  20
BRANCH   9  22
HETATM   22  O7  UNL     1      23.170   2.942  17.345  1.00  0.00    -0.370 OA
ATOM     23  H7  UNL     1      23.597   3.791  17.349  1.00  0.00     0.212 HD
ENDBRANCH   9  22
BRANCH   7  24
HETATM   24  O5  UNL     1      25.796  -0.628  17.987  1.00  0.00    -0.334 OA
BRANCH  24  25
HETATM   25  C13 UNL     1      26.875  -0.884  17.148  1.00  0.00     0.118 C 
HETATM   26  C14 UNL     1      27.752   0.334  16.964  1.00  0.00     0.039 C 
HETATM   27  C15 UNL     1      26.304  -1.276  15.800  1.00  0.00     0.039 C 
ENDBRANCH  24  25
ENDBRANCH   7  24
TORSDOF 6
ENDMDL
MODEL 5
REMARK VINA RESULT: -7.564806615      3.146      5.888
REMARK  6 active torsions:
REMARK  status: ('A' for Active; 'I' for Inactive)
REMARK    1  A    between atoms: C5_6  and  C6_7 
REMARK    2  A    between atoms: C7_8  and  C8_9 
REMARK    3  A    between atoms: C10_12  and  O3_13 
REMARK    4  A    between atoms: C12_17  and  O5_18 
REMARK    5  A    between atoms: O5_18  and  C13_19 
REMARK    6  A    between atoms: C16_23  and  O7_24 
ROOT
HETATM    1  C8  UNL     1      21.066   4.120  22.457  1.00  0.00     0.096 C 
HETATM    2  C9  UNL     1      20.668   2.877  23.191  1.00  0.00     0.166 C 
HETATM    3  O2  UNL     1      20.100   2.742  24.241  1.00  0.00    -0.294 OA
HETATM    4  C10 UNL     1      21.133   1.754  22.330  1.00  0.00     0.218 C 
HETATM    5  C11 UNL     1      22.453   2.257  21.785  1.00  0.00     0.177 C 
HETATM    6  O4  UNL     1      22.615   1.701  20.518  1.00  0.00    -0.330 OA
HETATM    7  C12 UNL     1      23.603   2.382  19.812  1.00  0.00     0.416 C 
HETATM    8  O6  UNL     1      23.261   3.685  19.520  1.00  0.00    -0.308 OA
HETATM    9  C16 UNL     1      22.263   4.202  20.308  1.00  0.00     0.274 C 
HETATM   10  C17 UNL     1      22.337   3.753  21.748  1.00  0.00     0.049 C 
HETATM   11  C18 UNL     1      23.525   4.441  22.373  1.00  0.00     0.024 C 
ENDROOT
BRANCH   1  12
HETATM   12  C7  UNL     1      21.302   5.196  23.440  1.00  0.00    -0.017 C 
HETATM   13  C6  UNL     1      20.419   6.159  23.665  1.00  0.00    -0.019 C 
BRANCH  13  14
HETATM   14  C5  UNL     1      20.653   7.229  24.642  1.00  0.00     0.062 C 
HETATM   15  C2  UNL     1      20.033   6.986  25.961  1.00  0.00    -0.056 C 
HETATM   16  C1  UNL     1      20.226   5.935  26.726  1.00  0.00     0.017 C 
HETATM   17  C3  UNL     1      19.161   8.140  26.256  1.00  0.00     0.202 C 
HETATM   18  O1  UNL     1      18.845   8.643  25.003  1.00  0.00    -0.386 OA
HETATM   19  C4  UNL     1      20.025   8.550  24.251  1.00  0.00     0.180 C 
ENDBRANCH  13  14
ENDBRANCH   1  12
BRANCH   4  20
HETATM   20  O3  UNL     1      20.270   1.537  21.255  1.00  0.00    -0.385 OA
ATOM     21  H3  UNL     1      20.486   0.740  20.786  1.00  0.00     0.210 HD
ENDBRANCH   4  20
BRANCH   9  22
HETATM   22  O7  UNL     1      22.415   5.598  20.317  1.00  0.00    -0.370 OA
ATOM     23  H7  UNL     1      23.331   5.784  20.483  1.00  0.00     0.212 HD
ENDBRANCH   9  22
BRANCH   7  24
HETATM   24  O5  UNL     1      23.894   1.717  18.643  1.00  0.00    -0.334 OA
BRANCH  24  25
HETATM   25  C13 UNL     1      25.227   1.837  18.266  1.00  0.00     0.118 C 
HETATM   26  C14 UNL     1      25.647   0.745  17.310  1.00  0.00     0.039 C 
HETATM   27  C15 UNL     1      26.056   1.717  19.530  1.00  0.00     0.039 C 
ENDBRANCH  24  25
ENDBRANCH   7  24
TORSDOF 6
ENDMDL
