MODEL 1
REMARK VINA RESULT: -7.007246440      0.000      0.000
REMARK  6 active torsions:
REMARK  status: ('A' for Active; 'I' for Inactive)
REMARK    1  A    between atoms: C2_2  and  C3_3 
REMARK    2  A    between atoms: C8_10  and  O3_11 
REMARK    3  A    between atoms: C10_14  and  O5_15 
REMARK    4  A    between atoms: C16_21  and  O6_22 
REMARK    5  A    between atoms: C17_24  and  C18_25 
REMARK    6  A    between atoms: C18_25  and  O7_26 
ROOT
HETATM    1  C3  UNL     1      22.069   2.471  21.849  1.00  0.00     0.083 C 
HETATM    2  C4  UNL     1      22.232   2.053  23.311  1.00  0.00     0.051 C 
HETATM    3  O1  UNL     1      21.922   3.855  21.771  1.00  0.00    -0.369 OA
HETATM    4  C5  UNL     1      23.101   4.513  22.073  1.00  0.00     0.150 C 
HETATM    5  C6  UNL     1      22.895   5.987  22.107  1.00  0.00     0.129 C 
HETATM    6  C7  UNL     1      21.741   6.452  22.872  1.00  0.00     0.193 C 
HETATM    7  O2  UNL     1      21.270   5.770  23.758  1.00  0.00    -0.292 OA
HETATM    8  C8  UNL     1      21.182   7.782  22.521  1.00  0.00     0.339 C 
HETATM    9  O4  UNL     1      20.854   7.794  21.171  1.00  0.00    -0.291 OA
HETATM   10  C10 UNL     1      21.668   7.099  20.276  1.00  0.00     0.190 C 
HETATM   11  C12 UNL     1      22.614   6.262  20.650  1.00  0.00     0.020 C 
HETATM   12  C13 UNL     1      23.598   5.413  19.967  1.00  0.00    -0.046 C 
HETATM   13  C14 UNL     1      24.011   5.578  18.713  1.00  0.00     0.020 C 
HETATM   14  C15 UNL     1      24.049   4.349  20.903  1.00  0.00     0.078 C 
HETATM   15  C16 UNL     1      23.893   3.018  20.220  1.00  0.00     0.138 C 
HETATM   16  C17 UNL     1      23.274   1.974  21.121  1.00  0.00     0.077 C 
ENDROOT
BRANCH   1  17
HETATM   17  C2  UNL     1      20.789   1.880  21.375  1.00  0.00     0.001 C 
HETATM   18  C1  UNL     1      19.919   1.290  22.187  1.00  0.00     0.010 C 
ENDBRANCH   1  17
BRANCH  16  19
HETATM   19  C18 UNL     1      22.954   0.772  20.238  1.00  0.00     0.174 C 
BRANCH  19  20
HETATM   20  O7  UNL     1      23.000   1.126  18.893  1.00  0.00    -0.400 OA
ATOM     21  H7  UNL     1      22.473   0.530  18.373  1.00  0.00     0.209 HD
ENDBRANCH  19  20
ENDBRANCH  16  19
BRANCH  15  22
HETATM   22  O6  UNL     1      25.179   2.555  19.887  1.00  0.00    -0.394 OA
ATOM     23  H6  UNL     1      25.346   1.774  20.401  1.00  0.00     0.210 HD
ENDBRANCH  15  22
BRANCH   8  24
HETATM   24  O3  UNL     1      20.164   8.178  23.363  1.00  0.00    -0.359 OA
HETATM   25  C9  UNL     1      20.564   9.133  24.292  1.00  0.00     0.205 C 
ENDBRANCH   8  24
BRANCH  10  26
HETATM   26  O5  UNL     1      21.503   7.272  18.892  1.00  0.00    -0.335 OA
HETATM   27  C11 UNL     1      21.347   8.559  18.324  1.00  0.00     0.212 C 
ENDBRANCH  10  26
TORSDOF 6
ENDMDL
MODEL 2
REMARK VINA RESULT: -6.964258995      1.694      2.432
REMARK  6 active torsions:
REMARK  status: ('A' for Active; 'I' for Inactive)
REMARK    1  A    between atoms: C2_2  and  C3_3 
REMARK    2  A    between atoms: C8_10  and  O3_11 
REMARK    3  A    between atoms: C10_14  and  O5_15 
REMARK    4  A    between atoms: C16_21  and  O6_22 
REMARK    5  A    between atoms: C17_24  and  C18_25 
REMARK    6  A    between atoms: C18_25  and  O7_26 
ROOT
HETATM    1  C3  UNL     1      21.697   1.567  22.588  1.00  0.00     0.083 C 
HETATM    2  C4  UNL     1      21.080   1.711  23.980  1.00  0.00     0.051 C 
HETATM    3  O1  UNL     1      22.054   2.824  22.102  1.00  0.00    -0.369 OA
HETATM    4  C5  UNL     1      23.136   3.350  22.785  1.00  0.00     0.150 C 
HETATM    5  C6  UNL     1      23.423   4.740  22.337  1.00  0.00     0.129 C 
HETATM    6  C7  UNL     1      22.273   5.637  22.263  1.00  0.00     0.193 C 
HETATM    7  O2  UNL     1      21.278   5.425  22.924  1.00  0.00    -0.292 OA
HETATM    8  C8  UNL     1      22.379   6.808  21.355  1.00  0.00     0.339 C 
HETATM    9  O4  UNL     1      22.678   6.361  20.074  1.00  0.00    -0.291 OA
HETATM   10  C10 UNL     1      23.522   5.260  19.926  1.00  0.00     0.190 C 
HETATM   11  C12 UNL     1      23.893   4.486  20.926  1.00  0.00     0.020 C 
HETATM   12  C13 UNL     1      24.740   3.298  21.078  1.00  0.00    -0.046 C 
HETATM   13  C14 UNL     1      25.675   2.909  20.214  1.00  0.00     0.020 C 
HETATM   14  C15 UNL     1      24.381   2.608  22.346  1.00  0.00     0.078 C 
HETATM   15  C16 UNL     1      24.108   1.161  22.038  1.00  0.00     0.138 C 
HETATM   16  C17 UNL     1      22.864   0.647  22.728  1.00  0.00     0.077 C 
ENDROOT
BRANCH   1  17
HETATM   17  C2  UNL     1      20.624   1.054  21.696  1.00  0.00     0.001 C 
HETATM   18  C1  UNL     1      19.343   1.023  22.045  1.00  0.00     0.010 C 
ENDBRANCH   1  17
BRANCH  16  19
HETATM   19  C18 UNL     1      22.580  -0.731  22.141  1.00  0.00     0.174 C 
BRANCH  19  20
HETATM   20  O7  UNL     1      23.375  -0.961  21.022  1.00  0.00    -0.400 OA
ATOM     21  H7  UNL     1      24.204  -1.350  21.275  1.00  0.00     0.209 HD
ENDBRANCH  19  20
ENDBRANCH  16  19
BRANCH  15  22
HETATM   22  O6  UNL     1      25.187   0.408  22.536  1.00  0.00    -0.394 OA
ATOM     23  H6  UNL     1      24.853  -0.446  22.782  1.00  0.00     0.210 HD
ENDBRANCH  15  22
BRANCH   8  24
HETATM   24  O3  UNL     1      21.288   7.649  21.430  1.00  0.00    -0.359 OA
HETATM   25  C9  UNL     1      20.990   8.265  20.218  1.00  0.00     0.205 C 
ENDBRANCH   8  24
BRANCH  10  26
HETATM   26  O5  UNL     1      24.025   4.922  18.659  1.00  0.00    -0.335 OA
HETATM   27  C11 UNL     1      24.444   5.917  17.744  1.00  0.00     0.212 C 
ENDBRANCH  10  26
TORSDOF 6
ENDMDL
MODEL 3
REMARK VINA RESULT: -6.894673879      1.620      2.326
REMARK  6 active torsions:
REMARK  status: ('A' for Active; 'I' for Inactive)
REMARK    1  A    between atoms: C2_2  and  C3_3 
REMARK    2  A    between atoms: C8_10  and  O3_11 
REMARK    3  A    between atoms: C10_14  and  O5_15 
REMARK    4  A    between atoms: C16_21  and  O6_22 
REMARK    5  A    between atoms: C17_24  and  C18_25 
REMARK    6  A    between atoms: C18_25  and  O7_26 
ROOT
HETATM    1  C3  UNL     1      23.069   4.028  20.149  1.00  0.00     0.083 C 
HETATM    2  C4  UNL     1      23.792   3.583  21.422  1.00  0.00     0.051 C 
HETATM    3  O1  UNL     1      22.462   5.265  20.364  1.00  0.00    -0.369 OA
HETATM    4  C5  UNL     1      23.394   6.282  20.471  1.00  0.00     0.150 C 
HETATM    5  C6  UNL     1      22.738   7.571  20.823  1.00  0.00     0.129 C 
HETATM    6  C7  UNL     1      21.783   7.520  21.927  1.00  0.00     0.193 C 
HETATM    7  O2  UNL     1      21.850   6.645  22.765  1.00  0.00    -0.292 OA
HETATM    8  C8  UNL     1      20.742   8.578  21.977  1.00  0.00     0.339 C 
HETATM    9  O4  UNL     1      20.038   8.577  20.779  1.00  0.00    -0.291 OA
HETATM   10  C10 UNL     1      20.725   8.301  19.596  1.00  0.00     0.190 C 
HETATM   11  C12 UNL     1      21.958   7.840  19.560  1.00  0.00     0.020 C 
HETATM   12  C13 UNL     1      22.911   7.466  18.508  1.00  0.00    -0.046 C 
HETATM   13  C14 UNL     1      22.850   7.870  17.242  1.00  0.00     0.020 C 
HETATM   14  C15 UNL     1      23.945   6.569  19.090  1.00  0.00     0.078 C 
HETATM   15  C16 UNL     1      24.034   5.332  18.239  1.00  0.00     0.138 C 
HETATM   16  C17 UNL     1      24.091   4.065  19.063  1.00  0.00     0.077 C 
ENDROOT
BRANCH   1  17
HETATM   17  C2  UNL     1      21.972   3.051  19.917  1.00  0.00     0.001 C 
HETATM   18  C1  UNL     1      21.452   2.302  20.882  1.00  0.00     0.010 C 
ENDBRANCH   1  17
BRANCH  16  19
HETATM   19  C18 UNL     1      23.932   2.904  18.087  1.00  0.00     0.174 C 
BRANCH  19  20
HETATM   20  O7  UNL     1      25.176   2.432  17.679  1.00  0.00    -0.400 OA
ATOM     21  H7  UNL     1      25.484   1.751  18.265  1.00  0.00     0.209 HD
ENDBRANCH  19  20
ENDBRANCH  16  19
BRANCH  15  22
HETATM   22  O6  UNL     1      25.237   5.398  17.514  1.00  0.00    -0.394 OA
ATOM     23  H6  UNL     1      25.752   6.111  17.874  1.00  0.00     0.210 HD
ENDBRANCH  15  22
BRANCH   8  24
HETATM   24  O3  UNL     1      19.954   8.506  23.106  1.00  0.00    -0.359 OA
HETATM   25  C9  UNL     1      20.498   9.180  24.195  1.00  0.00     0.205 C 
ENDBRANCH   8  24
BRANCH  10  26
HETATM   26  O5  UNL     1      20.103   8.511  18.354  1.00  0.00    -0.335 OA
HETATM   27  C11 UNL     1      19.624   9.788  17.978  1.00  0.00     0.212 C 
ENDBRANCH  10  26
TORSDOF 6
ENDMDL
MODEL 4
REMARK VINA RESULT: -6.683914233      3.573      7.433
REMARK  6 active torsions:
REMARK  status: ('A' for Active; 'I' for Inactive)
REMARK    1  A    between atoms: C2_2  and  C3_3 
REMARK    2  A    between atoms: C8_10  and  O3_11 
REMARK    3  A    between atoms: C10_14  and  O5_15 
REMARK    4  A    between atoms: C16_21  and  O6_22 
REMARK    5  A    between atoms: C17_24  and  C18_25 
REMARK    6  A    between atoms: C18_25  and  O7_26 
ROOT
HETATM    1  C3  UNL     1      24.096   2.811  20.485  1.00  0.00     0.083 C 
HETATM    2  C4  UNL     1      24.923   3.681  21.433  1.00  0.00     0.051 C 
HETATM    3  O1  UNL     1      24.938   2.193  19.562  1.00  0.00    -0.369 OA
HETATM    4  C5  UNL     1      25.718   1.216  20.154  1.00  0.00     0.150 C 
HETATM    5  C6  UNL     1      26.696   0.655  19.183  1.00  0.00     0.129 C 
HETATM    6  C7  UNL     1      27.454   1.631  18.404  1.00  0.00     0.193 C 
HETATM    7  O2  UNL     1      27.613   2.761  18.814  1.00  0.00    -0.292 OA
HETATM    8  C8  UNL     1      28.014   1.179  17.105  1.00  0.00     0.339 C 
HETATM    9  O4  UNL     1      26.985   0.682  16.316  1.00  0.00    -0.291 OA
HETATM   10  C10 UNL     1      25.944  -0.016  16.930  1.00  0.00     0.190 C 
HETATM   11  C12 UNL     1      25.766  -0.061  18.234  1.00  0.00     0.020 C 
HETATM   12  C13 UNL     1      24.799  -0.687  19.143  1.00  0.00    -0.046 C 
HETATM   13  C14 UNL     1      24.019  -1.720  18.836  1.00  0.00     0.020 C 
HETATM   14  C15 UNL     1      24.838   0.020  20.451  1.00  0.00     0.078 C 
HETATM   15  C16 UNL     1      23.434   0.417  20.818  1.00  0.00     0.138 C 
HETATM   16  C17 UNL     1      23.350   1.836  21.334  1.00  0.00     0.077 C 
ENDROOT
BRANCH   1  17
HETATM   17  C2  UNL     1      23.222   3.734  19.712  1.00  0.00     0.001 C 
HETATM   18  C1  UNL     1      23.409   5.048  19.674  1.00  0.00     0.010 C 
ENDBRANCH   1  17
BRANCH  16  19
HETATM   19  C18 UNL     1      21.867   2.177  21.430  1.00  0.00     0.174 C 
BRANCH  19  20
HETATM   20  O7  UNL     1      21.094   1.161  20.876  1.00  0.00    -0.400 OA
ATOM     21  H7  UNL     1      20.711   1.442  20.053  1.00  0.00     0.209 HD
ENDBRANCH  19  20
ENDBRANCH  16  19
BRANCH  15  22
HETATM   22  O6  UNL     1      23.014  -0.421  21.867  1.00  0.00    -0.394 OA
ATOM     23  H6  UNL     1      23.247  -1.312  21.634  1.00  0.00     0.210 HD
ENDBRANCH  15  22
BRANCH   8  24
HETATM   24  O3  UNL     1      28.797   2.135  16.493  1.00  0.00    -0.359 OA
HETATM   25  C9  UNL     1      28.648   2.159  15.110  1.00  0.00     0.205 C 
ENDBRANCH   8  24
BRANCH  10  26
HETATM   26  O5  UNL     1      25.012  -0.722  16.151  1.00  0.00    -0.335 OA
HETATM   27  C11 UNL     1      25.301  -1.098  14.817  1.00  0.00     0.212 C 
ENDBRANCH  10  26
TORSDOF 6
ENDMDL
MODEL 5
REMARK VINA RESULT: -6.386090526      3.148      5.667
REMARK  6 active torsions:
REMARK  status: ('A' for Active; 'I' for Inactive)
REMARK    1  A    between atoms: C2_2  and  C3_3 
REMARK    2  A    between atoms: C8_10  and  O3_11 
REMARK    3  A    between atoms: C10_14  and  O5_15 
REMARK    4  A    between atoms: C16_21  and  O6_22 
REMARK    5  A    between atoms: C17_24  and  C18_25 
REMARK    6  A    between atoms: C18_25  and  O7_26 
ROOT
HETATM    1  C3  UNL     1      23.306   2.666  20.687  1.00  0.00     0.083 C 
HETATM    2  C4  UNL     1      22.416   3.436  19.710  1.00  0.00     0.051 C 
HETATM    3  O1  UNL     1      22.578   2.348  21.833  1.00  0.00    -0.369 OA
HETATM    4  C5  UNL     1      21.619   1.384  21.580  1.00  0.00     0.150 C 
HETATM    5  C6  UNL     1      20.771   1.149  22.780  1.00  0.00     0.129 C 
HETATM    6  C7  UNL     1      20.253   2.344  23.440  1.00  0.00     0.193 C 
HETATM    7  O2  UNL     1      20.135   3.386  22.831  1.00  0.00    -0.292 OA
HETATM    8  C8  UNL     1      19.881   2.225  24.873  1.00  0.00     0.339 C 
HETATM    9  O4  UNL     1      20.978   1.761  25.589  1.00  0.00    -0.291 OA
HETATM   10  C10 UNL     1      21.828   0.831  24.988  1.00  0.00     0.190 C 
HETATM   11  C12 UNL     1      21.776   0.515  23.710  1.00  0.00     0.020 C 
HETATM   12  C13 UNL     1      22.510  -0.392  22.820  1.00  0.00    -0.046 C 
HETATM   13  C14 UNL     1      23.230  -1.438  23.219  1.00  0.00     0.020 C 
HETATM   14  C15 UNL     1      22.317   0.051  21.413  1.00  0.00     0.078 C 
HETATM   15  C16 UNL     1      23.670   0.188  20.769  1.00  0.00     0.138 C 
HETATM   16  C17 UNL     1      23.800   1.459  19.960  1.00  0.00     0.077 C 
ENDROOT
BRANCH   1  17
HETATM   17  C2  UNL     1      24.383   3.599  21.112  1.00  0.00     0.001 C 
HETATM   18  C1  UNL     1      24.207   4.534  22.039  1.00  0.00     0.010 C 
ENDBRANCH   1  17
BRANCH  16  19
HETATM   19  C18 UNL     1      25.271   1.583  19.578  1.00  0.00     0.174 C 
BRANCH  19  20
HETATM   20  O7  UNL     1      26.033   0.630  20.248  1.00  0.00    -0.400 OA
ATOM     21  H7  UNL     1      26.957   0.745  20.055  1.00  0.00     0.209 HD
ENDBRANCH  19  20
ENDBRANCH  16  19
BRANCH  15  22
HETATM   22  O6  UNL     1      23.824  -0.882  19.869  1.00  0.00    -0.394 OA
ATOM     23  H6  UNL     1      24.746  -1.110  19.847  1.00  0.00     0.210 HD
ENDBRANCH  15  22
BRANCH   8  24
HETATM   24  O3  UNL     1      19.309   3.373  25.379  1.00  0.00    -0.359 OA
HETATM   25  C9  UNL     1      19.434   3.481  26.761  1.00  0.00     0.205 C 
ENDBRANCH   8  24
BRANCH  10  26
HETATM   26  O5  UNL     1      22.807   0.174  25.751  1.00  0.00    -0.335 OA
HETATM   27  C11 UNL     1      23.978   0.843  26.180  1.00  0.00     0.212 C 
ENDBRANCH  10  26
TORSDOF 6
ENDMDL
