MODEL 1
REMARK VINA RESULT: -6.622221292      0.000      0.000
REMARK  13 active torsions:
REMARK  status: ('A' for Active; 'I' for Inactive)
REMARK    1  A    between atoms: C2_2  and  O1_3 
REMARK    2  A    between atoms: O1_3  and  C3_4 
REMARK    3  A    between atoms: C3_4  and  C4_6 
REMARK    4  A    between atoms: C4_6  and  C5_7 
REMARK    5  A    between atoms: C4_6  and  C8_11 
REMARK    6  A    between atoms: C5_7  and  C6_8 
REMARK    7  A    between atoms: C9_12  and  O4_13 
REMARK    8  A    between atoms: C10_15  and  C11_16 
REMARK    9  A    between atoms: C11_16  and  O5_18 
REMARK   10  A    between atoms: C13_20  and  O6_21 
REMARK   11  A    between atoms: C14_23  and  C15_24 
REMARK   12  A    between atoms: C15_24  and  O7_26 
REMARK   13  A    between atoms: C17_28  and  O8_29 
ROOT
HETATM    1  C8  UNL     1      22.621   6.562  20.992  1.00  0.00     0.024 A 
HETATM    2  C9  UNL     1      22.300   7.255  19.824  1.00  0.00     0.091 A 
HETATM    3  C10 UNL     1      21.488   8.371  19.814  1.00  0.00     0.060 A 
HETATM    4  C13 UNL     1      20.942   8.848  21.037  1.00  0.00     0.096 A 
HETATM    5  C14 UNL     1      21.252   8.164  22.200  1.00  0.00     0.060 A 
HETATM    6  C17 UNL     1      22.075   7.044  22.175  1.00  0.00     0.091 A 
ENDROOT
BRANCH   1   7
HETATM    7  C4  UNL     1      23.397   5.306  20.967  1.00  0.00     0.131 C 
BRANCH   7   8
HETATM    8  C3  UNL     1      22.445   4.154  20.764  1.00  0.00     0.268 C 
HETATM    9  O2  UNL     1      21.714   3.681  21.639  1.00  0.00    -0.264 OA
BRANCH   8  10
HETATM   10  O1  UNL     1      22.390   3.578  19.508  1.00  0.00    -0.321 OA
BRANCH  10  11
HETATM   11  C2  UNL     1      23.604   3.274  18.811  1.00  0.00     0.174 C 
HETATM   12  C1  UNL     1      23.931   1.828  19.037  1.00  0.00     0.034 C 
ENDBRANCH  10  11
ENDBRANCH   8  10
ENDBRANCH   7   8
BRANCH   7  13
HETATM   13  C5  UNL     1      24.246   5.049  22.166  1.00  0.00     0.097 C 
BRANCH  13  14
HETATM   14  C6  UNL     1      24.970   3.758  22.180  1.00  0.00     0.124 C 
HETATM   15  C7  UNL     1      24.554   2.658  23.073  1.00  0.00     0.091 C 
HETATM   16  O3  UNL     1      25.927   3.575  21.457  1.00  0.00    -0.298 OA
ENDBRANCH  13  14
ENDBRANCH   7  13
ENDBRANCH   1   7
BRANCH   2  17
HETATM   17  O4  UNL     1      22.829   6.792  18.648  1.00  0.00    -0.359 OA
ATOM     18  H4  UNL     1      23.283   7.416  18.094  1.00  0.00     0.217 HD
ENDBRANCH   2  17
BRANCH   6  19
HETATM   19  O8  UNL     1      22.310   6.444  23.335  1.00  0.00    -0.359 OA
ATOM     20  H8  UNL     1      21.603   6.064  23.843  1.00  0.00     0.217 HD
ENDBRANCH   6  19
BRANCH   3  21
HETATM   21  C11 UNL     1      21.168   9.148  18.649  1.00  0.00     0.055 C 
HETATM   22  C12 UNL     1      22.093   9.618  17.626  1.00  0.00     0.077 C 
BRANCH  21  23
HETATM   23  O5  UNL     1      19.915   9.487  18.461  1.00  0.00    -0.364 OA
ATOM     24  H5  UNL     1      19.681   9.889  17.632  1.00  0.00     0.217 HD
ENDBRANCH  21  23
ENDBRANCH   3  21
BRANCH   5  25
HETATM   25  C15 UNL     1      20.662   8.668  23.423  1.00  0.00     0.055 C 
HETATM   26  C16 UNL     1      21.261   9.378  24.542  1.00  0.00     0.077 C 
BRANCH  25  27
HETATM   27  O7  UNL     1      19.369   8.462  23.574  1.00  0.00    -0.364 OA
ATOM     28  H7  UNL     1      19.066   7.572  23.433  1.00  0.00     0.217 HD
ENDBRANCH  25  27
ENDBRANCH   5  25
BRANCH   4  29
HETATM   29  O6  UNL     1      20.162   9.920  21.041  1.00  0.00    -0.359 OA
ATOM     30  H6  UNL     1      19.507  10.028  21.721  1.00  0.00     0.217 HD
ENDBRANCH   4  29
TORSDOF 13
ENDMDL
MODEL 2
REMARK VINA RESULT: -6.582588168      2.061      4.643
REMARK  13 active torsions:
REMARK  status: ('A' for Active; 'I' for Inactive)
REMARK    1  A    between atoms: C2_2  and  O1_3 
REMARK    2  A    between atoms: O1_3  and  C3_4 
REMARK    3  A    between atoms: C3_4  and  C4_6 
REMARK    4  A    between atoms: C4_6  and  C5_7 
REMARK    5  A    between atoms: C4_6  and  C8_11 
REMARK    6  A    between atoms: C5_7  and  C6_8 
REMARK    7  A    between atoms: C9_12  and  O4_13 
REMARK    8  A    between atoms: C10_15  and  C11_16 
REMARK    9  A    between atoms: C11_16  and  O5_18 
REMARK   10  A    between atoms: C13_20  and  O6_21 
REMARK   11  A    between atoms: C14_23  and  C15_24 
REMARK   12  A    between atoms: C15_24  and  O7_26 
REMARK   13  A    between atoms: C17_28  and  O8_29 
ROOT
HETATM    1  C8  UNL     1      21.803   7.853  21.651  1.00  0.00     0.024 A 
HETATM    2  C9  UNL     1      22.823   7.196  20.960  1.00  0.00     0.091 A 
HETATM    3  C10 UNL     1      23.032   7.355  19.605  1.00  0.00     0.060 A 
HETATM    4  C13 UNL     1      22.180   8.219  18.863  1.00  0.00     0.096 A 
HETATM    5  C14 UNL     1      21.164   8.870  19.540  1.00  0.00     0.060 A 
HETATM    6  C17 UNL     1      20.981   8.690  20.906  1.00  0.00     0.091 A 
ENDROOT
BRANCH   1   7
HETATM    7  C4  UNL     1      21.524   7.582  23.076  1.00  0.00     0.131 C 
BRANCH   7   8
HETATM    8  C3  UNL     1      20.809   6.259  23.184  1.00  0.00     0.268 C 
HETATM    9  O2  UNL     1      19.832   6.042  23.907  1.00  0.00    -0.264 OA
BRANCH   8  10
HETATM   10  O1  UNL     1      21.284   5.206  22.425  1.00  0.00    -0.321 OA
BRANCH  10  11
HETATM   11  C2  UNL     1      21.045   3.858  22.848  1.00  0.00     0.174 C 
HETATM   12  C1  UNL     1      21.712   2.931  21.876  1.00  0.00     0.034 C 
ENDBRANCH  10  11
ENDBRANCH   8  10
ENDBRANCH   7   8
BRANCH   7  13
HETATM   13  C5  UNL     1      20.745   8.632  23.791  1.00  0.00     0.097 C 
BRANCH  13  14
HETATM   14  C6  UNL     1      21.324   9.110  25.067  1.00  0.00     0.124 C 
HETATM   15  C7  UNL     1      21.013   8.438  26.346  1.00  0.00     0.091 C 
HETATM   16  O3  UNL     1      22.068  10.067  25.092  1.00  0.00    -0.298 OA
ENDBRANCH  13  14
ENDBRANCH   7  13
ENDBRANCH   1   7
BRANCH   2  17
HETATM   17  O4  UNL     1      23.641   6.365  21.679  1.00  0.00    -0.359 OA
ATOM     18  H4  UNL     1      24.463   6.722  21.992  1.00  0.00     0.217 HD
ENDBRANCH   2  17
BRANCH   6  19
HETATM   19  O8  UNL     1      19.975   9.345  21.471  1.00  0.00    -0.359 OA
ATOM     20  H8  UNL     1      19.810  10.259  21.271  1.00  0.00     0.217 HD
ENDBRANCH   6  19
BRANCH   3  21
HETATM   21  C11 UNL     1      24.095   6.742  18.858  1.00  0.00     0.055 C 
HETATM   22  C12 UNL     1      24.336   5.317  18.681  1.00  0.00     0.077 C 
BRANCH  21  23
HETATM   23  O5  UNL     1      24.959   7.529  18.261  1.00  0.00    -0.364 OA
ATOM     24  H5  UNL     1      24.805   8.465  18.293  1.00  0.00     0.217 HD
ENDBRANCH  21  23
ENDBRANCH   3  21
BRANCH   5  25
HETATM   25  C15 UNL     1      20.305   9.726  18.747  1.00  0.00     0.055 C 
HETATM   26  C16 UNL     1      19.600   9.469  17.501  1.00  0.00     0.077 C 
BRANCH  25  27
HETATM   27  O7  UNL     1      20.114  10.946  19.208  1.00  0.00    -0.364 OA
ATOM     28  H7  UNL     1      19.374  11.063  19.792  1.00  0.00     0.217 HD
ENDBRANCH  25  27
ENDBRANCH   5  25
BRANCH   4  29
HETATM   29  O6  UNL     1      22.373   8.381  17.562  1.00  0.00    -0.359 OA
ATOM     30  H6  UNL     1      21.699   8.786  17.029  1.00  0.00     0.217 HD
ENDBRANCH   4  29
TORSDOF 13
ENDMDL
MODEL 3
REMARK VINA RESULT: -6.565302798      0.829      1.440
REMARK  13 active torsions:
REMARK  status: ('A' for Active; 'I' for Inactive)
REMARK    1  A    between atoms: C2_2  and  O1_3 
REMARK    2  A    between atoms: O1_3  and  C3_4 
REMARK    3  A    between atoms: C3_4  and  C4_6 
REMARK    4  A    between atoms: C4_6  and  C5_7 
REMARK    5  A    between atoms: C4_6  and  C8_11 
REMARK    6  A    between atoms: C5_7  and  C6_8 
REMARK    7  A    between atoms: C9_12  and  O4_13 
REMARK    8  A    between atoms: C10_15  and  C11_16 
REMARK    9  A    between atoms: C11_16  and  O5_18 
REMARK   10  A    between atoms: C13_20  and  O6_21 
REMARK   11  A    between atoms: C14_23  and  C15_24 
REMARK   12  A    between atoms: C15_24  and  O7_26 
REMARK   13  A    between atoms: C17_28  and  O8_29 
ROOT
HETATM    1  C8  UNL     1      22.710   6.597  20.865  1.00  0.00     0.024 A 
HETATM    2  C9  UNL     1      22.384   7.290  19.698  1.00  0.00     0.091 A 
HETATM    3  C10 UNL     1      21.535   8.378  19.686  1.00  0.00     0.060 A 
HETATM    4  C13 UNL     1      20.955   8.826  20.905  1.00  0.00     0.096 A 
HETATM    5  C14 UNL     1      21.270   8.141  22.066  1.00  0.00     0.060 A 
HETATM    6  C17 UNL     1      22.131   7.049  22.044  1.00  0.00     0.091 A 
ENDROOT
BRANCH   1   7
HETATM    7  C4  UNL     1      23.528   5.367  20.840  1.00  0.00     0.131 C 
BRANCH   7   8
HETATM    8  C3  UNL     1      22.625   4.192  20.562  1.00  0.00     0.268 C 
HETATM    9  O2  UNL     1      22.662   3.500  19.540  1.00  0.00    -0.264 OA
BRANCH   8  10
HETATM   10  O1  UNL     1      21.677   3.869  21.516  1.00  0.00    -0.321 OA
BRANCH  10  11
HETATM   11  C2  UNL     1      21.276   2.504  21.686  1.00  0.00     0.174 C 
HETATM   12  C1  UNL     1      20.651   2.360  23.042  1.00  0.00     0.034 C 
ENDBRANCH  10  11
ENDBRANCH   8  10
ENDBRANCH   7   8
BRANCH   7  13
HETATM   13  C5  UNL     1      24.329   5.103  22.069  1.00  0.00     0.097 C 
BRANCH  13  14
HETATM   14  C6  UNL     1      25.007   3.787  22.128  1.00  0.00     0.124 C 
HETATM   15  C7  UNL     1      24.569   2.744  23.078  1.00  0.00     0.091 C 
HETATM   16  O3  UNL     1      25.941   3.537  21.395  1.00  0.00    -0.298 OA
ENDBRANCH  13  14
ENDBRANCH   7  13
ENDBRANCH   1   7
BRANCH   2  17
HETATM   17  O4  UNL     1      22.945   6.856  18.526  1.00  0.00    -0.359 OA
ATOM     18  H4  UNL     1      22.375   6.429  17.898  1.00  0.00     0.217 HD
ENDBRANCH   2  17
BRANCH   6  19
HETATM   19  O8  UNL     1      22.368   6.446  23.201  1.00  0.00    -0.359 OA
ATOM     20  H8  UNL     1      23.063   6.742  23.777  1.00  0.00     0.217 HD
ENDBRANCH   6  19
BRANCH   3  21
HETATM   21  C11 UNL     1      21.207   9.155  18.522  1.00  0.00     0.055 C 
HETATM   22  C12 UNL     1      22.136   9.712  17.548  1.00  0.00     0.077 C 
BRANCH  21  23
HETATM   23  O5  UNL     1      19.941   9.408  18.289  1.00  0.00    -0.364 OA
ATOM     24  H5  UNL     1      19.722  10.230  17.867  1.00  0.00     0.217 HD
ENDBRANCH  21  23
ENDBRANCH   3  21
BRANCH   5  25
HETATM   25  C15 UNL     1      20.645   8.613  23.284  1.00  0.00     0.055 C 
HETATM   26  C16 UNL     1      21.206   9.320  24.425  1.00  0.00     0.077 C 
BRANCH  25  27
HETATM   27  O7  UNL     1      19.355   8.376  23.406  1.00  0.00    -0.364 OA
ATOM     28  H7  UNL     1      18.772   9.086  23.162  1.00  0.00     0.217 HD
ENDBRANCH  25  27
ENDBRANCH   5  25
BRANCH   4  29
HETATM   29  O6  UNL     1      20.141   9.871  20.906  1.00  0.00    -0.359 OA
ATOM     30  H6  UNL     1      19.713  10.138  21.711  1.00  0.00     0.217 HD
ENDBRANCH   4  29
TORSDOF 13
ENDMDL
MODEL 4
REMARK VINA RESULT: -6.547630775      2.071      4.697
REMARK  13 active torsions:
REMARK  status: ('A' for Active; 'I' for Inactive)
REMARK    1  A    between atoms: C2_2  and  O1_3 
REMARK    2  A    between atoms: O1_3  and  C3_4 
REMARK    3  A    between atoms: C3_4  and  C4_6 
REMARK    4  A    between atoms: C4_6  and  C5_7 
REMARK    5  A    between atoms: C4_6  and  C8_11 
REMARK    6  A    between atoms: C5_7  and  C6_8 
REMARK    7  A    between atoms: C9_12  and  O4_13 
REMARK    8  A    between atoms: C10_15  and  C11_16 
REMARK    9  A    between atoms: C11_16  and  O5_18 
REMARK   10  A    between atoms: C13_20  and  O6_21 
REMARK   11  A    between atoms: C14_23  and  C15_24 
REMARK   12  A    between atoms: C15_24  and  O7_26 
REMARK   13  A    between atoms: C17_28  and  O8_29 
ROOT
HETATM    1  C8  UNL     1      21.774   7.826  21.619  1.00  0.00     0.024 A 
HETATM    2  C9  UNL     1      20.963   8.692  20.882  1.00  0.00     0.091 A 
HETATM    3  C10 UNL     1      21.139   8.913  19.531  1.00  0.00     0.060 A 
HETATM    4  C13 UNL     1      22.188   8.243  18.843  1.00  0.00     0.096 A 
HETATM    5  C14 UNL     1      22.999   7.387  19.568  1.00  0.00     0.060 A 
HETATM    6  C17 UNL     1      22.794   7.184  20.928  1.00  0.00     0.091 A 
ENDROOT
BRANCH   1   7
HETATM    7  C4  UNL     1      21.642   7.690  23.084  1.00  0.00     0.131 C 
BRANCH   7   8
HETATM    8  C3  UNL     1      21.050   6.338  23.391  1.00  0.00     0.268 C 
HETATM    9  O2  UNL     1      19.848   6.116  23.561  1.00  0.00    -0.264 OA
BRANCH   8  10
HETATM   10  O1  UNL     1      21.917   5.266  23.499  1.00  0.00    -0.321 OA
BRANCH  10  11
HETATM   11  C2  UNL     1      21.426   3.933  23.316  1.00  0.00     0.174 C 
HETATM   12  C1  UNL     1      21.718   3.509  21.907  1.00  0.00     0.034 C 
ENDBRANCH  10  11
ENDBRANCH   8  10
ENDBRANCH   7   8
BRANCH   7  13
HETATM   13  C5  UNL     1      20.843   8.752  23.759  1.00  0.00     0.097 C 
BRANCH  13  14
HETATM   14  C6  UNL     1      21.374   9.235  25.054  1.00  0.00     0.124 C 
HETATM   15  C7  UNL     1      20.960   8.616  26.329  1.00  0.00     0.091 C 
HETATM   16  O3  UNL     1      22.163  10.156  25.096  1.00  0.00    -0.298 OA
ENDBRANCH  13  14
ENDBRANCH   7  13
ENDBRANCH   1   7
BRANCH   2  17
HETATM   17  O4  UNL     1      19.954   9.335  21.548  1.00  0.00    -0.359 OA
ATOM     18  H4  UNL     1      19.760   9.049  22.433  1.00  0.00     0.217 HD
ENDBRANCH   2  17
BRANCH   6  19
HETATM   19  O8  UNL     1      23.625   6.355  21.545  1.00  0.00    -0.359 OA
ATOM     20  H8  UNL     1      24.514   6.617  21.756  1.00  0.00     0.217 HD
ENDBRANCH   6  19
BRANCH   3  21
HETATM   21  C11 UNL     1      20.304   9.754  18.718  1.00  0.00     0.055 C 
HETATM   22  C12 UNL     1      19.645   9.392  17.470  1.00  0.00     0.077 C 
BRANCH  21  23
HETATM   23  O5  UNL     1      20.096  10.986  19.118  1.00  0.00    -0.364 OA
ATOM     24  H5  UNL     1      19.288  11.410  18.853  1.00  0.00     0.217 HD
ENDBRANCH  21  23
ENDBRANCH   3  21
BRANCH   5  25
HETATM   25  C15 UNL     1      24.068   6.738  18.838  1.00  0.00     0.055 C 
HETATM   26  C16 UNL     1      24.350   5.327  18.624  1.00  0.00     0.077 C 
BRANCH  25  27
HETATM   27  O7  UNL     1      24.948   7.534  18.263  1.00  0.00    -0.364 OA
ATOM     28  H7  UNL     1      24.870   8.460  18.463  1.00  0.00     0.217 HD
ENDBRANCH  25  27
ENDBRANCH   5  25
BRANCH   4  29
HETATM   29  O6  UNL     1      22.365   8.447  17.546  1.00  0.00    -0.359 OA
ATOM     30  H6  UNL     1      23.229   8.345  17.163  1.00  0.00     0.217 HD
ENDBRANCH   4  29
TORSDOF 13
ENDMDL
MODEL 5
REMARK VINA RESULT: -6.417642576      5.727      9.599
REMARK  13 active torsions:
REMARK  status: ('A' for Active; 'I' for Inactive)
REMARK    1  A    between atoms: C2_2  and  O1_3 
REMARK    2  A    between atoms: O1_3  and  C3_4 
REMARK    3  A    between atoms: C3_4  and  C4_6 
REMARK    4  A    between atoms: C4_6  and  C5_7 
REMARK    5  A    between atoms: C4_6  and  C8_11 
REMARK    6  A    between atoms: C5_7  and  C6_8 
REMARK    7  A    between atoms: C9_12  and  O4_13 
REMARK    8  A    between atoms: C10_15  and  C11_16 
REMARK    9  A    between atoms: C11_16  and  O5_18 
REMARK   10  A    between atoms: C13_20  and  O6_21 
REMARK   11  A    between atoms: C14_23  and  C15_24 
REMARK   12  A    between atoms: C15_24  and  O7_26 
REMARK   13  A    between atoms: C17_28  and  O8_29 
ROOT
HETATM    1  C8  UNL     1      26.870   0.163  17.145  1.00  0.00     0.024 A 
HETATM    2  C9  UNL     1      26.640   1.375  17.799  1.00  0.00     0.091 A 
HETATM    3  C10 UNL     1      25.938   1.466  18.983  1.00  0.00     0.060 A 
HETATM    4  C13 UNL     1      25.413   0.284  19.577  1.00  0.00     0.096 A 
HETATM    5  C14 UNL     1      25.632  -0.921  18.933  1.00  0.00     0.060 A 
HETATM    6  C17 UNL     1      26.347  -0.978  17.741  1.00  0.00     0.091 A 
ENDROOT
BRANCH   1   7
HETATM    7  C4  UNL     1      27.524   0.101  15.823  1.00  0.00     0.131 C 
BRANCH   7   8
HETATM    8  C3  UNL     1      28.449   1.284  15.686  1.00  0.00     0.268 C 
HETATM    9  O2  UNL     1      29.481   1.453  16.342  1.00  0.00    -0.264 OA
BRANCH   8  10
HETATM   10  O1  UNL     1      28.114   2.259  14.764  1.00  0.00    -0.321 OA
BRANCH  10  11
HETATM   11  C2  UNL     1      28.813   2.327  13.515  1.00  0.00     0.174 C 
HETATM   12  C1  UNL     1      27.852   2.790  12.460  1.00  0.00     0.034 C 
ENDBRANCH  10  11
ENDBRANCH   8  10
ENDBRANCH   7   8
BRANCH   7  13
HETATM   13  C5  UNL     1      26.604   0.046  14.651  1.00  0.00     0.097 C 
BRANCH  13  14
HETATM   14  C6  UNL     1      26.815  -1.083  13.716  1.00  0.00     0.124 C 
HETATM   15  C7  UNL     1      27.147  -0.847  12.297  1.00  0.00     0.091 C 
HETATM   16  O3  UNL     1      26.717  -2.230  14.097  1.00  0.00    -0.298 OA
ENDBRANCH  13  14
ENDBRANCH   7  13
ENDBRANCH   1   7
BRANCH   2  17
HETATM   17  O4  UNL     1      27.148   2.511  17.224  1.00  0.00    -0.359 OA
ATOM     18  H4  UNL     1      27.084   3.319  17.718  1.00  0.00     0.217 HD
ENDBRANCH   2  17
BRANCH   6  19
HETATM   19  O8  UNL     1      26.499  -2.173  17.187  1.00  0.00    -0.359 OA
ATOM     20  H8  UNL     1      26.936  -2.878  17.651  1.00  0.00     0.217 HD
ENDBRANCH   6  19
BRANCH   3  21
HETATM   21  C11 UNL     1      25.717   2.679  19.721  1.00  0.00     0.055 C 
HETATM   22  C12 UNL     1      24.819   3.770  19.368  1.00  0.00     0.077 C 
BRANCH  21  23
HETATM   23  O5  UNL     1      26.386   2.850  20.836  1.00  0.00    -0.364 OA
ATOM     24  H5  UNL     1      26.054   3.484  21.462  1.00  0.00     0.217 HD
ENDBRANCH  21  23
ENDBRANCH   3  21
BRANCH   5  25
HETATM   25  C15 UNL     1      25.067  -2.099  19.556  1.00  0.00     0.055 C 
HETATM   26  C16 UNL     1      25.384  -2.748  20.819  1.00  0.00     0.077 C 
BRANCH  25  27
HETATM   27  O7  UNL     1      24.104  -2.705  18.890  1.00  0.00    -0.364 OA
ATOM     28  H7  UNL     1      24.325  -3.545  18.503  1.00  0.00     0.217 HD
ENDBRANCH  25  27
ENDBRANCH   5  25
BRANCH   4  29
HETATM   29  O6  UNL     1      24.739   0.359  20.715  1.00  0.00    -0.359 OA
ATOM     30  H6  UNL     1      24.256  -0.397  21.031  1.00  0.00     0.217 HD
ENDBRANCH   4  29
TORSDOF 13
ENDMDL
