MODEL 1
REMARK VINA RESULT: -6.301056364      0.000      0.000
REMARK  9 active torsions:
REMARK  status: ('A' for Active; 'I' for Inactive)
REMARK    1  A    between atoms: C2_2  and  S1_3 
REMARK    2  A    between atoms: S1_3  and  C3_4 
REMARK    3  A    between atoms: C4_6  and  N1_7 
REMARK    4  A    between atoms: N2_10  and  C5_11 
REMARK    5  A    between atoms: C5_11  and  O1_12 
REMARK    6  A    between atoms: C5_11  and  C6_14 
REMARK    7  A    between atoms: C6_14  and  N3_15 
REMARK    8  A    between atoms: C11_21  and  C12_22 
REMARK    9  A    between atoms: C14_24  and  O3_25 
ROOT
HETATM    1  C3  UNL     1      27.034   0.341  17.294  1.00  0.00     0.096 A 
HETATM    2  S2  UNL     1      26.276  -0.717  18.396  1.00  0.00    -0.043 SA
HETATM    3  C4  UNL     1      25.759   0.454  19.538  1.00  0.00     0.149 A 
HETATM    4  N2  UNL     1      26.197   1.599  19.009  1.00  0.00    -0.278 N 
HETATM    5  C14 UNL     1      26.839   1.561  17.882  1.00  0.00     0.171 A 
ENDROOT
BRANCH   4   6
HETATM    6  C5  UNL     1      25.925   2.859  19.741  1.00  0.00     0.247 C 
BRANCH   6   7
HETATM    7  O1  UNL     1      26.266   2.771  21.075  1.00  0.00    -0.374 OA
ATOM      8  H1  UNL     1      26.045   3.561  21.556  1.00  0.00     0.212 HD
ENDBRANCH   6   7
BRANCH   6   9
HETATM    9  C6  UNL     1      24.510   3.269  19.487  1.00  0.00     0.180 C 
BRANCH   9  10
HETATM   10  N3  UNL     1      23.885   3.839  20.645  1.00  0.00    -0.343 N 
HETATM   11  C7  UNL     1      23.164   2.988  21.550  1.00  0.00     0.220 C 
HETATM   12  O2  UNL     1      22.528   1.985  21.149  1.00  0.00    -0.273 OA
HETATM   13  C8  UNL     1      23.146   3.274  23.015  1.00  0.00     0.103 C 
HETATM   14  C9  UNL     1      22.971   4.790  23.153  1.00  0.00     0.011 C 
HETATM   15  C10 UNL     1      24.121   5.425  22.407  1.00  0.00     0.026 C 
HETATM   16  C11 UNL     1      23.982   5.265  20.908  1.00  0.00     0.087 C 
BRANCH  16  17
HETATM   17  C12 UNL     1      22.786   5.983  20.355  1.00  0.00     0.021 C 
HETATM   18  C13 UNL     1      22.848   7.465  20.538  1.00  0.00     0.007 C 
ENDBRANCH  16  17
ENDBRANCH   9  10
ENDBRANCH   6   9
ENDBRANCH   4   6
BRANCH   3  19
HETATM   19  N1  UNL     1      25.091   0.257  20.658  1.00  0.00    -0.379 N 
ATOM     20  H12 UNL     1      24.107   0.432  20.860  1.00  0.00     0.158 HD
ATOM     21  H11 UNL     1      25.442  -0.114  21.542  1.00  0.00     0.158 HD
ENDBRANCH   3  19
BRANCH   5  22
HETATM   22  O3  UNL     1      27.357   2.704  17.214  1.00  0.00    -0.344 OA
ATOM     23  H3  UNL     1      27.604   3.450  17.746  1.00  0.00     0.219 HD
ENDBRANCH   5  22
BRANCH   1  24
HETATM   24  S1  UNL     1      27.868  -0.079  15.756  1.00  0.00    -0.119 SA
BRANCH  24  25
HETATM   25  C2  UNL     1      26.793   0.412  14.352  1.00  0.00     0.075 C 
HETATM   26  C1  UNL     1      27.507   1.531  13.628  1.00  0.00     0.016 C 
ENDBRANCH  24  25
ENDBRANCH   1  24
TORSDOF 9
ENDMDL
MODEL 2
REMARK VINA RESULT: -6.153597090      1.944      2.304
REMARK  9 active torsions:
REMARK  status: ('A' for Active; 'I' for Inactive)
REMARK    1  A    between atoms: C2_2  and  S1_3 
REMARK    2  A    between atoms: S1_3  and  C3_4 
REMARK    3  A    between atoms: C4_6  and  N1_7 
REMARK    4  A    between atoms: N2_10  and  C5_11 
REMARK    5  A    between atoms: C5_11  and  O1_12 
REMARK    6  A    between atoms: C5_11  and  C6_14 
REMARK    7  A    between atoms: C6_14  and  N3_15 
REMARK    8  A    between atoms: C11_21  and  C12_22 
REMARK    9  A    between atoms: C14_24  and  O3_25 
ROOT
HETATM    1  C3  UNL     1      27.289   0.443  15.722  1.00  0.00     0.096 A 
HETATM    2  S2  UNL     1      28.385   1.717  16.009  1.00  0.00    -0.043 SA
HETATM    3  C4  UNL     1      27.845   2.152  17.578  1.00  0.00     0.149 A 
HETATM    4  N2  UNL     1      26.848   1.292  17.799  1.00  0.00    -0.278 N 
HETATM    5  C14 UNL     1      26.555   0.426  16.877  1.00  0.00     0.171 A 
ENDROOT
BRANCH   4   6
HETATM    6  C5  UNL     1      26.125   1.372  19.089  1.00  0.00     0.247 C 
BRANCH   6   7
HETATM    7  O1  UNL     1      26.056   0.150  19.726  1.00  0.00    -0.374 OA
ATOM      8  H1  UNL     1      26.820  -0.020  20.265  1.00  0.00     0.212 HD
ENDBRANCH   6   7
BRANCH   6   9
HETATM    9  C6  UNL     1      24.803   2.031  18.863  1.00  0.00     0.180 C 
BRANCH   9  10
HETATM   10  N3  UNL     1      24.340   2.748  20.014  1.00  0.00    -0.343 N 
HETATM   11  C7  UNL     1      23.460   2.098  20.946  1.00  0.00     0.220 C 
HETATM   12  O2  UNL     1      22.609   1.256  20.574  1.00  0.00    -0.273 OA
HETATM   13  C8  UNL     1      23.530   2.408  22.404  1.00  0.00     0.103 C 
HETATM   14  C9  UNL     1      23.701   3.927  22.511  1.00  0.00     0.011 C 
HETATM   15  C10 UNL     1      24.952   4.274  21.739  1.00  0.00     0.026 C 
HETATM   16  C11 UNL     1      24.757   4.121  20.245  1.00  0.00     0.087 C 
BRANCH  16  17
HETATM   17  C12 UNL     1      23.745   5.078  19.690  1.00  0.00     0.021 C 
HETATM   18  C13 UNL     1      24.325   6.068  18.732  1.00  0.00     0.007 C 
ENDBRANCH  16  17
ENDBRANCH   9  10
ENDBRANCH   6   9
ENDBRANCH   4   6
BRANCH   3  19
HETATM   19  N1  UNL     1      28.311   3.104  18.363  1.00  0.00    -0.379 N 
ATOM     20  H12 UNL     1      29.122   3.089  18.980  1.00  0.00     0.158 HD
ATOM     21  H11 UNL     1      27.939   4.045  18.497  1.00  0.00     0.158 HD
ENDBRANCH   3  19
BRANCH   5  22
HETATM   22  O3  UNL     1      25.520  -0.542  16.984  1.00  0.00    -0.344 OA
ATOM     23  H3  UNL     1      24.874  -0.574  16.289  1.00  0.00     0.219 HD
ENDBRANCH   5  22
BRANCH   1  24
HETATM   24  S1  UNL     1      27.161  -0.594  14.258  1.00  0.00    -0.119 SA
BRANCH  24  25
HETATM   25  C2  UNL     1      26.410   0.390  12.904  1.00  0.00     0.075 C 
HETATM   26  C1  UNL     1      27.365   0.319  11.733  1.00  0.00     0.016 C 
ENDBRANCH  24  25
ENDBRANCH   1  24
TORSDOF 9
ENDMDL
MODEL 3
REMARK VINA RESULT: -6.103110426      2.920      7.107
REMARK  9 active torsions:
REMARK  status: ('A' for Active; 'I' for Inactive)
REMARK    1  A    between atoms: C2_2  and  S1_3 
REMARK    2  A    between atoms: S1_3  and  C3_4 
REMARK    3  A    between atoms: C4_6  and  N1_7 
REMARK    4  A    between atoms: N2_10  and  C5_11 
REMARK    5  A    between atoms: C5_11  and  O1_12 
REMARK    6  A    between atoms: C5_11  and  C6_14 
REMARK    7  A    between atoms: C6_14  and  N3_15 
REMARK    8  A    between atoms: C11_21  and  C12_22 
REMARK    9  A    between atoms: C14_24  and  O3_25 
ROOT
HETATM    1  C3  UNL     1      23.454   2.276  20.128  1.00  0.00     0.096 A 
HETATM    2  S2  UNL     1      24.119   1.428  21.449  1.00  0.00    -0.043 SA
HETATM    3  C4  UNL     1      24.834   0.137  20.573  1.00  0.00     0.149 A 
HETATM    4  N2  UNL     1      24.523   0.429  19.308  1.00  0.00    -0.278 N 
HETATM    5  C14 UNL     1      23.831   1.499  19.065  1.00  0.00     0.171 A 
ENDROOT
BRANCH   4   6
HETATM    6  C5  UNL     1      24.988  -0.491  18.243  1.00  0.00     0.247 C 
BRANCH   6   7
HETATM    7  O1  UNL     1      24.647  -1.803  18.500  1.00  0.00    -0.374 OA
ATOM      8  H1  UNL     1      24.449  -2.286  17.706  1.00  0.00     0.212 HD
ENDBRANCH   6   7
BRANCH   6   9
HETATM    9  C6  UNL     1      26.446  -0.262  18.009  1.00  0.00     0.180 C 
BRANCH   9  10
HETATM   10  N3  UNL     1      26.883  -0.747  16.733  1.00  0.00    -0.343 N 
HETATM   11  C7  UNL     1      27.574  -2.005  16.654  1.00  0.00     0.220 C 
HETATM   12  O2  UNL     1      28.341  -2.395  17.565  1.00  0.00    -0.273 OA
HETATM   13  C8  UNL     1      27.402  -2.896  15.470  1.00  0.00     0.103 C 
HETATM   14  C9  UNL     1      27.420  -1.982  14.239  1.00  0.00     0.011 C 
HETATM   15  C10 UNL     1      26.307  -0.980  14.433  1.00  0.00     0.026 C 
HETATM   16  C11 UNL     1      26.627   0.019  15.525  1.00  0.00     0.087 C 
BRANCH  16  17
HETATM   17  C12 UNL     1      27.805   0.886  15.194  1.00  0.00     0.021 C 
HETATM   18  C13 UNL     1      27.660   1.613  13.896  1.00  0.00     0.007 C 
ENDBRANCH  16  17
ENDBRANCH   9  10
ENDBRANCH   6   9
ENDBRANCH   4   6
BRANCH   3  19
HETATM   19  N1  UNL     1      25.520  -0.884  21.047  1.00  0.00    -0.379 N 
ATOM     20  H12 UNL     1      26.529  -0.984  21.161  1.00  0.00     0.158 HD
ATOM     21  H11 UNL     1      25.163  -1.775  21.394  1.00  0.00     0.158 HD
ENDBRANCH   3  19
BRANCH   5  22
HETATM   22  O3  UNL     1      23.434   1.923  17.767  1.00  0.00    -0.344 OA
ATOM     23  H3  UNL     1      22.564   1.683  17.474  1.00  0.00     0.219 HD
ENDBRANCH   5  22
BRANCH   1  24
HETATM   24  S1  UNL     1      22.505   3.803  20.161  1.00  0.00    -0.119 SA
BRANCH  24  25
HETATM   25  C2  UNL     1      23.671   5.220  20.167  1.00  0.00     0.075 C 
HETATM   26  C1  UNL     1      24.335   5.242  18.808  1.00  0.00     0.016 C 
ENDBRANCH  24  25
ENDBRANCH   1  24
TORSDOF 9
ENDMDL
MODEL 4
REMARK VINA RESULT: -6.061351171      2.663      7.100
REMARK  9 active torsions:
REMARK  status: ('A' for Active; 'I' for Inactive)
REMARK    1  A    between atoms: C2_2  and  S1_3 
REMARK    2  A    between atoms: S1_3  and  C3_4 
REMARK    3  A    between atoms: C4_6  and  N1_7 
REMARK    4  A    between atoms: N2_10  and  C5_11 
REMARK    5  A    between atoms: C5_11  and  O1_12 
REMARK    6  A    between atoms: C5_11  and  C6_14 
REMARK    7  A    between atoms: C6_14  and  N3_15 
REMARK    8  A    between atoms: C11_21  and  C12_22 
REMARK    9  A    between atoms: C14_24  and  O3_25 
ROOT
HETATM    1  C3  UNL     1      24.509   3.052  19.596  1.00  0.00     0.096 A 
HETATM    2  S2  UNL     1      23.233   2.365  18.698  1.00  0.00    -0.043 SA
HETATM    3  C4  UNL     1      24.078   1.005  18.080  1.00  0.00     0.149 A 
HETATM    4  N2  UNL     1      25.300   1.153  18.599  1.00  0.00    -0.278 N 
HETATM    5  C14 UNL     1      25.534   2.175  19.363  1.00  0.00     0.171 A 
ENDROOT
BRANCH   4   6
HETATM    6  C5  UNL     1      26.327   0.136  18.273  1.00  0.00     0.247 C 
BRANCH   6   7
HETATM    7  O1  UNL     1      26.864  -0.445  19.403  1.00  0.00    -0.374 OA
ATOM      8  H1  UNL     1      27.310   0.187  19.956  1.00  0.00     0.212 HD
ENDBRANCH   6   7
BRANCH   6   9
HETATM    9  C6  UNL     1      27.332   0.745  17.350  1.00  0.00     0.180 C 
BRANCH   9  10
HETATM   10  N3  UNL     1      27.372   0.096  16.072  1.00  0.00    -0.343 N 
HETATM   11  C7  UNL     1      27.948  -1.216  15.962  1.00  0.00     0.220 C 
HETATM   12  O2  UNL     1      28.917  -1.573  16.673  1.00  0.00    -0.273 OA
HETATM   13  C8  UNL     1      27.408  -2.207  14.987  1.00  0.00     0.103 C 
HETATM   14  C9  UNL     1      27.131  -1.430  13.695  1.00  0.00     0.011 C 
HETATM   15  C10 UNL     1      26.168  -0.323  14.059  1.00  0.00     0.026 C 
HETATM   16  C11 UNL     1      26.830   0.753  14.894  1.00  0.00     0.087 C 
BRANCH  16  17
HETATM   17  C12 UNL     1      27.913   1.479  14.153  1.00  0.00     0.021 C 
HETATM   18  C13 UNL     1      27.422   2.195  12.936  1.00  0.00     0.007 C 
ENDBRANCH  16  17
ENDBRANCH   9  10
ENDBRANCH   6   9
ENDBRANCH   4   6
BRANCH   3  19
HETATM   19  N1  UNL     1      23.620   0.055  17.289  1.00  0.00    -0.379 N 
ATOM     20  H12 UNL     1      24.063  -0.821  17.012  1.00  0.00     0.158 HD
ATOM     21  H11 UNL     1      22.724   0.020  16.802  1.00  0.00     0.158 HD
ENDBRANCH   3  19
BRANCH   5  22
HETATM   22  O3  UNL     1      26.787   2.449  19.976  1.00  0.00    -0.344 OA
ATOM     23  H3  UNL     1      27.000   1.976  20.771  1.00  0.00     0.219 HD
ENDBRANCH   5  22
BRANCH   1  24
HETATM   24  S1  UNL     1      24.478   4.553  20.587  1.00  0.00    -0.119 SA
BRANCH  24  25
HETATM   25  C2  UNL     1      23.474   5.814  19.712  1.00  0.00     0.075 C 
HETATM   26  C1  UNL     1      24.329   6.345  18.583  1.00  0.00     0.016 C 
ENDBRANCH  24  25
ENDBRANCH   1  24
TORSDOF 9
ENDMDL
MODEL 5
REMARK VINA RESULT: -6.061115588      4.168      6.510
REMARK  9 active torsions:
REMARK  status: ('A' for Active; 'I' for Inactive)
REMARK    1  A    between atoms: C2_2  and  S1_3 
REMARK    2  A    between atoms: S1_3  and  C3_4 
REMARK    3  A    between atoms: C4_6  and  N1_7 
REMARK    4  A    between atoms: N2_10  and  C5_11 
REMARK    5  A    between atoms: C5_11  and  O1_12 
REMARK    6  A    between atoms: C5_11  and  C6_14 
REMARK    7  A    between atoms: C6_14  and  N3_15 
REMARK    8  A    between atoms: C11_21  and  C12_22 
REMARK    9  A    between atoms: C14_24  and  O3_25 
ROOT
HETATM    1  C3  UNL     1      28.082   1.845  12.654  1.00  0.00     0.096 A 
HETATM    2  S2  UNL     1      27.928   0.490  11.631  1.00  0.00    -0.043 SA
HETATM    3  C4  UNL     1      27.100  -0.545  12.722  1.00  0.00     0.149 A 
HETATM    4  N2  UNL     1      26.985   0.210  13.818  1.00  0.00    -0.278 N 
HETATM    5  C14 UNL     1      27.473   1.413  13.802  1.00  0.00     0.171 A 
ENDROOT
BRANCH   4   6
HETATM    6  C5  UNL     1      26.305  -0.369  15.000  1.00  0.00     0.247 C 
BRANCH   6   7
HETATM    7  O1  UNL     1      25.086   0.229  15.246  1.00  0.00    -0.374 OA
ATOM      8  H1  UNL     1      25.178   1.136  15.512  1.00  0.00     0.212 HD
ENDBRANCH   6   7
BRANCH   6   9
HETATM    9  C6  UNL     1      27.250  -0.354  16.157  1.00  0.00     0.180 C 
BRANCH   9  10
HETATM   10  N3  UNL     1      26.574  -0.282  17.419  1.00  0.00    -0.343 N 
HETATM   11  C7  UNL     1      26.418   0.991  18.067  1.00  0.00     0.220 C 
HETATM   12  O2  UNL     1      27.288   1.889  17.976  1.00  0.00    -0.273 OA
HETATM   13  C8  UNL     1      25.204   1.290  18.880  1.00  0.00     0.103 C 
HETATM   14  C9  UNL     1      24.912   0.024  19.694  1.00  0.00     0.011 C 
HETATM   15  C10 UNL     1      24.736  -1.097  18.697  1.00  0.00     0.026 C 
HETATM   16  C11 UNL     1      26.045  -1.484  18.042  1.00  0.00     0.087 C 
BRANCH  16  17
HETATM   17  C12 UNL     1      27.036  -2.052  19.014  1.00  0.00     0.021 C 
HETATM   18  C13 UNL     1      28.086  -2.896  18.366  1.00  0.00     0.007 C 
ENDBRANCH  16  17
ENDBRANCH   9  10
ENDBRANCH   6   9
ENDBRANCH   4   6
BRANCH   3  19
HETATM   19  N1  UNL     1      26.685  -1.779  12.515  1.00  0.00    -0.379 N 
ATOM     20  H12 UNL     1      26.449  -2.239  11.636  1.00  0.00     0.158 HD
ATOM     21  H11 UNL     1      26.521  -2.511  13.206  1.00  0.00     0.158 HD
ENDBRANCH   3  19
BRANCH   5  22
HETATM   22  O3  UNL     1      27.418   2.317  14.898  1.00  0.00    -0.344 OA
ATOM     23  H3  UNL     1      26.577   2.706  15.104  1.00  0.00     0.219 HD
ENDBRANCH   5  22
BRANCH   1  24
HETATM   24  S1  UNL     1      28.855   3.426  12.284  1.00  0.00    -0.119 SA
BRANCH  24  25
HETATM   25  C2  UNL     1      30.464   3.113  11.459  1.00  0.00     0.075 C 
HETATM   26  C1  UNL     1      31.377   4.258  11.838  1.00  0.00     0.016 C 
ENDBRANCH  24  25
ENDBRANCH   1  24
TORSDOF 9
ENDMDL
