MODEL 1
REMARK VINA RESULT: -7.185066478      0.000      0.000
REMARK  11 active torsions:
REMARK  status: ('A' for Active; 'I' for Inactive)
REMARK    1  A    between atoms: C2_2  and  O1_3 
REMARK    2  A    between atoms: O1_3  and  C3_4 
REMARK    3  A    between atoms: C3_4  and  C4_6 
REMARK    4  A    between atoms: C5_7  and  C6_8 
REMARK    5  A    between atoms: C9_11  and  O3_12 
REMARK    6  A    between atoms: C10_14  and  O4_15 
REMARK    7  A    between atoms: C11_17  and  N1_18 
REMARK    8  A    between atoms: C12_20  and  C13_21 
REMARK    9  A    between atoms: C13_21  and  C14_22 
REMARK   10  A    between atoms: C14_22  and  O6_24 
REMARK   11  A    between atoms: C16_26  and  O7_27 
ROOT
HETATM    1  C6  UNL     1      22.985   7.560  19.677  1.00  0.00     0.008 A 
HETATM    2  C7  UNL     1      22.265   8.285  18.722  1.00  0.00    -0.013 A 
HETATM    3  C8  UNL     1      22.741   8.283  17.332  1.00  0.00     0.052 C 
HETATM    4  C9  UNL     1      21.145   8.969  19.130  1.00  0.00     0.108 A 
HETATM    5  C10 UNL     1      20.750   8.933  20.457  1.00  0.00     0.129 A 
HETATM    6  C11 UNL     1      21.434   8.231  21.413  1.00  0.00     0.102 A 
HETATM    7  C16 UNL     1      22.569   7.537  20.993  1.00  0.00     0.106 A 
ENDROOT
BRANCH   6   8
HETATM    8  N1  UNL     1      21.026   8.198  22.783  1.00  0.00    -0.365 N 
HETATM    9  C12 UNL     1      21.400   9.119  23.603  1.00  0.00     0.071 C 
ATOM     10  H1  UNL     1      20.431   7.437  23.114  1.00  0.00     0.165 HD
BRANCH   9  11
HETATM   11  C13 UNL     1      21.013   9.142  25.027  1.00  0.00     0.155 C 
BRANCH  11  12
HETATM   12  C14 UNL     1      19.611   8.666  25.141  1.00  0.00     0.263 C 
HETATM   13  O5  UNL     1      18.694   9.485  25.493  1.00  0.00    -0.265 OA
BRANCH  12  14
HETATM   14  O6  UNL     1      19.250   7.353  24.878  1.00  0.00    -0.326 OA
HETATM   15  C15 UNL     1      19.659   6.338  25.801  1.00  0.00     0.213 C 
ENDBRANCH  12  14
ENDBRANCH  11  12
ENDBRANCH   9  11
ENDBRANCH   6   8
BRANCH   5  16
HETATM   16  O4  UNL     1      19.616   9.629  20.868  1.00  0.00    -0.356 OA
ATOM     17  H4  UNL     1      18.775   9.190  20.908  1.00  0.00     0.218 HD
ENDBRANCH   5  16
BRANCH   7  18
HETATM   18  O7  UNL     1      23.237   6.816  21.977  1.00  0.00    -0.357 OA
ATOM     19  H7  UNL     1      22.869   6.039  22.379  1.00  0.00     0.217 HD
ENDBRANCH   7  18
BRANCH   4  20
HETATM   20  O3  UNL     1      20.415   9.697  18.191  1.00  0.00    -0.357 OA
ATOM     21  H3  UNL     1      19.600   9.337  17.858  1.00  0.00     0.217 HD
ENDBRANCH   4  20
BRANCH   1  22
HETATM   22  C5  UNL     1      24.082   6.759  19.175  1.00  0.00     0.021 C 
HETATM   23  C4  UNL     1      24.211   5.489  19.300  1.00  0.00     0.083 C 
BRANCH  23  24
HETATM   24  C3  UNL     1      23.408   4.516  19.934  1.00  0.00     0.282 C 
HETATM   25  O2  UNL     1      22.378   3.983  19.480  1.00  0.00    -0.260 OA
BRANCH  24  26
HETATM   26  O1  UNL     1      23.789   4.070  21.235  1.00  0.00    -0.319 OA
BRANCH  26  27
HETATM   27  C2  UNL     1      25.150   3.683  21.476  1.00  0.00     0.174 C 
HETATM   28  C1  UNL     1      25.365   2.360  20.777  1.00  0.00     0.034 C 
ENDBRANCH  26  27
ENDBRANCH  24  26
ENDBRANCH  23  24
ENDBRANCH   1  22
TORSDOF 11
ENDMDL
MODEL 2
REMARK VINA RESULT: -6.997136193      1.893      4.446
REMARK  11 active torsions:
REMARK  status: ('A' for Active; 'I' for Inactive)
REMARK    1  A    between atoms: C2_2  and  O1_3 
REMARK    2  A    between atoms: O1_3  and  C3_4 
REMARK    3  A    between atoms: C3_4  and  C4_6 
REMARK    4  A    between atoms: C5_7  and  C6_8 
REMARK    5  A    between atoms: C9_11  and  O3_12 
REMARK    6  A    between atoms: C10_14  and  O4_15 
REMARK    7  A    between atoms: C11_17  and  N1_18 
REMARK    8  A    between atoms: C12_20  and  C13_21 
REMARK    9  A    between atoms: C13_21  and  C14_22 
REMARK   10  A    between atoms: C14_22  and  O6_24 
REMARK   11  A    between atoms: C16_26  and  O7_27 
ROOT
HETATM    1  C6  UNL     1      22.885   5.620  20.758  1.00  0.00     0.008 A 
HETATM    2  C7  UNL     1      22.553   4.297  20.448  1.00  0.00    -0.013 A 
HETATM    3  C8  UNL     1      23.046   3.723  19.189  1.00  0.00     0.052 C 
HETATM    4  C9  UNL     1      21.775   3.595  21.338  1.00  0.00     0.108 A 
HETATM    5  C10 UNL     1      21.339   4.194  22.508  1.00  0.00     0.129 A 
HETATM    6  C11 UNL     1      21.650   5.486  22.837  1.00  0.00     0.102 A 
HETATM    7  C16 UNL     1      22.441   6.193  21.932  1.00  0.00     0.106 A 
ENDROOT
BRANCH   6   8
HETATM    8  N1  UNL     1      21.196   6.103  24.045  1.00  0.00    -0.365 N 
HETATM    9  C12 UNL     1      20.001   6.578  24.131  1.00  0.00     0.071 C 
ATOM     10  H1  UNL     1      21.825   6.167  24.846  1.00  0.00     0.165 HD
BRANCH   9  11
HETATM   11  C13 UNL     1      19.472   7.226  25.347  1.00  0.00     0.155 C 
BRANCH  11  12
HETATM   12  C14 UNL     1      19.481   8.697  25.138  1.00  0.00     0.263 C 
HETATM   13  O5  UNL     1      18.586   9.418  25.698  1.00  0.00    -0.265 OA
BRANCH  12  14
HETATM   14  O6  UNL     1      20.431   9.327  24.349  1.00  0.00    -0.326 OA
HETATM   15  C15 UNL     1      21.660   9.734  24.960  1.00  0.00     0.213 C 
ENDBRANCH  12  14
ENDBRANCH  11  12
ENDBRANCH   9  11
ENDBRANCH   6   8
BRANCH   5  16
HETATM   16  O4  UNL     1      20.549   3.481  23.407  1.00  0.00    -0.356 OA
ATOM     17  H4  UNL     1      20.252   3.891  24.210  1.00  0.00     0.218 HD
ENDBRANCH   5  16
BRANCH   7  18
HETATM   18  O7  UNL     1      22.760   7.497  22.295  1.00  0.00    -0.357 OA
ATOM     19  H7  UNL     1      23.563   7.717  22.753  1.00  0.00     0.217 HD
ENDBRANCH   7  18
BRANCH   4  20
HETATM   20  O3  UNL     1      21.434   2.274  21.046  1.00  0.00    -0.357 OA
ATOM     21  H3  UNL     1      20.784   1.835  21.583  1.00  0.00     0.217 HD
ENDBRANCH   4  20
BRANCH   1  22
HETATM   22  C5  UNL     1      23.806   6.274  19.850  1.00  0.00     0.021 C 
HETATM   23  C4  UNL     1      23.541   7.281  19.101  1.00  0.00     0.083 C 
BRANCH  23  24
HETATM   24  C3  UNL     1      22.359   8.027  18.903  1.00  0.00     0.282 C 
HETATM   25  O2  UNL     1      21.606   8.487  19.782  1.00  0.00    -0.260 OA
BRANCH  24  26
HETATM   26  O1  UNL     1      21.951   8.300  17.563  1.00  0.00    -0.319 OA
BRANCH  26  27
HETATM   27  C2  UNL     1      22.767   9.147  16.738  1.00  0.00     0.174 C 
HETATM   28  C1  UNL     1      23.229   8.312  15.566  1.00  0.00     0.034 C 
ENDBRANCH  26  27
ENDBRANCH  24  26
ENDBRANCH  23  24
ENDBRANCH   1  22
TORSDOF 11
ENDMDL
MODEL 3
REMARK VINA RESULT: -6.954958784      2.820      5.890
REMARK  11 active torsions:
REMARK  status: ('A' for Active; 'I' for Inactive)
REMARK    1  A    between atoms: C2_2  and  O1_3 
REMARK    2  A    between atoms: O1_3  and  C3_4 
REMARK    3  A    between atoms: C3_4  and  C4_6 
REMARK    4  A    between atoms: C5_7  and  C6_8 
REMARK    5  A    between atoms: C9_11  and  O3_12 
REMARK    6  A    between atoms: C10_14  and  O4_15 
REMARK    7  A    between atoms: C11_17  and  N1_18 
REMARK    8  A    between atoms: C12_20  and  C13_21 
REMARK    9  A    between atoms: C13_21  and  C14_22 
REMARK   10  A    between atoms: C14_22  and  O6_24 
REMARK   11  A    between atoms: C16_26  and  O7_27 
ROOT
HETATM    1  C6  UNL     1      21.277   5.884  23.833  1.00  0.00     0.008 A 
HETATM    2  C7  UNL     1      20.279   6.687  24.395  1.00  0.00    -0.013 A 
HETATM    3  C8  UNL     1      19.548   6.184  25.565  1.00  0.00     0.052 C 
HETATM    4  C9  UNL     1      20.027   7.910  23.823  1.00  0.00     0.108 A 
HETATM    5  C10 UNL     1      20.751   8.327  22.717  1.00  0.00     0.129 A 
HETATM    6  C11 UNL     1      21.734   7.562  22.147  1.00  0.00     0.102 A 
HETATM    7  C16 UNL     1      21.987   6.323  22.732  1.00  0.00     0.106 A 
ENDROOT
BRANCH   6   8
HETATM    8  N1  UNL     1      22.477   7.993  21.004  1.00  0.00    -0.365 N 
HETATM    9  C12 UNL     1      22.156   7.593  19.821  1.00  0.00     0.071 C 
ATOM     10  H1  UNL     1      23.270   8.624  21.126  1.00  0.00     0.165 HD
BRANCH   9  11
HETATM   11  C13 UNL     1      22.882   8.001  18.603  1.00  0.00     0.155 C 
BRANCH  11  12
HETATM   12  C14 UNL     1      22.028   8.949  17.842  1.00  0.00     0.263 C 
HETATM   13  O5  UNL     1      21.031   9.502  18.420  1.00  0.00    -0.265 OA
BRANCH  12  14
HETATM   14  O6  UNL     1      22.271   9.262  16.513  1.00  0.00    -0.326 OA
HETATM   15  C15 UNL     1      23.163   8.425  15.769  1.00  0.00     0.213 C 
ENDBRANCH  12  14
ENDBRANCH  11  12
ENDBRANCH   9  11
ENDBRANCH   6   8
BRANCH   5  16
HETATM   16  O4  UNL     1      20.491   9.566  22.138  1.00  0.00    -0.356 OA
ATOM     17  H4  UNL     1      19.605   9.907  22.117  1.00  0.00     0.218 HD
ENDBRANCH   5  16
BRANCH   7  18
HETATM   18  O7  UNL     1      23.002   5.572  22.149  1.00  0.00    -0.357 OA
ATOM     19  H7  UNL     1      23.824   5.395  22.590  1.00  0.00     0.217 HD
ENDBRANCH   7  18
BRANCH   4  20
HETATM   20  O3  UNL     1      19.036   8.725  24.370  1.00  0.00    -0.357 OA
ATOM     21  H3  UNL     1      19.098   9.667  24.260  1.00  0.00     0.217 HD
ENDBRANCH   4  20
BRANCH   1  22
HETATM   22  C5  UNL     1      21.588   4.662  24.545  1.00  0.00     0.021 C 
HETATM   23  C4  UNL     1      21.394   3.468  24.118  1.00  0.00     0.083 C 
BRANCH  23  24
HETATM   24  C3  UNL     1      20.841   2.971  22.917  1.00  0.00     0.282 C 
HETATM   25  O2  UNL     1      21.367   2.983  21.788  1.00  0.00    -0.260 OA
BRANCH  24  26
HETATM   26  O1  UNL     1      19.540   2.386  22.965  1.00  0.00    -0.319 OA
BRANCH  26  27
HETATM   27  C2  UNL     1      19.258   1.232  22.158  1.00  0.00     0.174 C 
HETATM   28  C1  UNL     1      17.792   1.295  21.792  1.00  0.00     0.034 C 
ENDBRANCH  26  27
ENDBRANCH  24  26
ENDBRANCH  23  24
ENDBRANCH   1  22
TORSDOF 11
ENDMDL
MODEL 4
REMARK VINA RESULT: -6.952805232      2.915      5.871
REMARK  11 active torsions:
REMARK  status: ('A' for Active; 'I' for Inactive)
REMARK    1  A    between atoms: C2_2  and  O1_3 
REMARK    2  A    between atoms: O1_3  and  C3_4 
REMARK    3  A    between atoms: C3_4  and  C4_6 
REMARK    4  A    between atoms: C5_7  and  C6_8 
REMARK    5  A    between atoms: C9_11  and  O3_12 
REMARK    6  A    between atoms: C10_14  and  O4_15 
REMARK    7  A    between atoms: C11_17  and  N1_18 
REMARK    8  A    between atoms: C12_20  and  C13_21 
REMARK    9  A    between atoms: C13_21  and  C14_22 
REMARK   10  A    between atoms: C14_22  and  O6_24 
REMARK   11  A    between atoms: C16_26  and  O7_27 
ROOT
HETATM    1  C6  UNL     1      21.819   6.172  23.062  1.00  0.00     0.008 A 
HETATM    2  C7  UNL     1      20.789   6.807  23.763  1.00  0.00    -0.013 A 
HETATM    3  C8  UNL     1      20.307   6.198  25.010  1.00  0.00     0.052 C 
HETATM    4  C9  UNL     1      20.272   7.972  23.250  1.00  0.00     0.108 A 
HETATM    5  C10 UNL     1      20.768   8.494  22.066  1.00  0.00     0.129 A 
HETATM    6  C11 UNL     1      21.777   7.895  21.360  1.00  0.00     0.102 A 
HETATM    7  C16 UNL     1      22.299   6.714  21.886  1.00  0.00     0.106 A 
ENDROOT
BRANCH   6   8
HETATM    8  N1  UNL     1      22.285   8.435  20.137  1.00  0.00    -0.365 N 
HETATM    9  C12 UNL     1      21.685   8.209  19.019  1.00  0.00     0.071 C 
ATOM     10  H1  UNL     1      23.131   9.006  20.151  1.00  0.00     0.165 HD
BRANCH   9  11
HETATM   11  C13 UNL     1      22.159   8.736  17.724  1.00  0.00     0.155 C 
BRANCH  11  12
HETATM   12  C14 UNL     1      23.414   8.030  17.359  1.00  0.00     0.263 C 
HETATM   13  O5  UNL     1      23.942   7.214  18.190  1.00  0.00    -0.265 OA
BRANCH  12  14
HETATM   14  O6  UNL     1      24.044   8.222  16.139  1.00  0.00    -0.326 OA
HETATM   15  C15 UNL     1      23.240   8.240  14.954  1.00  0.00     0.213 C 
ENDBRANCH  12  14
ENDBRANCH  11  12
ENDBRANCH   9  11
ENDBRANCH   6   8
BRANCH   5  16
HETATM   16  O4  UNL     1      20.241   9.674  21.547  1.00  0.00    -0.356 OA
ATOM     17  H4  UNL     1      19.300   9.790  21.487  1.00  0.00     0.218 HD
ENDBRANCH   5  16
BRANCH   7  18
HETATM   18  O7  UNL     1      23.334   6.133  21.162  1.00  0.00    -0.357 OA
ATOM     19  H7  UNL     1      23.990   6.648  20.706  1.00  0.00     0.217 HD
ENDBRANCH   7  18
BRANCH   4  20
HETATM   20  O3  UNL     1      19.245   8.619  23.935  1.00  0.00    -0.357 OA
ATOM     21  H3  UNL     1      19.462   9.190  24.664  1.00  0.00     0.217 HD
ENDBRANCH   4  20
BRANCH   1  22
HETATM   22  C5  UNL     1      22.411   5.018  23.706  1.00  0.00     0.021 C 
HETATM   23  C4  UNL     1      22.187   3.790  23.411  1.00  0.00     0.083 C 
BRANCH  23  24
HETATM   24  C3  UNL     1      21.345   3.186  22.453  1.00  0.00     0.282 C 
HETATM   25  O2  UNL     1      21.643   2.868  21.286  1.00  0.00    -0.260 OA
BRANCH  24  26
HETATM   26  O1  UNL     1      19.998   2.895  22.826  1.00  0.00    -0.319 OA
BRANCH  26  27
HETATM   27  C2  UNL     1      19.605   1.529  23.032  1.00  0.00     0.174 C 
HETATM   28  C1  UNL     1      18.650   1.170  21.917  1.00  0.00     0.034 C 
ENDBRANCH  26  27
ENDBRANCH  24  26
ENDBRANCH  23  24
ENDBRANCH   1  22
TORSDOF 11
ENDMDL
MODEL 5
REMARK VINA RESULT: -6.931413160      2.146      5.011
REMARK  11 active torsions:
REMARK  status: ('A' for Active; 'I' for Inactive)
REMARK    1  A    between atoms: C2_2  and  O1_3 
REMARK    2  A    between atoms: O1_3  and  C3_4 
REMARK    3  A    between atoms: C3_4  and  C4_6 
REMARK    4  A    between atoms: C5_7  and  C6_8 
REMARK    5  A    between atoms: C9_11  and  O3_12 
REMARK    6  A    between atoms: C10_14  and  O4_15 
REMARK    7  A    between atoms: C11_17  and  N1_18 
REMARK    8  A    between atoms: C12_20  and  C13_21 
REMARK    9  A    between atoms: C13_21  and  C14_22 
REMARK   10  A    between atoms: C14_22  and  O6_24 
REMARK   11  A    between atoms: C16_26  and  O7_27 
ROOT
HETATM    1  C6  UNL     1      23.069   5.570  20.475  1.00  0.00     0.008 A 
HETATM    2  C7  UNL     1      23.381   4.539  19.583  1.00  0.00    -0.013 A 
HETATM    3  C8  UNL     1      24.255   4.836  18.441  1.00  0.00     0.052 C 
HETATM    4  C9  UNL     1      22.852   3.292  19.817  1.00  0.00     0.108 A 
HETATM    5  C10 UNL     1      22.031   3.076  20.911  1.00  0.00     0.129 A 
HETATM    6  C11 UNL     1      21.710   4.066  21.801  1.00  0.00     0.102 A 
HETATM    7  C16 UNL     1      22.250   5.329  21.560  1.00  0.00     0.106 A 
ENDROOT
BRANCH   6   8
HETATM    8  N1  UNL     1      20.859   3.841  22.928  1.00  0.00    -0.365 N 
HETATM    9  C12 UNL     1      21.360   3.586  24.089  1.00  0.00     0.071 C 
ATOM     10  H1  UNL     1      19.847   3.883  22.813  1.00  0.00     0.165 HD
BRANCH   9  11
HETATM   11  C13 UNL     1      20.538   3.344  25.290  1.00  0.00     0.155 C 
BRANCH  11  12
HETATM   12  C14 UNL     1      19.605   4.487  25.459  1.00  0.00     0.263 C 
HETATM   13  O5  UNL     1      18.606   4.373  26.250  1.00  0.00    -0.265 OA
BRANCH  12  14
HETATM   14  O6  UNL     1      19.774   5.688  24.786  1.00  0.00    -0.326 OA
HETATM   15  C15 UNL     1      19.735   6.903  25.542  1.00  0.00     0.213 C 
ENDBRANCH  12  14
ENDBRANCH  11  12
ENDBRANCH   9  11
ENDBRANCH   6   8
BRANCH   5  16
HETATM   16  O4  UNL     1      21.494   1.812  21.144  1.00  0.00    -0.356 OA
ATOM     17  H4  UNL     1      21.192   1.281  20.417  1.00  0.00     0.218 HD
ENDBRANCH   5  16
BRANCH   7  18
HETATM   18  O7  UNL     1      21.926   6.314  22.486  1.00  0.00    -0.357 OA
ATOM     19  H7  UNL     1      21.415   6.134  23.266  1.00  0.00     0.217 HD
ENDBRANCH   7  18
BRANCH   4  20
HETATM   20  O3  UNL     1      23.153   2.251  18.939  1.00  0.00    -0.357 OA
ATOM     21  H3  UNL     1      22.767   2.252  18.070  1.00  0.00     0.217 HD
ENDBRANCH   4  20
BRANCH   1  22
HETATM   22  C5  UNL     1      23.748   6.830  20.254  1.00  0.00     0.021 C 
HETATM   23  C4  UNL     1      23.196   7.938  19.917  1.00  0.00     0.083 C 
BRANCH  23  24
HETATM   24  C3  UNL     1      21.854   8.281  19.647  1.00  0.00     0.282 C 
HETATM   25  O2  UNL     1      20.957   8.514  20.480  1.00  0.00    -0.260 OA
BRANCH  24  26
HETATM   26  O1  UNL     1      21.444   8.382  18.283  1.00  0.00    -0.319 OA
BRANCH  26  27
HETATM   27  C2  UNL     1      21.947   9.457  17.475  1.00  0.00     0.174 C 
HETATM   28  C1  UNL     1      22.713   8.832  16.332  1.00  0.00     0.034 C 
ENDBRANCH  26  27
ENDBRANCH  24  26
ENDBRANCH  23  24
ENDBRANCH   1  22
TORSDOF 11
ENDMDL
