MODEL 1
REMARK VINA RESULT: -6.359681165      0.000      0.000
REMARK  10 active torsions:
REMARK  status: ('A' for Active; 'I' for Inactive)
REMARK    1  A    between atoms: C2_2  and  O1_3 
REMARK    2  A    between atoms: C2_2  and  C4_11 
REMARK    3  A    between atoms: O1_3  and  C3_4 
REMARK       I    between atoms: C3_4  and  N1_6 
REMARK    4  A    between atoms: N1_6  and  N2_8 
REMARK    5  A    between atoms: N3_13  and  C6_14 
REMARK    6  A    between atoms: C6_14  and  C7_15 
REMARK    7  A    between atoms: C6_14  and  C8_18 
REMARK    8  A    between atoms: C7_15  and  O3_16 
REMARK    9  A    between atoms: C8_18  and  O4_19 
REMARK   10  A    between atoms: O4_19  and  C9_20 
ROOT
HETATM    1  C4  UNL     1      22.266   7.402  19.742  1.00  0.00     0.030 A 
HETATM    2  C5  UNL     1      21.914   7.342  21.063  1.00  0.00     0.110 A 
HETATM    3  N3  UNL     1      22.562   6.524  21.837  1.00  0.00    -0.332 N 
HETATM    4  C13 UNL     1      23.538   5.785  21.299  1.00  0.00     0.145 A 
HETATM    5  S1  UNL     1      24.532   4.674  21.989  1.00  0.00    -0.052 SA
HETATM    6  S2  UNL     1      23.533   6.262  19.662  1.00  0.00    -0.061 SA
ENDROOT
BRANCH   1   7
HETATM    7  C2  UNL     1      21.699   8.242  18.634  1.00  0.00     0.171 C 
HETATM    8  C1  UNL     1      20.788   9.279  19.243  1.00  0.00     0.046 C 
BRANCH   7   9
HETATM    9  O1  UNL     1      22.727   8.908  17.932  1.00  0.00    -0.292 OA
BRANCH   9  10
HETATM   10  C3  UNL     1      22.846   8.739  16.554  1.00  0.00     0.379 C 
HETATM   11  O2  UNL     1      22.082   9.403  15.811  1.00  0.00    -0.237 OA
HETATM   12  N1  UNL     1      23.795   7.852  15.981  1.00  0.00    -0.252 N 
ATOM     13  H1  UNL     1      24.417   7.314  16.585  1.00  0.00     0.191 HD
BRANCH  12  14
HETATM   14  N2  UNL     1      23.879   7.715  14.597  1.00  0.00    -0.341 N 
ATOM     15  H22 UNL     1      24.123   6.805  14.206  1.00  0.00     0.177 HD
ATOM     16  H21 UNL     1      23.699   8.515  13.990  1.00  0.00     0.177 HD
ENDBRANCH  12  14
ENDBRANCH   9  10
ENDBRANCH   7   9
ENDBRANCH   1   7
BRANCH   3  17
HETATM   17  C6  UNL     1      22.277   6.368  23.285  1.00  0.00     0.138 C 
BRANCH  17  18
HETATM   18  C7  UNL     1      21.349   5.193  23.503  1.00  0.00     0.192 C 
BRANCH  18  19
HETATM   19  O3  UNL     1      20.026   5.557  23.540  1.00  0.00    -0.399 OA
ATOM     20  H3  UNL     1      19.475   5.001  23.001  1.00  0.00     0.209 HD
ENDBRANCH  18  19
ENDBRANCH  17  18
BRANCH  17  21
HETATM   21  C8  UNL     1      21.594   7.599  23.833  1.00  0.00     0.196 C 
BRANCH  21  22
HETATM   22  O4  UNL     1      21.424   7.409  25.188  1.00  0.00    -0.379 OA
BRANCH  22  23
HETATM   23  C9  UNL     1      20.798   8.446  25.837  1.00  0.00     0.050 C 
HETATM   24  C10 UNL     1      20.942   8.330  27.358  1.00  0.00     0.045 C 
HETATM   25  C11 UNL     1      19.322   8.541  25.553  1.00  0.00     0.045 C 
HETATM   26  C12 UNL     1      21.471   9.736  25.400  1.00  0.00     0.045 C 
ENDBRANCH  22  23
ENDBRANCH  21  22
ENDBRANCH  17  21
ENDBRANCH   3  17
TORSDOF 10
ENDMDL
MODEL 2
REMARK VINA RESULT: -6.134649721      7.694     11.187
REMARK  10 active torsions:
REMARK  status: ('A' for Active; 'I' for Inactive)
REMARK    1  A    between atoms: C2_2  and  O1_3 
REMARK    2  A    between atoms: C2_2  and  C4_11 
REMARK    3  A    between atoms: O1_3  and  C3_4 
REMARK       I    between atoms: C3_4  and  N1_6 
REMARK    4  A    between atoms: N1_6  and  N2_8 
REMARK    5  A    between atoms: N3_13  and  C6_14 
REMARK    6  A    between atoms: C6_14  and  C7_15 
REMARK    7  A    between atoms: C6_14  and  C8_18 
REMARK    8  A    between atoms: C7_15  and  O3_16 
REMARK    9  A    between atoms: C8_18  and  O4_19 
REMARK   10  A    between atoms: O4_19  and  C9_20 
ROOT
HETATM    1  C4  UNL     1      25.887   0.956  18.989  1.00  0.00     0.030 A 
HETATM    2  C5  UNL     1      26.676   1.288  17.922  1.00  0.00     0.110 A 
HETATM    3  N3  UNL     1      27.237   0.329  17.247  1.00  0.00    -0.332 N 
HETATM    4  C13 UNL     1      27.010  -0.931  17.634  1.00  0.00     0.145 A 
HETATM    5  S1  UNL     1      27.557  -2.348  17.009  1.00  0.00    -0.052 SA
HETATM    6  S2  UNL     1      25.983  -0.748  18.982  1.00  0.00    -0.061 SA
ENDROOT
BRANCH   1   7
HETATM    7  C2  UNL     1      25.127   1.842  19.934  1.00  0.00     0.171 C 
HETATM    8  C1  UNL     1      26.047   2.942  20.398  1.00  0.00     0.046 C 
BRANCH   7   9
HETATM    9  O1  UNL     1      24.018   2.430  19.288  1.00  0.00    -0.292 OA
BRANCH   9  10
HETATM   10  C3  UNL     1      22.842   2.657  20.000  1.00  0.00     0.379 C 
HETATM   11  O2  UNL     1      22.456   3.844  20.138  1.00  0.00    -0.237 OA
HETATM   12  N1  UNL     1      22.083   1.597  20.563  1.00  0.00    -0.252 N 
ATOM     13  H1  UNL     1      22.396   0.633  20.451  1.00  0.00     0.191 HD
BRANCH  12  14
HETATM   14  N2  UNL     1      20.913   1.871  21.269  1.00  0.00    -0.341 N 
ATOM     15  H22 UNL     1      20.523   2.813  21.231  1.00  0.00     0.177 HD
ATOM     16  H21 UNL     1      20.458   1.138  21.813  1.00  0.00     0.177 HD
ENDBRANCH  12  14
ENDBRANCH   9  10
ENDBRANCH   7   9
ENDBRANCH   1   7
BRANCH   3  17
HETATM   17  C6  UNL     1      28.112   0.559  16.072  1.00  0.00     0.138 C 
BRANCH  17  18
HETATM   18  C7  UNL     1      28.733   1.936  16.153  1.00  0.00     0.192 C 
BRANCH  18  19
HETATM   19  O3  UNL     1      29.899   1.955  16.876  1.00  0.00    -0.399 OA
ATOM     20  H3  UNL     1      30.625   1.548  16.418  1.00  0.00     0.209 HD
ENDBRANCH  18  19
ENDBRANCH  17  18
BRANCH  17  21
HETATM   21  C8  UNL     1      27.317   0.489  14.790  1.00  0.00     0.196 C 
BRANCH  21  22
HETATM   22  O4  UNL     1      28.012   1.199  13.832  1.00  0.00    -0.379 OA
BRANCH  22  23
HETATM   23  C9  UNL     1      27.346   1.356  12.641  1.00  0.00     0.050 C 
HETATM   24  C10 UNL     1      25.952   0.721  12.685  1.00  0.00     0.045 C 
HETATM   25  C11 UNL     1      28.056   0.747  11.460  1.00  0.00     0.045 C 
HETATM   26  C12 UNL     1      27.175   2.846  12.403  1.00  0.00     0.045 C 
ENDBRANCH  22  23
ENDBRANCH  21  22
ENDBRANCH  17  21
ENDBRANCH   3  17
TORSDOF 10
ENDMDL
MODEL 3
REMARK VINA RESULT: -6.119221081      5.405      6.483
REMARK  10 active torsions:
REMARK  status: ('A' for Active; 'I' for Inactive)
REMARK    1  A    between atoms: C2_2  and  O1_3 
REMARK    2  A    between atoms: C2_2  and  C4_11 
REMARK    3  A    between atoms: O1_3  and  C3_4 
REMARK       I    between atoms: C3_4  and  N1_6 
REMARK    4  A    between atoms: N1_6  and  N2_8 
REMARK    5  A    between atoms: N3_13  and  C6_14 
REMARK    6  A    between atoms: C6_14  and  C7_15 
REMARK    7  A    between atoms: C6_14  and  C8_18 
REMARK    8  A    between atoms: C7_15  and  O3_16 
REMARK    9  A    between atoms: C8_18  and  O4_19 
REMARK   10  A    between atoms: O4_19  and  C9_20 
ROOT
HETATM    1  C4  UNL     1      20.917   2.562  23.201  1.00  0.00     0.030 A 
HETATM    2  C5  UNL     1      20.865   3.790  23.801  1.00  0.00     0.110 A 
HETATM    3  N3  UNL     1      21.240   3.887  25.042  1.00  0.00    -0.332 N 
HETATM    4  C13 UNL     1      21.659   2.779  25.663  1.00  0.00     0.145 A 
HETATM    5  S1  UNL     1      22.193   2.561  27.201  1.00  0.00    -0.052 SA
HETATM    6  S2  UNL     1      21.514   1.578  24.462  1.00  0.00    -0.061 SA
ENDROOT
BRANCH   1   7
HETATM    7  C2  UNL     1      20.551   2.160  21.801  1.00  0.00     0.171 C 
HETATM    8  C1  UNL     1      21.806   1.726  21.087  1.00  0.00     0.046 C 
BRANCH   7   9
HETATM    9  O1  UNL     1      19.644   1.078  21.810  1.00  0.00    -0.292 OA
BRANCH   9  10
HETATM   10  C3  UNL     1      18.286   1.314  22.009  1.00  0.00     0.379 C 
HETATM   11  O2  UNL     1      17.854   1.310  23.188  1.00  0.00    -0.237 OA
HETATM   12  N1  UNL     1      17.395   1.555  20.930  1.00  0.00    -0.252 N 
ATOM     13  H1  UNL     1      17.746   1.558  19.972  1.00  0.00     0.191 HD
BRANCH  12  14
HETATM   14  N2  UNL     1      16.043   1.786  21.176  1.00  0.00    -0.341 N 
ATOM     15  H22 UNL     1      15.765   2.657  21.628  1.00  0.00     0.177 HD
ATOM     16  H21 UNL     1      15.346   1.091  20.905  1.00  0.00     0.177 HD
ENDBRANCH  12  14
ENDBRANCH   9  10
ENDBRANCH   7   9
ENDBRANCH   1   7
BRANCH   3  17
HETATM   17  C6  UNL     1      21.230   5.160  25.803  1.00  0.00     0.138 C 
BRANCH  17  18
HETATM   18  C7  UNL     1      19.911   5.317  26.527  1.00  0.00     0.192 C 
BRANCH  18  19
HETATM   19  O3  UNL     1      18.868   5.603  25.681  1.00  0.00    -0.399 OA
ATOM     20  H3  UNL     1      18.151   6.049  26.117  1.00  0.00     0.209 HD
ENDBRANCH  18  19
ENDBRANCH  17  18
BRANCH  17  21
HETATM   21  C8  UNL     1      21.387   6.341  24.874  1.00  0.00     0.196 C 
BRANCH  21  22
HETATM   22  O4  UNL     1      21.206   7.484  25.624  1.00  0.00    -0.379 OA
BRANCH  22  23
HETATM   23  C9  UNL     1      20.697   8.552  24.926  1.00  0.00     0.050 C 
HETATM   24  C10 UNL     1      21.638   9.761  24.976  1.00  0.00     0.045 C 
HETATM   25  C11 UNL     1      19.361   9.031  25.431  1.00  0.00     0.045 C 
HETATM   26  C12 UNL     1      20.556   8.128  23.475  1.00  0.00     0.045 C 
ENDBRANCH  22  23
ENDBRANCH  21  22
ENDBRANCH  17  21
ENDBRANCH   3  17
TORSDOF 10
ENDMDL
MODEL 4
REMARK VINA RESULT: -6.080134729      3.627      5.134
REMARK  10 active torsions:
REMARK  status: ('A' for Active; 'I' for Inactive)
REMARK    1  A    between atoms: C2_2  and  O1_3 
REMARK    2  A    between atoms: C2_2  and  C4_11 
REMARK    3  A    between atoms: O1_3  and  C3_4 
REMARK       I    between atoms: C3_4  and  N1_6 
REMARK    4  A    between atoms: N1_6  and  N2_8 
REMARK    5  A    between atoms: N3_13  and  C6_14 
REMARK    6  A    between atoms: C6_14  and  C7_15 
REMARK    7  A    between atoms: C6_14  and  C8_18 
REMARK    8  A    between atoms: C7_15  and  O3_16 
REMARK    9  A    between atoms: C8_18  and  O4_19 
REMARK   10  A    between atoms: O4_19  and  C9_20 
ROOT
HETATM    1  C4  UNL     1      22.996   6.042  20.228  1.00  0.00     0.030 A 
HETATM    2  C5  UNL     1      22.445   5.274  21.216  1.00  0.00     0.110 A 
HETATM    3  N3  UNL     1      21.835   5.872  22.195  1.00  0.00    -0.332 N 
HETATM    4  C13 UNL     1      21.780   7.209  22.182  1.00  0.00     0.145 A 
HETATM    5  S1  UNL     1      21.097   8.254  23.249  1.00  0.00    -0.052 SA
HETATM    6  S2  UNL     1      22.612   7.621  20.752  1.00  0.00    -0.061 SA
ENDROOT
BRANCH   1   7
HETATM    7  C2  UNL     1      23.749   5.628  18.996  1.00  0.00     0.171 C 
HETATM    8  C1  UNL     1      24.447   6.841  18.435  1.00  0.00     0.046 C 
BRANCH   7   9
HETATM    9  O1  UNL     1      24.724   4.655  19.307  1.00  0.00    -0.292 OA
BRANCH   9  10
HETATM   10  C3  UNL     1      24.580   3.353  18.830  1.00  0.00     0.379 C 
HETATM   11  O2  UNL     1      25.578   2.594  18.880  1.00  0.00    -0.237 OA
HETATM   12  N1  UNL     1      23.352   2.875  18.300  1.00  0.00    -0.252 N 
ATOM     13  H1  UNL     1      22.541   3.492  18.261  1.00  0.00     0.191 HD
BRANCH  12  14
HETATM   14  N2  UNL     1      23.254   1.565  17.834  1.00  0.00    -0.341 N 
ATOM     15  H22 UNL     1      23.999   0.905  18.057  1.00  0.00     0.177 HD
ATOM     16  H21 UNL     1      22.447   1.277  17.280  1.00  0.00     0.177 HD
ENDBRANCH  12  14
ENDBRANCH   9  10
ENDBRANCH   7   9
ENDBRANCH   1   7
BRANCH   3  17
HETATM   17  C6  UNL     1      21.196   5.153  23.324  1.00  0.00     0.138 C 
BRANCH  17  18
HETATM   18  C7  UNL     1      22.124   5.141  24.519  1.00  0.00     0.192 C 
BRANCH  18  19
HETATM   19  O3  UNL     1      23.050   4.129  24.467  1.00  0.00    -0.399 OA
ATOM     20  H3  UNL     1      23.706   4.263  23.792  1.00  0.00     0.209 HD
ENDBRANCH  18  19
ENDBRANCH  17  18
BRANCH  17  21
HETATM   21  C8  UNL     1      20.911   3.717  22.952  1.00  0.00     0.196 C 
BRANCH  21  22
HETATM   22  O4  UNL     1      20.154   3.169  23.966  1.00  0.00    -0.379 OA
BRANCH  22  23
HETATM   23  C9  UNL     1      20.280   1.807  24.103  1.00  0.00     0.050 C 
HETATM   24  C10 UNL     1      21.504   1.275  23.350  1.00  0.00     0.045 C 
HETATM   25  C11 UNL     1      19.094   1.030  23.594  1.00  0.00     0.045 C 
HETATM   26  C12 UNL     1      20.472   1.509  25.579  1.00  0.00     0.045 C 
ENDBRANCH  22  23
ENDBRANCH  21  22
ENDBRANCH  17  21
ENDBRANCH   3  17
TORSDOF 10
ENDMDL
MODEL 5
REMARK VINA RESULT: -6.068754527      1.088      1.165
REMARK  10 active torsions:
REMARK  status: ('A' for Active; 'I' for Inactive)
REMARK    1  A    between atoms: C2_2  and  O1_3 
REMARK    2  A    between atoms: C2_2  and  C4_11 
REMARK    3  A    between atoms: O1_3  and  C3_4 
REMARK       I    between atoms: C3_4  and  N1_6 
REMARK    4  A    between atoms: N1_6  and  N2_8 
REMARK    5  A    between atoms: N3_13  and  C6_14 
REMARK    6  A    between atoms: C6_14  and  C7_15 
REMARK    7  A    between atoms: C6_14  and  C8_18 
REMARK    8  A    between atoms: C7_15  and  O3_16 
REMARK    9  A    between atoms: C8_18  and  O4_19 
REMARK   10  A    between atoms: O4_19  and  C9_20 
ROOT
HETATM    1  C4  UNL     1      22.629   6.806  19.835  1.00  0.00     0.030 A 
HETATM    2  C5  UNL     1      22.311   6.518  21.134  1.00  0.00     0.110 A 
HETATM    3  N3  UNL     1      22.991   5.595  21.745  1.00  0.00    -0.332 N 
HETATM    4  C13 UNL     1      23.967   4.977  21.070  1.00  0.00     0.145 A 
HETATM    5  S1  UNL     1      24.996   3.787  21.541  1.00  0.00    -0.052 SA
HETATM    6  S2  UNL     1      23.913   5.722  19.537  1.00  0.00    -0.061 SA
ENDROOT
BRANCH   1   7
HETATM    7  C2  UNL     1      22.020   7.808  18.897  1.00  0.00     0.171 C 
HETATM    8  C1  UNL     1      21.228   8.801  19.711  1.00  0.00     0.046 C 
BRANCH   7   9
HETATM    9  O1  UNL     1      23.022   8.508  18.191  1.00  0.00    -0.292 OA
BRANCH   9  10
HETATM   10  C3  UNL     1      22.977   8.566  16.799  1.00  0.00     0.379 C 
HETATM   11  O2  UNL     1      22.179   9.377  16.269  1.00  0.00    -0.237 OA
HETATM   12  N1  UNL     1      23.797   7.744  15.982  1.00  0.00    -0.252 N 
ATOM     13  H1  UNL     1      24.446   7.085  16.413  1.00  0.00     0.191 HD
BRANCH  12  14
HETATM   14  N2  UNL     1      23.718   7.835  14.594  1.00  0.00    -0.341 N 
ATOM     15  H22 UNL     1      24.107   8.656  14.130  1.00  0.00     0.177 HD
ATOM     16  H21 UNL     1      23.276   7.089  14.055  1.00  0.00     0.177 HD
ENDBRANCH  12  14
ENDBRANCH   9  10
ENDBRANCH   7   9
ENDBRANCH   1   7
BRANCH   3  17
HETATM   17  C6  UNL     1      22.745   5.192  23.152  1.00  0.00     0.138 C 
BRANCH  17  18
HETATM   18  C7  UNL     1      21.728   4.073  23.197  1.00  0.00     0.192 C 
BRANCH  18  19
HETATM   19  O3  UNL     1      20.435   4.521  23.090  1.00  0.00    -0.399 OA
ATOM     20  H3  UNL     1      19.795   3.872  23.356  1.00  0.00     0.209 HD
ENDBRANCH  18  19
ENDBRANCH  17  18
BRANCH  17  21
HETATM   21  C8  UNL     1      22.191   6.347  23.951  1.00  0.00     0.196 C 
BRANCH  21  22
HETATM   22  O4  UNL     1      21.877   5.870  25.207  1.00  0.00    -0.379 OA
BRANCH  22  23
HETATM   23  C9  UNL     1      21.082   6.704  25.954  1.00  0.00     0.050 C 
HETATM   24  C10 UNL     1      21.579   6.813  27.400  1.00  0.00     0.045 C 
HETATM   25  C11 UNL     1      19.642   6.269  26.030  1.00  0.00     0.045 C 
HETATM   26  C12 UNL     1      21.151   8.087  25.330  1.00  0.00     0.045 C 
ENDBRANCH  22  23
ENDBRANCH  21  22
ENDBRANCH  17  21
ENDBRANCH   3  17
TORSDOF 10
ENDMDL
