MODEL 1
REMARK VINA RESULT: -8.950817019      0.000      0.000
REMARK  14 active torsions:
REMARK  status: ('A' for Active; 'I' for Inactive)
REMARK    1  A    between atoms: C2_2  and  C4_4 
REMARK    2  A    between atoms: C4_4  and  C5_6 
REMARK    3  A    between atoms: C5_6  and  C6_7 
REMARK    4  A    between atoms: C5_6  and  N1_12 
REMARK    5  A    between atoms: C7_8  and  C8_9 
REMARK       I    between atoms: N1_12  and  C11_14 
REMARK    6  A    between atoms: C11_14  and  C12_16 
REMARK    7  A    between atoms: N2_20  and  C16_21 
REMARK    8  A    between atoms: C16_21  and  O3_22 
REMARK    9  A    between atoms: C16_21  and  C17_24 
REMARK   10  A    between atoms: C17_24  and  N3_25 
REMARK   11  A    between atoms: C17_24  and  C29_44 
REMARK       I    between atoms: N3_25  and  C18_27 
REMARK   12  A    between atoms: C18_27  and  C19_29 
REMARK   13  A    between atoms: C19_29  and  N4_30 
REMARK   14  A    between atoms: C19_29  and  C25_40 
REMARK       I    between atoms: N4_30  and  C20_32 
REMARK       I    between atoms: C20_32  and  N5_34 
ROOT
HETATM    1  C17 UNL     1     -18.294  19.437  -8.491  1.00  0.00     0.166 C 
ENDROOT
BRANCH   1   2
HETATM    2  C16 UNL     1     -19.671  18.943  -8.397  1.00  0.00     0.138 C 
BRANCH   2   3
HETATM    3  N2  UNL     1     -20.064  17.692  -7.955  1.00  0.00    -0.350 N 
HETATM    4  C12 UNL     1     -19.620  16.889  -6.851  1.00  0.00     0.178 C 
HETATM    5  C13 UNL     1     -19.442  15.494  -7.495  1.00  0.00     0.037 C 
HETATM    6  C14 UNL     1     -20.566  15.450  -8.519  1.00  0.00     0.022 C 
HETATM    7  C15 UNL     1     -21.059  16.849  -8.672  1.00  0.00     0.126 C 
BRANCH   4   8
HETATM    8  C11 UNL     1     -20.691  16.691  -5.842  1.00  0.00     0.241 C 
HETATM    9  N1  UNL     1     -21.697  17.670  -5.652  1.00  0.00    -0.344 N 
ATOM     10  H1  UNL     1     -21.691  18.529  -6.203  1.00  0.00     0.163 HD
HETATM   11  O2  UNL     1     -20.683  15.628  -5.155  1.00  0.00    -0.271 OA
BRANCH   9  12
HETATM   12  C5  UNL     1     -22.768  17.432  -4.635  1.00  0.00     0.182 C 
BRANCH  12  13
HETATM   13  C4  UNL     1     -22.514  18.441  -3.549  1.00  0.00     0.180 C 
HETATM   14  O1  UNL     1     -22.878  19.635  -3.820  1.00  0.00    -0.290 OA
BRANCH  13  15
HETATM   15  C2  UNL     1     -21.911  18.155  -2.290  1.00  0.00    -0.023 C 
HETATM   16  C1  UNL     1     -20.713  17.689  -2.080  1.00  0.00     0.022 C 
HETATM   17  C3  UNL     1     -22.731  18.398  -1.035  1.00  0.00     0.051 C 
ENDBRANCH  13  15
ENDBRANCH  12  13
BRANCH  12  18
HETATM   18  C6  UNL     1     -24.019  17.740  -5.374  1.00  0.00     0.002 C 
HETATM   19  C7  UNL     1     -24.907  16.773  -5.978  1.00  0.00    -0.024 C 
BRANCH  19  20
HETATM   20  C8  UNL     1     -24.555  16.048  -7.216  1.00  0.00    -0.001 C 
HETATM   21  C9  UNL     1     -25.855  15.807  -8.017  1.00  0.00     0.013 C 
HETATM   22  C10 UNL     1     -23.853  14.755  -7.103  1.00  0.00     0.013 C 
ENDBRANCH  19  20
ENDBRANCH  12  18
ENDBRANCH   9  12
ENDBRANCH   4   8
ENDBRANCH   2   3
BRANCH   2  23
HETATM   23  O3  UNL     1     -20.627  19.756  -8.778  1.00  0.00    -0.348 OA
ATOM     24  H3  UNL     1     -20.390  20.421  -9.414  1.00  0.00     0.219 HD
ENDBRANCH   2  23
ENDBRANCH   1   2
BRANCH   1  25
HETATM   25  N3  UNL     1     -17.827  19.566  -7.116  1.00  0.00    -0.347 N 
HETATM   26  C18 UNL     1     -17.522  20.771  -6.485  1.00  0.00     0.241 C 
HETATM   27  O4  UNL     1     -17.619  21.832  -7.089  1.00  0.00    -0.271 OA
ATOM     28  H3  UNL     1     -17.715  18.709  -6.574  1.00  0.00     0.163 HD
BRANCH  26  29
HETATM   29  C19 UNL     1     -17.077  20.780  -5.080  1.00  0.00     0.185 C 
BRANCH  29  30
HETATM   30  N4  UNL     1     -16.428  22.047  -4.701  1.00  0.00    -0.329 N 
HETATM   31  C20 UNL     1     -15.009  22.160  -4.791  1.00  0.00     0.319 C 
HETATM   32  O5  UNL     1     -14.382  21.124  -5.199  1.00  0.00    -0.247 OA
HETATM   33  N5  UNL     1     -14.254  23.296  -4.474  1.00  0.00    -0.330 N 
HETATM   34  C21 UNL     1     -12.802  23.265  -4.593  1.00  0.00     0.153 C 
HETATM   35  C24 UNL     1     -14.799  24.562  -4.021  1.00  0.00     0.153 C 
HETATM   36  C22 UNL     1     -12.295  24.039  -3.370  1.00  0.00     0.187 C 
HETATM   37  O6  UNL     1     -12.550  25.369  -3.586  1.00  0.00    -0.388 OA
HETATM   38  C23 UNL     1     -13.759  25.664  -4.158  1.00  0.00     0.187 C 
ATOM     39  H4  UNL     1     -16.988  22.836  -4.377  1.00  0.00     0.165 HD
ENDBRANCH  29  30
BRANCH  29  40
HETATM   40  C25 UNL     1     -18.202  20.586  -4.101  1.00  0.00    -0.022 C 
HETATM   41  C26 UNL     1     -17.799  19.487  -3.144  1.00  0.00     0.017 C 
HETATM   42  C27 UNL     1     -18.443  21.839  -3.295  1.00  0.00     0.017 C 
HETATM   43  C28 UNL     1     -19.493  20.151  -4.749  1.00  0.00     0.017 C 
ENDBRANCH  29  40
ENDBRANCH  26  29
ENDBRANCH   1  25
BRANCH   1  44
HETATM   44  C29 UNL     1     -17.421  18.492  -9.256  1.00  0.00    -0.023 C 
HETATM   45  C30 UNL     1     -16.710  17.535  -8.326  1.00  0.00     0.017 C 
HETATM   46  C31 UNL     1     -18.192  17.751 -10.283  1.00  0.00     0.017 C 
HETATM   47  C32 UNL     1     -16.329  19.257 -10.017  1.00  0.00     0.017 C 
ENDBRANCH   1  44
TORSDOF 14
ENDMDL
MODEL 2
REMARK VINA RESULT: -8.807036664      2.244      9.284
REMARK  14 active torsions:
REMARK  status: ('A' for Active; 'I' for Inactive)
REMARK    1  A    between atoms: C2_2  and  C4_4 
REMARK    2  A    between atoms: C4_4  and  C5_6 
REMARK    3  A    between atoms: C5_6  and  C6_7 
REMARK    4  A    between atoms: C5_6  and  N1_12 
REMARK    5  A    between atoms: C7_8  and  C8_9 
REMARK       I    between atoms: N1_12  and  C11_14 
REMARK    6  A    between atoms: C11_14  and  C12_16 
REMARK    7  A    between atoms: N2_20  and  C16_21 
REMARK    8  A    between atoms: C16_21  and  O3_22 
REMARK    9  A    between atoms: C16_21  and  C17_24 
REMARK   10  A    between atoms: C17_24  and  N3_25 
REMARK   11  A    between atoms: C17_24  and  C29_44 
REMARK       I    between atoms: N3_25  and  C18_27 
REMARK   12  A    between atoms: C18_27  and  C19_29 
REMARK   13  A    between atoms: C19_29  and  N4_30 
REMARK   14  A    between atoms: C19_29  and  C25_40 
REMARK       I    between atoms: N4_30  and  C20_32 
REMARK       I    between atoms: C20_32  and  N5_34 
ROOT
HETATM    1  C17 UNL     1     -19.791  17.692  -6.543  1.00  0.00     0.166 C 
ENDROOT
BRANCH   1   2
HETATM    2  C16 UNL     1     -19.311  18.918  -5.899  1.00  0.00     0.138 C 
BRANCH   2   3
HETATM    3  N2  UNL     1     -17.989  19.271  -5.692  1.00  0.00    -0.350 N 
HETATM    4  C12 UNL     1     -17.096  20.101  -6.448  1.00  0.00     0.178 C 
HETATM    5  C13 UNL     1     -15.807  19.249  -6.506  1.00  0.00     0.037 C 
HETATM    6  C14 UNL     1     -15.800  18.556  -5.152  1.00  0.00     0.022 C 
HETATM    7  C15 UNL     1     -17.165  18.730  -4.577  1.00  0.00     0.126 C 
BRANCH   4   8
HETATM    8  C11 UNL     1     -16.696  21.317  -5.696  1.00  0.00     0.241 C 
HETATM    9  N1  UNL     1     -15.328  21.631  -5.503  1.00  0.00    -0.344 N 
ATOM     10  H1  UNL     1     -14.601  21.019  -5.874  1.00  0.00     0.163 HD
HETATM   11  O2  UNL     1     -17.605  22.065  -5.229  1.00  0.00    -0.271 OA
BRANCH   9  12
HETATM   12  C5  UNL     1     -14.960  22.871  -4.750  1.00  0.00     0.182 C 
BRANCH  12  13
HETATM   13  C4  UNL     1     -14.929  22.461  -3.303  1.00  0.00     0.180 C 
HETATM   14  O1  UNL     1     -14.760  21.213  -3.095  1.00  0.00    -0.290 OA
BRANCH  13  15
HETATM   15  C2  UNL     1     -15.078  23.348  -2.198  1.00  0.00    -0.023 C 
HETATM   16  C1  UNL     1     -14.737  23.126  -0.960  1.00  0.00     0.022 C 
HETATM   17  C3  UNL     1     -15.709  24.705  -2.454  1.00  0.00     0.051 C 
ENDBRANCH  13  15
ENDBRANCH  12  13
BRANCH  12  18
HETATM   18  C6  UNL     1     -13.597  23.186  -5.250  1.00  0.00     0.002 C 
HETATM   19  C7  UNL     1     -12.471  23.592  -4.440  1.00  0.00    -0.024 C 
BRANCH  19  20
HETATM   20  C8  UNL     1     -12.378  24.938  -3.840  1.00  0.00    -0.001 C 
HETATM   21  C9  UNL     1     -11.493  25.813  -4.757  1.00  0.00     0.013 C 
HETATM   22  C10 UNL     1     -11.859  25.065  -2.465  1.00  0.00     0.013 C 
ENDBRANCH  19  20
ENDBRANCH  12  18
ENDBRANCH   9  12
ENDBRANCH   4   8
ENDBRANCH   2   3
BRANCH   2  23
HETATM   23  O3  UNL     1     -20.218  19.760  -5.462  1.00  0.00    -0.348 OA
ATOM     24  H3  UNL     1     -20.227  20.620  -5.868  1.00  0.00     0.219 HD
ENDBRANCH   2  23
ENDBRANCH   1   2
BRANCH   1  25
HETATM   25  N3  UNL     1     -21.215  17.618  -6.237  1.00  0.00    -0.347 N 
HETATM   26  C18 UNL     1     -21.792  16.733  -5.328  1.00  0.00     0.241 C 
HETATM   27  O4  UNL     1     -21.102  15.922  -4.724  1.00  0.00    -0.271 OA
ATOM     28  H3  UNL     1     -21.836  18.263  -6.726  1.00  0.00     0.163 HD
BRANCH  26  29
HETATM   29  C19 UNL     1     -23.245  16.765  -5.085  1.00  0.00     0.185 C 
BRANCH  29  30
HETATM   30  N4  UNL     1     -23.771  18.138  -4.984  1.00  0.00    -0.329 N 
HETATM   31  C20 UNL     1     -24.496  18.525  -3.818  1.00  0.00     0.319 C 
HETATM   32  O5  UNL     1     -24.649  17.628  -2.921  1.00  0.00    -0.247 OA
HETATM   33  N5  UNL     1     -25.047  19.789  -3.577  1.00  0.00    -0.330 N 
HETATM   34  C21 UNL     1     -25.786  20.042  -2.346  1.00  0.00     0.153 C 
HETATM   35  C24 UNL     1     -24.950  20.929  -4.470  1.00  0.00     0.153 C 
HETATM   36  C22 UNL     1     -26.974  20.911  -2.776  1.00  0.00     0.187 C 
HETATM   37  O6  UNL     1     -26.492  22.163  -3.058  1.00  0.00    -0.388 OA
HETATM   38  C23 UNL     1     -25.300  22.211  -3.731  1.00  0.00     0.187 C 
ATOM     39  H4  UNL     1     -23.618  18.805  -5.741  1.00  0.00     0.165 HD
ENDBRANCH  29  30
BRANCH  29  40
HETATM   40  C25 UNL     1     -24.044  16.099  -6.171  1.00  0.00    -0.022 C 
HETATM   41  C26 UNL     1     -25.202  15.378  -5.520  1.00  0.00     0.017 C 
HETATM   42  C27 UNL     1     -24.610  17.115  -7.132  1.00  0.00     0.017 C 
HETATM   43  C28 UNL     1     -23.261  15.064  -6.942  1.00  0.00     0.017 C 
ENDBRANCH  29  40
ENDBRANCH  26  29
ENDBRANCH   1  25
BRANCH   1  44
HETATM   44  C29 UNL     1     -19.572  17.725  -8.023  1.00  0.00    -0.023 C 
HETATM   45  C30 UNL     1     -19.863  19.099  -8.584  1.00  0.00     0.017 C 
HETATM   46  C31 UNL     1     -18.200  17.291  -8.379  1.00  0.00     0.017 C 
HETATM   47  C32 UNL     1     -20.522  16.750  -8.733  1.00  0.00     0.017 C 
ENDBRANCH   1  44
TORSDOF 14
ENDMDL
MODEL 3
REMARK VINA RESULT: -8.680710875      1.998      9.208
REMARK  14 active torsions:
REMARK  status: ('A' for Active; 'I' for Inactive)
REMARK    1  A    between atoms: C2_2  and  C4_4 
REMARK    2  A    between atoms: C4_4  and  C5_6 
REMARK    3  A    between atoms: C5_6  and  C6_7 
REMARK    4  A    between atoms: C5_6  and  N1_12 
REMARK    5  A    between atoms: C7_8  and  C8_9 
REMARK       I    between atoms: N1_12  and  C11_14 
REMARK    6  A    between atoms: C11_14  and  C12_16 
REMARK    7  A    between atoms: N2_20  and  C16_21 
REMARK    8  A    between atoms: C16_21  and  O3_22 
REMARK    9  A    between atoms: C16_21  and  C17_24 
REMARK   10  A    between atoms: C17_24  and  N3_25 
REMARK   11  A    between atoms: C17_24  and  C29_44 
REMARK       I    between atoms: N3_25  and  C18_27 
REMARK   12  A    between atoms: C18_27  and  C19_29 
REMARK   13  A    between atoms: C19_29  and  N4_30 
REMARK   14  A    between atoms: C19_29  and  C25_40 
REMARK       I    between atoms: N4_30  and  C20_32 
REMARK       I    between atoms: C20_32  and  N5_34 
ROOT
HETATM    1  C17 UNL     1     -17.933  18.804  -7.060  1.00  0.00     0.166 C 
ENDROOT
BRANCH   1   2
HETATM    2  C16 UNL     1     -18.283  20.172  -6.668  1.00  0.00     0.138 C 
BRANCH   2   3
HETATM    3  N2  UNL     1     -17.656  20.931  -5.696  1.00  0.00    -0.350 N 
HETATM    4  C12 UNL     1     -16.958  20.557  -4.499  1.00  0.00     0.178 C 
HETATM    5  C13 UNL     1     -17.546  21.525  -3.446  1.00  0.00     0.037 C 
HETATM    6  C14 UNL     1     -17.773  22.798  -4.247  1.00  0.00     0.022 C 
HETATM    7  C15 UNL     1     -17.673  22.419  -5.686  1.00  0.00     0.126 C 
BRANCH   4   8
HETATM    8  C11 UNL     1     -15.518  20.916  -4.561  1.00  0.00     0.241 C 
HETATM    9  N1  UNL     1     -14.895  21.198  -5.801  1.00  0.00    -0.344 N 
ATOM     10  H1  UNL     1     -15.429  21.149  -6.669  1.00  0.00     0.163 HD
HETATM   11  O2  UNL     1     -14.861  20.963  -3.480  1.00  0.00    -0.271 OA
BRANCH   9  12
HETATM   12  C5  UNL     1     -13.446  21.568  -5.826  1.00  0.00     0.182 C 
BRANCH  12  13
HETATM   13  C4  UNL     1     -12.948  21.133  -7.176  1.00  0.00     0.180 C 
HETATM   14  O1  UNL     1     -12.736  19.880  -7.300  1.00  0.00    -0.290 OA
BRANCH  13  15
HETATM   15  C2  UNL     1     -12.701  22.003  -8.278  1.00  0.00    -0.023 C 
HETATM   16  C1  UNL     1     -11.549  22.464  -8.673  1.00  0.00     0.022 C 
HETATM   17  C3  UNL     1     -13.892  22.472  -9.095  1.00  0.00     0.051 C 
ENDBRANCH  13  15
ENDBRANCH  12  13
BRANCH  12  18
HETATM   18  C6  UNL     1     -13.466  23.048  -5.711  1.00  0.00     0.002 C 
HETATM   19  C7  UNL     1     -12.740  23.834  -4.739  1.00  0.00    -0.024 C 
BRANCH  19  20
HETATM   20  C8  UNL     1     -13.135  23.888  -3.317  1.00  0.00    -0.001 C 
HETATM   21  C9  UNL     1     -14.547  24.512  -3.235  1.00  0.00     0.013 C 
HETATM   22  C10 UNL     1     -12.270  24.615  -2.370  1.00  0.00     0.013 C 
ENDBRANCH  19  20
ENDBRANCH  12  18
ENDBRANCH   9  12
ENDBRANCH   4   8
ENDBRANCH   2   3
BRANCH   2  23
HETATM   23  O3  UNL     1     -19.296  20.732  -7.285  1.00  0.00    -0.348 OA
ATOM     24  H3  UNL     1     -19.859  20.154  -7.788  1.00  0.00     0.219 HD
ENDBRANCH   2  23
ENDBRANCH   1   2
BRANCH   1  25
HETATM   25  N3  UNL     1     -19.176  18.043  -6.987  1.00  0.00    -0.347 N 
HETATM   26  C18 UNL     1     -19.578  17.274  -5.896  1.00  0.00     0.241 C 
HETATM   27  O4  UNL     1     -18.867  17.180  -4.904  1.00  0.00    -0.271 OA
ATOM     28  H3  UNL     1     -19.797  18.077  -7.795  1.00  0.00     0.163 HD
BRANCH  26  29
HETATM   29  C19 UNL     1     -20.869  16.564  -5.928  1.00  0.00     0.185 C 
BRANCH  29  30
HETATM   30  N4  UNL     1     -22.006  17.444  -5.601  1.00  0.00    -0.329 N 
HETATM   31  C20 UNL     1     -22.365  17.645  -4.236  1.00  0.00     0.319 C 
HETATM   32  O5  UNL     1     -21.661  17.026  -3.367  1.00  0.00    -0.247 OA
HETATM   33  N5  UNL     1     -23.410  18.452  -3.773  1.00  0.00    -0.330 N 
HETATM   34  C21 UNL     1     -23.681  18.549  -2.343  1.00  0.00     0.153 C 
HETATM   35  C24 UNL     1     -24.292  19.243  -4.611  1.00  0.00     0.153 C 
HETATM   36  C22 UNL     1     -25.211  18.550  -2.236  1.00  0.00     0.187 C 
HETATM   37  O6  UNL     1     -25.657  19.770  -2.674  1.00  0.00    -0.388 OA
HETATM   38  C23 UNL     1     -25.025  20.281  -3.777  1.00  0.00     0.187 C 
ATOM     39  H4  UNL     1     -22.530  17.905  -6.345  1.00  0.00     0.165 HD
ENDBRANCH  29  30
BRANCH  29  40
HETATM   40  C25 UNL     1     -21.185  15.966  -7.271  1.00  0.00    -0.022 C 
HETATM   41  C26 UNL     1     -22.287  14.950  -7.078  1.00  0.00     0.017 C 
HETATM   42  C27 UNL     1     -21.686  17.018  -8.230  1.00  0.00     0.017 C 
HETATM   43  C28 UNL     1     -20.019  15.237  -7.892  1.00  0.00     0.017 C 
ENDBRANCH  29  40
ENDBRANCH  26  29
ENDBRANCH   1  25
BRANCH   1  44
HETATM   44  C29 UNL     1     -17.369  18.756  -8.446  1.00  0.00    -0.023 C 
HETATM   45  C30 UNL     1     -18.448  18.456  -9.462  1.00  0.00     0.017 C 
HETATM   46  C31 UNL     1     -16.660  20.012  -8.787  1.00  0.00     0.017 C 
HETATM   47  C32 UNL     1     -16.326  17.635  -8.568  1.00  0.00     0.017 C 
ENDBRANCH   1  44
TORSDOF 14
ENDMDL
MODEL 4
REMARK VINA RESULT: -8.668387832      2.037      5.508
REMARK  14 active torsions:
REMARK  status: ('A' for Active; 'I' for Inactive)
REMARK    1  A    between atoms: C2_2  and  C4_4 
REMARK    2  A    between atoms: C4_4  and  C5_6 
REMARK    3  A    between atoms: C5_6  and  C6_7 
REMARK    4  A    between atoms: C5_6  and  N1_12 
REMARK    5  A    between atoms: C7_8  and  C8_9 
REMARK       I    between atoms: N1_12  and  C11_14 
REMARK    6  A    between atoms: C11_14  and  C12_16 
REMARK    7  A    between atoms: N2_20  and  C16_21 
REMARK    8  A    between atoms: C16_21  and  O3_22 
REMARK    9  A    between atoms: C16_21  and  C17_24 
REMARK   10  A    between atoms: C17_24  and  N3_25 
REMARK   11  A    between atoms: C17_24  and  C29_44 
REMARK       I    between atoms: N3_25  and  C18_27 
REMARK   12  A    between atoms: C18_27  and  C19_29 
REMARK   13  A    between atoms: C19_29  and  N4_30 
REMARK   14  A    between atoms: C19_29  and  C25_40 
REMARK       I    between atoms: N4_30  and  C20_32 
REMARK       I    between atoms: C20_32  and  N5_34 
ROOT
HETATM    1  C17 UNL     1     -14.719  22.013  -6.909  1.00  0.00     0.166 C 
ENDROOT
BRANCH   1   2
HETATM    2  C16 UNL     1     -15.583  21.291  -7.848  1.00  0.00     0.138 C 
BRANCH   2   3
HETATM    3  N2  UNL     1     -16.217  20.083  -7.615  1.00  0.00    -0.350 N 
HETATM    4  C12 UNL     1     -16.917  19.581  -6.468  1.00  0.00     0.178 C 
HETATM    5  C13 UNL     1     -16.337  18.155  -6.313  1.00  0.00     0.037 C 
HETATM    6  C14 UNL     1     -16.114  17.723  -7.754  1.00  0.00     0.022 C 
HETATM    7  C15 UNL     1     -16.208  18.956  -8.588  1.00  0.00     0.126 C 
BRANCH   4   8
HETATM    8  C11 UNL     1     -18.358  19.360  -6.749  1.00  0.00     0.241 C 
HETATM    9  N1  UNL     1     -18.958  18.101  -6.503  1.00  0.00    -0.344 N 
ATOM     10  H1  UNL     1     -18.403  17.327  -6.137  1.00  0.00     0.163 HD
HETATM   11  O2  UNL     1     -19.036  20.322  -7.215  1.00  0.00    -0.271 OA
BRANCH   9  12
HETATM   12  C5  UNL     1     -20.415  17.917  -6.787  1.00  0.00     0.182 C 
BRANCH  12  13
HETATM   13  C4  UNL     1     -20.495  17.573  -8.249  1.00  0.00     0.180 C 
HETATM   14  O1  UNL     1     -21.160  18.395  -8.965  1.00  0.00    -0.290 OA
BRANCH  13  15
HETATM   15  C2  UNL     1     -19.902  16.428  -8.855  1.00  0.00    -0.023 C 
HETATM   16  C1  UNL     1     -18.640  16.245  -9.123  1.00  0.00     0.022 C 
HETATM   17  C3  UNL     1     -20.813  15.282  -9.255  1.00  0.00     0.051 C 
ENDBRANCH  13  15
ENDBRANCH  12  13
BRANCH  12  18
HETATM   18  C6  UNL     1     -20.787  16.754  -5.941  1.00  0.00     0.002 C 
HETATM   19  C7  UNL     1     -21.994  15.967  -6.063  1.00  0.00    -0.024 C 
BRANCH  19  20
HETATM   20  C8  UNL     1     -23.313  16.480  -5.642  1.00  0.00    -0.001 C 
HETATM   21  C9  UNL     1     -24.051  16.997  -6.898  1.00  0.00     0.013 C 
HETATM   22  C10 UNL     1     -23.365  17.546  -4.623  1.00  0.00     0.013 C 
ENDBRANCH  19  20
ENDBRANCH  12  18
ENDBRANCH   9  12
ENDBRANCH   4   8
ENDBRANCH   2   3
BRANCH   2  23
HETATM   23  O3  UNL     1     -15.767  21.830  -9.030  1.00  0.00    -0.348 OA
ATOM     24  H3  UNL     1     -15.239  22.593  -9.235  1.00  0.00     0.219 HD
ENDBRANCH   2  23
ENDBRANCH   1   2
BRANCH   1  25
HETATM   25  N3  UNL     1     -15.462  22.069  -5.655  1.00  0.00    -0.347 N 
HETATM   26  C18 UNL     1     -15.576  23.198  -4.845  1.00  0.00     0.241 C 
HETATM   27  O4  UNL     1     -15.019  24.244  -5.151  1.00  0.00    -0.271 OA
ATOM     28  H3  UNL     1     -15.933  21.219  -5.348  1.00  0.00     0.163 HD
BRANCH  26  29
HETATM   29  C19 UNL     1     -16.374  23.142  -3.607  1.00  0.00     0.185 C 
BRANCH  29  30
HETATM   30  N4  UNL     1     -16.808  21.773  -3.276  1.00  0.00    -0.329 N 
HETATM   31  C20 UNL     1     -18.147  21.376  -3.563  1.00  0.00     0.319 C 
HETATM   32  O5  UNL     1     -18.900  22.262  -4.094  1.00  0.00    -0.247 OA
HETATM   33  N5  UNL     1     -18.701  20.115  -3.313  1.00  0.00    -0.330 N 
HETATM   34  C21 UNL     1     -20.098  19.852  -3.638  1.00  0.00     0.153 C 
HETATM   35  C24 UNL     1     -17.989  18.988  -2.740  1.00  0.00     0.153 C 
HETATM   36  C22 UNL     1     -20.615  19.002  -2.471  1.00  0.00     0.187 C 
HETATM   37  O6  UNL     1     -20.073  17.749  -2.598  1.00  0.00    -0.388 OA
HETATM   38  C23 UNL     1     -18.759  17.698  -2.981  1.00  0.00     0.187 C 
ATOM     39  H4  UNL     1     -16.157  21.116  -2.846  1.00  0.00     0.165 HD
ENDBRANCH  29  30
BRANCH  29  40
HETATM   40  C25 UNL     1     -15.629  23.639  -2.399  1.00  0.00    -0.022 C 
HETATM   41  C26 UNL     1     -16.646  23.964  -1.329  1.00  0.00     0.017 C 
HETATM   42  C27 UNL     1     -14.705  22.578  -1.854  1.00  0.00     0.017 C 
HETATM   43  C28 UNL     1     -14.845  24.902  -2.656  1.00  0.00     0.017 C 
ENDBRANCH  29  40
ENDBRANCH  26  29
ENDBRANCH   1  25
BRANCH   1  44
HETATM   44  C29 UNL     1     -13.411  21.312  -6.714  1.00  0.00    -0.023 C 
HETATM   45  C30 UNL     1     -13.482  20.341  -5.557  1.00  0.00     0.017 C 
HETATM   46  C31 UNL     1     -12.974  20.623  -7.952  1.00  0.00     0.017 C 
HETATM   47  C32 UNL     1     -12.302  22.318  -6.375  1.00  0.00     0.017 C 
ENDBRANCH   1  44
TORSDOF 14
ENDMDL
MODEL 5
REMARK VINA RESULT: -8.651344123      3.144      8.963
REMARK  14 active torsions:
REMARK  status: ('A' for Active; 'I' for Inactive)
REMARK    1  A    between atoms: C2_2  and  C4_4 
REMARK    2  A    between atoms: C4_4  and  C5_6 
REMARK    3  A    between atoms: C5_6  and  C6_7 
REMARK    4  A    between atoms: C5_6  and  N1_12 
REMARK    5  A    between atoms: C7_8  and  C8_9 
REMARK       I    between atoms: N1_12  and  C11_14 
REMARK    6  A    between atoms: C11_14  and  C12_16 
REMARK    7  A    between atoms: N2_20  and  C16_21 
REMARK    8  A    between atoms: C16_21  and  O3_22 
REMARK    9  A    between atoms: C16_21  and  C17_24 
REMARK   10  A    between atoms: C17_24  and  N3_25 
REMARK   11  A    between atoms: C17_24  and  C29_44 
REMARK       I    between atoms: N3_25  and  C18_27 
REMARK   12  A    between atoms: C18_27  and  C19_29 
REMARK   13  A    between atoms: C19_29  and  N4_30 
REMARK   14  A    between atoms: C19_29  and  C25_40 
REMARK       I    between atoms: N4_30  and  C20_32 
REMARK       I    between atoms: C20_32  and  N5_34 
ROOT
HETATM    1  C17 UNL     1     -18.483  20.196  -5.258  1.00  0.00     0.166 C 
ENDROOT
BRANCH   1   2
HETATM    2  C16 UNL     1     -17.837  21.394  -4.713  1.00  0.00     0.138 C 
BRANCH   2   3
HETATM    3  N2  UNL     1     -16.481  21.568  -4.501  1.00  0.00    -0.350 N 
HETATM    4  C12 UNL     1     -15.428  22.000  -5.376  1.00  0.00     0.178 C 
HETATM    5  C13 UNL     1     -14.313  20.964  -5.102  1.00  0.00     0.037 C 
HETATM    6  C14 UNL     1     -14.475  20.678  -3.617  1.00  0.00     0.022 C 
HETATM    7  C15 UNL     1     -15.805  21.225  -3.220  1.00  0.00     0.126 C 
BRANCH   4   8
HETATM    8  C11 UNL     1     -14.840  23.292  -4.941  1.00  0.00     0.241 C 
HETATM    9  N1  UNL     1     -13.539  23.344  -4.384  1.00  0.00    -0.344 N 
ATOM     10  H1  UNL     1     -12.993  22.490  -4.267  1.00  0.00     0.163 HD
HETATM   11  O2  UNL     1     -15.529  24.345  -5.079  1.00  0.00    -0.271 OA
BRANCH   9  12
HETATM   12  C5  UNL     1     -12.973  24.665  -3.968  1.00  0.00     0.182 C 
BRANCH  12  13
HETATM   13  C4  UNL     1     -13.167  24.729  -2.478  1.00  0.00     0.180 C 
HETATM   14  O1  UNL     1     -12.226  25.300  -1.831  1.00  0.00    -0.290 OA
BRANCH  13  15
HETATM   15  C2  UNL     1     -14.290  24.204  -1.775  1.00  0.00    -0.023 C 
HETATM   16  C1  UNL     1     -14.300  23.196  -0.949  1.00  0.00     0.022 C 
HETATM   17  C3  UNL     1     -15.640  24.861  -1.998  1.00  0.00     0.051 C 
ENDBRANCH  13  15
ENDBRANCH  12  13
BRANCH  12  18
HETATM   18  C6  UNL     1     -11.534  24.550  -4.319  1.00  0.00     0.002 C 
HETATM   19  C7  UNL     1     -10.547  25.599  -4.205  1.00  0.00    -0.024 C 
BRANCH  19  20
HETATM   20  C8  UNL     1     -10.507  26.746  -5.135  1.00  0.00    -0.001 C 
HETATM   21  C9  UNL     1     -10.391  26.193  -6.573  1.00  0.00     0.013 C 
HETATM   22  C10 UNL     1      -9.452  27.761  -4.960  1.00  0.00     0.013 C 
ENDBRANCH  19  20
ENDBRANCH  12  18
ENDBRANCH   9  12
ENDBRANCH   4   8
ENDBRANCH   2   3
BRANCH   2  23
HETATM   23  O3  UNL     1     -18.615  22.396  -4.380  1.00  0.00    -0.348 OA
ATOM     24  H3  UNL     1     -18.230  23.066  -3.827  1.00  0.00     0.219 HD
ENDBRANCH   2  23
ENDBRANCH   1   2
BRANCH   1  25
HETATM   25  N3  UNL     1     -17.681  19.807  -6.412  1.00  0.00    -0.347 N 
HETATM   26  C18 UNL     1     -17.797  20.357  -7.688  1.00  0.00     0.241 C 
HETATM   27  O4  UNL     1     -18.629  21.224  -7.919  1.00  0.00    -0.271 OA
ATOM     28  H3  UNL     1     -16.982  19.077  -6.275  1.00  0.00     0.163 HD
BRANCH  26  29
HETATM   29  C19 UNL     1     -16.914  19.897  -8.775  1.00  0.00     0.185 C 
BRANCH  29  30
HETATM   30  N4  UNL     1     -15.486  20.055  -8.447  1.00  0.00    -0.329 N 
HETATM   31  C20 UNL     1     -14.802  21.238  -8.854  1.00  0.00     0.319 C 
HETATM   32  O5  UNL     1     -15.491  22.099  -9.498  1.00  0.00    -0.247 OA
HETATM   33  N5  UNL     1     -13.454  21.532  -8.611  1.00  0.00    -0.330 N 
HETATM   34  C21 UNL     1     -12.876  22.775  -9.107  1.00  0.00     0.153 C 
HETATM   35  C24 UNL     1     -12.532  20.684  -7.879  1.00  0.00     0.153 C 
HETATM   36  C22 UNL     1     -11.477  22.385  -9.600  1.00  0.00     0.187 C 
HETATM   37  O6  UNL     1     -10.698  22.151  -8.496  1.00  0.00    -0.388 OA
HETATM   38  C23 UNL     1     -11.300  21.475  -7.468  1.00  0.00     0.187 C 
ATOM     39  H4  UNL     1     -14.991  19.325  -7.934  1.00  0.00     0.165 HD
ENDBRANCH  29  30
BRANCH  29  40
HETATM   40  C25 UNL     1     -17.099  18.444  -9.116  1.00  0.00    -0.022 C 
HETATM   41  C26 UNL     1     -16.755  18.263 -10.576  1.00  0.00     0.017 C 
HETATM   42  C27 UNL     1     -16.168  17.573  -8.308  1.00  0.00     0.017 C 
HETATM   43  C28 UNL     1     -18.517  17.962  -8.936  1.00  0.00     0.017 C 
ENDBRANCH  29  40
ENDBRANCH  26  29
ENDBRANCH   1  25
BRANCH   1  44
HETATM   44  C29 UNL     1     -18.529  19.089  -4.253  1.00  0.00    -0.023 C 
HETATM   45  C30 UNL     1     -17.294  18.221  -4.343  1.00  0.00     0.017 C 
HETATM   46  C31 UNL     1     -18.703  19.612  -2.876  1.00  0.00     0.017 C 
HETATM   47  C32 UNL     1     -19.732  18.170  -4.511  1.00  0.00     0.017 C 
ENDBRANCH   1  44
TORSDOF 14
ENDMDL
