MODEL 1
REMARK VINA RESULT: -9.128487647      0.000      0.000
REMARK  12 active torsions:
REMARK  status: ('A' for Active; 'I' for Inactive)
REMARK    1  A    between atoms: C2_2  and  C3_3 
REMARK    2  A    between atoms: C3_3  and  N1_4 
REMARK    3  A    between atoms: C3_3  and  C23_36 
REMARK       I    between atoms: N1_4  and  C4_6 
REMARK       I    between atoms: C4_6  and  N2_8 
REMARK    4  A    between atoms: C7_11  and  N3_12 
REMARK       I    between atoms: N3_12  and  C8_14 
REMARK    5  A    between atoms: C8_14  and  C9_16 
REMARK    6  A    between atoms: C9_16  and  C10_17 
REMARK    7  A    between atoms: C9_16  and  N5_25 
REMARK    8  A    between atoms: C10_17  and  C11_18 
REMARK       I    between atoms: N5_25  and  C16_27 
REMARK    9  A    between atoms: C16_27  and  C17_29 
REMARK   10  A    between atoms: C17_29  and  O5_32 
REMARK   11  A    between atoms: C23_36  and  O6_37 
REMARK   12  A    between atoms: C23_36  and  N6_39 
ROOT
HETATM    1  N1  UNL     1     -14.578  19.904  -8.503  1.00  0.00    -0.331 N 
ATOM      2  H1  UNL     1     -14.533  19.247  -7.724  1.00  0.00     0.165 HD
HETATM    3  C4  UNL     1     -15.625  19.697  -9.400  1.00  0.00     0.319 C 
HETATM    4  O1  UNL     1     -15.795  20.418 -10.420  1.00  0.00    -0.247 OA
HETATM    5  N2  UNL     1     -16.587  18.635  -9.226  1.00  0.00    -0.334 N 
HETATM    6  C5  UNL     1     -16.581  17.862  -8.023  1.00  0.00     0.129 C 
HETATM    7  C6  UNL     1     -17.340  16.580  -8.178  1.00  0.00     0.045 C 
HETATM    8  C7  UNL     1     -18.683  16.667  -8.787  1.00  0.00     0.087 C 
HETATM    9  C21 UNL     1     -18.795  17.703  -9.854  1.00  0.00     0.045 C 
HETATM   10  C22 UNL     1     -17.517  18.304 -10.282  1.00  0.00     0.129 C 
ENDROOT
BRANCH   8  11
HETATM   11  N3  UNL     1     -19.771  16.863  -7.813  1.00  0.00    -0.355 N 
HETATM   12  C8  UNL     1     -20.484  15.723  -7.384  1.00  0.00     0.240 C 
HETATM   13  O2  UNL     1     -20.165  14.561  -7.815  1.00  0.00    -0.271 OA
ATOM     14  H3  UNL     1     -20.002  17.792  -7.461  1.00  0.00     0.162 HD
BRANCH  12  15
HETATM   15  C9  UNL     1     -21.637  15.771  -6.426  1.00  0.00     0.177 C 
BRANCH  15  16
HETATM   16  C10 UNL     1     -21.512  17.160  -5.794  1.00  0.00     0.049 C 
BRANCH  16  17
HETATM   17  C11 UNL     1     -20.972  17.153  -4.413  1.00  0.00     0.082 C 
HETATM   18  C12 UNL     1     -21.876  18.063  -3.573  1.00  0.00     0.034 C 
HETATM   19  C13 UNL     1     -21.000  18.364  -2.382  1.00  0.00     0.126 C 
HETATM   20  N4  UNL     1     -19.624  18.249  -2.892  1.00  0.00    -0.356 N 
HETATM   21  C14 UNL     1     -18.437  18.615  -2.149  1.00  0.00     0.152 C 
HETATM   22  C15 UNL     1     -19.648  17.743  -4.212  1.00  0.00     0.223 C 
HETATM   23  O3  UNL     1     -18.652  17.838  -4.990  1.00  0.00    -0.273 OA
ENDBRANCH  16  17
ENDBRANCH  15  16
BRANCH  15  24
HETATM   24  N5  UNL     1     -22.888  15.644  -7.099  1.00  0.00    -0.345 N 
HETATM   25  C16 UNL     1     -24.128  15.606  -6.389  1.00  0.00     0.252 C 
HETATM   26  O4  UNL     1     -24.077  15.680  -5.134  1.00  0.00    -0.270 OA
ATOM     27  H5  UNL     1     -22.898  15.580  -8.117  1.00  0.00     0.163 HD
BRANCH  25  28
HETATM   28  C17 UNL     1     -25.439  15.487  -7.053  1.00  0.00     0.133 C 
HETATM   29  C18 UNL     1     -25.838  16.731  -7.813  1.00  0.00     0.056 C 
HETATM   30  C19 UNL     1     -26.535  15.209  -6.026  1.00  0.00     0.056 C 
BRANCH  28  31
HETATM   31  O5  UNL     1     -25.361  14.441  -7.976  1.00  0.00    -0.376 OA
HETATM   32  C20 UNL     1     -25.573  13.194  -7.441  1.00  0.00     0.203 C 
ENDBRANCH  28  31
ENDBRANCH  25  28
ENDBRANCH  15  24
ENDBRANCH  12  15
ENDBRANCH   8  11
BRANCH   1  33
HETATM   33  C3  UNL     1     -13.545  20.920  -8.521  1.00  0.00     0.160 C 
BRANCH  33  34
HETATM   34  C2  UNL     1     -12.229  20.278  -8.011  1.00  0.00     0.029 C 
HETATM   35  C1  UNL     1     -11.010  21.095  -8.321  1.00  0.00     0.007 C 
ENDBRANCH  33  34
BRANCH  33  36
HETATM   36  C23 UNL     1     -13.945  22.039  -7.691  1.00  0.00     0.137 C 
BRANCH  36  37
HETATM   37  O6  UNL     1     -13.897  23.198  -8.296  1.00  0.00    -0.348 OA
ATOM     38  H6  UNL     1     -14.740  23.629  -8.377  1.00  0.00     0.219 HD
ENDBRANCH  36  37
BRANCH  36  39
HETATM   39  N6  UNL     1     -14.369  22.088  -6.359  1.00  0.00    -0.363 N 
HETATM   40  C24 UNL     1     -13.513  21.780  -5.251  1.00  0.00     0.124 C 
HETATM   41  C25 UNL     1     -14.173  20.753  -4.371  1.00  0.00     0.020 C 
HETATM   42  C26 UNL     1     -15.392  21.216  -3.649  1.00  0.00     0.002 C 
HETATM   43  C27 UNL     1     -16.690  20.994  -4.418  1.00  0.00     0.006 C 
HETATM   44  C28 UNL     1     -16.484  21.136  -5.909  1.00  0.00    -0.001 C 
HETATM   45  C29 UNL     1     -17.779  21.103  -6.663  1.00  0.00     0.011 C 
HETATM   46  C30 UNL     1     -15.791  22.465  -6.174  1.00  0.00     0.128 C 
ENDBRANCH  36  39
ENDBRANCH  33  36
ENDBRANCH   1  33
TORSDOF 12
ENDMDL
MODEL 2
REMARK VINA RESULT: -8.955470033      1.326      1.587
REMARK  12 active torsions:
REMARK  status: ('A' for Active; 'I' for Inactive)
REMARK    1  A    between atoms: C2_2  and  C3_3 
REMARK    2  A    between atoms: C3_3  and  N1_4 
REMARK    3  A    between atoms: C3_3  and  C23_36 
REMARK       I    between atoms: N1_4  and  C4_6 
REMARK       I    between atoms: C4_6  and  N2_8 
REMARK    4  A    between atoms: C7_11  and  N3_12 
REMARK       I    between atoms: N3_12  and  C8_14 
REMARK    5  A    between atoms: C8_14  and  C9_16 
REMARK    6  A    between atoms: C9_16  and  C10_17 
REMARK    7  A    between atoms: C9_16  and  N5_25 
REMARK    8  A    between atoms: C10_17  and  C11_18 
REMARK       I    between atoms: N5_25  and  C16_27 
REMARK    9  A    between atoms: C16_27  and  C17_29 
REMARK   10  A    between atoms: C17_29  and  O5_32 
REMARK   11  A    between atoms: C23_36  and  O6_37 
REMARK   12  A    between atoms: C23_36  and  N6_39 
ROOT
HETATM    1  N1  UNL     1     -14.660  20.111  -7.560  1.00  0.00    -0.331 N 
ATOM      2  H1  UNL     1     -14.676  19.372  -6.856  1.00  0.00     0.165 HD
HETATM    3  C4  UNL     1     -15.651  20.029  -8.537  1.00  0.00     0.319 C 
HETATM    4  O1  UNL     1     -15.743  20.860  -9.479  1.00  0.00    -0.247 OA
HETATM    5  N2  UNL     1     -16.641  18.977  -8.540  1.00  0.00    -0.334 N 
HETATM    6  C5  UNL     1     -16.724  18.078  -7.431  1.00  0.00     0.129 C 
HETATM    7  C6  UNL     1     -17.494  16.839  -7.773  1.00  0.00     0.045 C 
HETATM    8  C7  UNL     1     -18.794  17.024  -8.449  1.00  0.00     0.087 C 
HETATM    9  C21 UNL     1     -18.820  18.173  -9.401  1.00  0.00     0.045 C 
HETATM   10  C22 UNL     1     -17.507  18.786  -9.680  1.00  0.00     0.129 C 
ENDROOT
BRANCH   8  11
HETATM   11  N3  UNL     1     -19.938  17.140  -7.528  1.00  0.00    -0.355 N 
HETATM   12  C8  UNL     1     -20.587  15.951  -7.133  1.00  0.00     0.240 C 
HETATM   13  O2  UNL     1     -20.166  14.816  -7.547  1.00  0.00    -0.271 OA
ATOM     14  H3  UNL     1     -20.251  18.049  -7.187  1.00  0.00     0.162 HD
BRANCH  12  15
HETATM   15  C9  UNL     1     -21.785  15.914  -6.230  1.00  0.00     0.177 C 
BRANCH  15  16
HETATM   16  C10 UNL     1     -21.741  17.275  -5.531  1.00  0.00     0.049 C 
BRANCH  16  17
HETATM   17  C11 UNL     1     -21.210  17.230  -4.147  1.00  0.00     0.082 C 
HETATM   18  C12 UNL     1     -22.109  18.132  -3.292  1.00  0.00     0.034 C 
HETATM   19  C13 UNL     1     -21.237  18.396  -2.089  1.00  0.00     0.126 C 
HETATM   20  N4  UNL     1     -19.859  18.277  -2.593  1.00  0.00    -0.356 N 
HETATM   21  C14 UNL     1     -18.673  18.612  -1.835  1.00  0.00     0.152 C 
HETATM   22  C15 UNL     1     -19.881  17.800  -3.924  1.00  0.00     0.223 C 
HETATM   23  O3  UNL     1     -18.878  17.902  -4.694  1.00  0.00    -0.273 OA
ENDBRANCH  16  17
ENDBRANCH  15  16
BRANCH  15  24
HETATM   24  N5  UNL     1     -22.998  15.775  -6.968  1.00  0.00    -0.345 N 
HETATM   25  C16 UNL     1     -24.263  15.625  -6.321  1.00  0.00     0.252 C 
HETATM   26  O4  UNL     1     -24.270  15.611  -5.062  1.00  0.00    -0.270 OA
ATOM     27  H5  UNL     1     -22.961  15.784  -7.987  1.00  0.00     0.163 HD
BRANCH  25  28
HETATM   28  C17 UNL     1     -25.536  15.491  -7.052  1.00  0.00     0.133 C 
HETATM   29  C18 UNL     1     -25.928  16.742  -7.804  1.00  0.00     0.056 C 
HETATM   30  C19 UNL     1     -26.675  15.165  -6.086  1.00  0.00     0.056 C 
BRANCH  28  31
HETATM   31  O5  UNL     1     -25.388  14.467  -7.992  1.00  0.00    -0.376 OA
HETATM   32  C20 UNL     1     -25.556  13.203  -7.485  1.00  0.00     0.203 C 
ENDBRANCH  28  31
ENDBRANCH  25  28
ENDBRANCH  15  24
ENDBRANCH  12  15
ENDBRANCH   8  11
BRANCH   1  33
HETATM   33  C3  UNL     1     -13.610  21.097  -7.402  1.00  0.00     0.160 C 
BRANCH  33  34
HETATM   34  C2  UNL     1     -12.276  20.460  -7.868  1.00  0.00     0.029 C 
HETATM   35  C1  UNL     1     -11.232  21.471  -8.240  1.00  0.00     0.007 C 
ENDBRANCH  33  34
BRANCH  33  36
HETATM   36  C23 UNL     1     -13.540  21.520  -6.018  1.00  0.00     0.137 C 
BRANCH  36  37
HETATM   37  O6  UNL     1     -13.377  20.539  -5.166  1.00  0.00    -0.348 OA
ATOM     38  H6  UNL     1     -12.470  20.369  -4.939  1.00  0.00     0.219 HD
ENDBRANCH  36  37
BRANCH  36  39
HETATM   39  N6  UNL     1     -13.621  22.791  -5.441  1.00  0.00    -0.363 N 
HETATM   40  C24 UNL     1     -12.471  23.536  -5.020  1.00  0.00     0.124 C 
HETATM   41  C25 UNL     1     -12.649  23.979  -3.592  1.00  0.00     0.020 C 
HETATM   42  C26 UNL     1     -13.722  24.988  -3.363  1.00  0.00     0.002 C 
HETATM   43  C27 UNL     1     -15.087  24.381  -3.059  1.00  0.00     0.006 C 
HETATM   44  C28 UNL     1     -15.295  23.078  -3.797  1.00  0.00    -0.001 C 
HETATM   45  C29 UNL     1     -16.695  22.564  -3.655  1.00  0.00     0.011 C 
HETATM   46  C30 UNL     1     -15.000  23.310  -5.273  1.00  0.00     0.128 C 
ENDBRANCH  36  39
ENDBRANCH  33  36
ENDBRANCH   1  33
TORSDOF 12
ENDMDL
MODEL 3
REMARK VINA RESULT: -8.932319715      1.920      4.692
REMARK  12 active torsions:
REMARK  status: ('A' for Active; 'I' for Inactive)
REMARK    1  A    between atoms: C2_2  and  C3_3 
REMARK    2  A    between atoms: C3_3  and  N1_4 
REMARK    3  A    between atoms: C3_3  and  C23_36 
REMARK       I    between atoms: N1_4  and  C4_6 
REMARK       I    between atoms: C4_6  and  N2_8 
REMARK    4  A    between atoms: C7_11  and  N3_12 
REMARK       I    between atoms: N3_12  and  C8_14 
REMARK    5  A    between atoms: C8_14  and  C9_16 
REMARK    6  A    between atoms: C9_16  and  C10_17 
REMARK    7  A    between atoms: C9_16  and  N5_25 
REMARK    8  A    between atoms: C10_17  and  C11_18 
REMARK       I    between atoms: N5_25  and  C16_27 
REMARK    9  A    between atoms: C16_27  and  C17_29 
REMARK   10  A    between atoms: C17_29  and  O5_32 
REMARK   11  A    between atoms: C23_36  and  O6_37 
REMARK   12  A    between atoms: C23_36  and  N6_39 
ROOT
HETATM    1  N1  UNL     1     -14.343  21.282  -7.140  1.00  0.00    -0.331 N 
ATOM      2  H1  UNL     1     -14.363  20.688  -6.311  1.00  0.00     0.165 HD
HETATM    3  C4  UNL     1     -15.243  20.933  -8.146  1.00  0.00     0.319 C 
HETATM    4  O1  UNL     1     -15.319  21.564  -9.235  1.00  0.00    -0.247 OA
HETATM    5  N2  UNL     1     -16.150  19.817  -8.013  1.00  0.00    -0.334 N 
HETATM    6  C5  UNL     1     -16.258  19.136  -6.760  1.00  0.00     0.129 C 
HETATM    7  C6  UNL     1     -16.905  17.794  -6.908  1.00  0.00     0.045 C 
HETATM    8  C7  UNL     1     -18.156  17.736  -7.692  1.00  0.00     0.087 C 
HETATM    9  C21 UNL     1     -18.188  18.681  -8.846  1.00  0.00     0.045 C 
HETATM   10  C22 UNL     1     -16.905  19.343  -9.150  1.00  0.00     0.129 C 
ENDROOT
BRANCH   8  11
HETATM   11  N3  UNL     1     -19.376  17.921  -6.887  1.00  0.00    -0.355 N 
HETATM   12  C8  UNL     1     -20.196  16.794  -6.666  1.00  0.00     0.240 C 
HETATM   13  O2  UNL     1     -19.861  15.650  -7.133  1.00  0.00    -0.271 OA
ATOM     14  H3  UNL     1     -19.621  18.834  -6.503  1.00  0.00     0.162 HD
BRANCH  12  15
HETATM   15  C9  UNL     1     -21.485  16.835  -5.899  1.00  0.00     0.177 C 
BRANCH  15  16
HETATM   16  C10 UNL     1     -22.194  15.550  -6.334  1.00  0.00     0.049 C 
BRANCH  16  17
HETATM   17  C11 UNL     1     -23.317  15.766  -7.280  1.00  0.00     0.082 C 
HETATM   18  C12 UNL     1     -23.949  17.117  -6.923  1.00  0.00     0.034 C 
HETATM   19  C13 UNL     1     -25.305  17.011  -7.575  1.00  0.00     0.126 C 
HETATM   20  N4  UNL     1     -25.594  15.568  -7.606  1.00  0.00    -0.356 N 
HETATM   21  C14 UNL     1     -26.863  14.989  -7.993  1.00  0.00     0.152 C 
HETATM   22  C15 UNL     1     -24.451  14.847  -7.189  1.00  0.00     0.223 C 
HETATM   23  O3  UNL     1     -24.514  13.634  -6.825  1.00  0.00    -0.273 OA
ENDBRANCH  16  17
ENDBRANCH  15  16
BRANCH  15  24
HETATM   24  N5  UNL     1     -21.261  16.825  -4.491  1.00  0.00    -0.345 N 
HETATM   25  C16 UNL     1     -21.008  18.024  -3.757  1.00  0.00     0.252 C 
HETATM   26  O4  UNL     1     -20.981  19.103  -4.405  1.00  0.00    -0.270 OA
ATOM     27  H5  UNL     1     -21.282  15.935  -3.993  1.00  0.00     0.163 HD
BRANCH  25  28
HETATM   28  C17 UNL     1     -20.784  18.052  -2.300  1.00  0.00     0.133 C 
HETATM   29  C18 UNL     1     -20.226  16.756  -1.757  1.00  0.00     0.056 C 
HETATM   30  C19 UNL     1     -22.093  18.329  -1.562  1.00  0.00     0.056 C 
BRANCH  28  31
HETATM   31  O5  UNL     1     -19.850  19.055  -2.027  1.00  0.00    -0.376 OA
HETATM   32  C20 UNL     1     -18.545  18.630  -2.019  1.00  0.00     0.203 C 
ENDBRANCH  28  31
ENDBRANCH  25  28
ENDBRANCH  15  24
ENDBRANCH  12  15
ENDBRANCH   8  11
BRANCH   1  33
HETATM   33  C3  UNL     1     -13.384  22.368  -7.106  1.00  0.00     0.160 C 
BRANCH  33  34
HETATM   34  C2  UNL     1     -12.069  21.870  -7.757  1.00  0.00     0.029 C 
HETATM   35  C1  UNL     1     -11.655  22.676  -8.953  1.00  0.00     0.007 C 
ENDBRANCH  33  34
BRANCH  33  36
HETATM   36  C23 UNL     1     -13.171  22.788  -5.735  1.00  0.00     0.137 C 
BRANCH  36  37
HETATM   37  O6  UNL     1     -12.066  22.333  -5.202  1.00  0.00    -0.348 OA
ATOM     38  H6  UNL     1     -11.721  22.875  -4.502  1.00  0.00     0.219 HD
ENDBRANCH  36  37
BRANCH  36  39
HETATM   39  N6  UNL     1     -13.944  23.590  -4.890  1.00  0.00    -0.363 N 
HETATM   40  C24 UNL     1     -13.419  24.724  -4.188  1.00  0.00     0.124 C 
HETATM   41  C25 UNL     1     -13.748  24.611  -2.724  1.00  0.00     0.020 C 
HETATM   42  C26 UNL     1     -15.193  24.727  -2.381  1.00  0.00     0.002 C 
HETATM   43  C27 UNL     1     -15.938  23.396  -2.372  1.00  0.00     0.006 C 
HETATM   44  C28 UNL     1     -15.388  22.445  -3.411  1.00  0.00    -0.001 C 
HETATM   45  C29 UNL     1     -16.223  21.207  -3.541  1.00  0.00     0.011 C 
HETATM   46  C30 UNL     1     -15.357  23.164  -4.753  1.00  0.00     0.128 C 
ENDBRANCH  36  39
ENDBRANCH  33  36
ENDBRANCH   1  33
TORSDOF 12
ENDMDL
MODEL 4
REMARK VINA RESULT: -8.897313988      0.876      1.795
REMARK  12 active torsions:
REMARK  status: ('A' for Active; 'I' for Inactive)
REMARK    1  A    between atoms: C2_2  and  C3_3 
REMARK    2  A    between atoms: C3_3  and  N1_4 
REMARK    3  A    between atoms: C3_3  and  C23_36 
REMARK       I    between atoms: N1_4  and  C4_6 
REMARK       I    between atoms: C4_6  and  N2_8 
REMARK    4  A    between atoms: C7_11  and  N3_12 
REMARK       I    between atoms: N3_12  and  C8_14 
REMARK    5  A    between atoms: C8_14  and  C9_16 
REMARK    6  A    between atoms: C9_16  and  C10_17 
REMARK    7  A    between atoms: C9_16  and  N5_25 
REMARK    8  A    between atoms: C10_17  and  C11_18 
REMARK       I    between atoms: N5_25  and  C16_27 
REMARK    9  A    between atoms: C16_27  and  C17_29 
REMARK   10  A    between atoms: C17_29  and  O5_32 
REMARK   11  A    between atoms: C23_36  and  O6_37 
REMARK   12  A    between atoms: C23_36  and  N6_39 
ROOT
HETATM    1  N1  UNL     1     -14.615  19.941  -8.442  1.00  0.00    -0.331 N 
ATOM      2  H1  UNL     1     -14.581  19.298  -7.651  1.00  0.00     0.165 HD
HETATM    3  C4  UNL     1     -15.648  19.718  -9.351  1.00  0.00     0.319 C 
HETATM    4  O1  UNL     1     -15.803  20.421 -10.385  1.00  0.00    -0.247 OA
HETATM    5  N2  UNL     1     -16.612  18.658  -9.173  1.00  0.00    -0.334 N 
HETATM    6  C5  UNL     1     -16.623  17.906  -7.957  1.00  0.00     0.129 C 
HETATM    7  C6  UNL     1     -17.379  16.621  -8.101  1.00  0.00     0.045 C 
HETATM    8  C7  UNL     1     -18.713  16.696  -8.731  1.00  0.00     0.087 C 
HETATM    9  C21 UNL     1     -18.810  17.714  -9.818  1.00  0.00     0.045 C 
HETATM   10  C22 UNL     1     -17.525  18.308 -10.236  1.00  0.00     0.129 C 
ENDROOT
BRANCH   8  11
HETATM   11  N3  UNL     1     -19.816  16.909  -7.778  1.00  0.00    -0.355 N 
HETATM   12  C8  UNL     1     -20.527  15.775  -7.331  1.00  0.00     0.240 C 
HETATM   13  O2  UNL     1     -20.195  14.605  -7.730  1.00  0.00    -0.271 OA
ATOM     14  H3  UNL     1     -20.057  17.844  -7.451  1.00  0.00     0.162 HD
BRANCH  12  15
HETATM   15  C9  UNL     1     -21.694  15.838  -6.390  1.00  0.00     0.177 C 
BRANCH  15  16
HETATM   16  C10 UNL     1     -21.558  17.224  -5.753  1.00  0.00     0.049 C 
BRANCH  16  17
HETATM   17  C11 UNL     1     -21.019  17.207  -4.371  1.00  0.00     0.082 C 
HETATM   18  C12 UNL     1     -21.877  18.172  -3.544  1.00  0.00     0.034 C 
HETATM   19  C13 UNL     1     -20.988  18.444  -2.356  1.00  0.00     0.126 C 
HETATM   20  N4  UNL     1     -19.618  18.253  -2.863  1.00  0.00    -0.356 N 
HETATM   21  C14 UNL     1     -18.415  18.567  -2.123  1.00  0.00     0.152 C 
HETATM   22  C15 UNL     1     -19.668  17.731  -4.176  1.00  0.00     0.223 C 
HETATM   23  O3  UNL     1     -18.667  17.766  -4.954  1.00  0.00    -0.273 OA
ENDBRANCH  16  17
ENDBRANCH  15  16
BRANCH  15  24
HETATM   24  N5  UNL     1     -22.936  15.731  -7.082  1.00  0.00    -0.345 N 
HETATM   25  C16 UNL     1     -24.184  15.659  -6.389  1.00  0.00     0.252 C 
HETATM   26  O4  UNL     1     -24.148  15.686  -5.131  1.00  0.00    -0.270 OA
ATOM     27  H5  UNL     1     -22.934  15.706  -8.102  1.00  0.00     0.163 HD
BRANCH  25  28
HETATM   28  C17 UNL     1     -25.487  15.560  -7.072  1.00  0.00     0.133 C 
HETATM   29  C18 UNL     1     -25.503  14.534  -8.181  1.00  0.00     0.056 C 
HETATM   30  C19 UNL     1     -25.871  16.904  -7.689  1.00  0.00     0.056 C 
BRANCH  28  31
HETATM   31  O5  UNL     1     -26.440  15.169  -6.127  1.00  0.00    -0.376 OA
HETATM   32  C20 UNL     1     -27.638  15.833  -6.221  1.00  0.00     0.203 C 
ENDBRANCH  28  31
ENDBRANCH  25  28
ENDBRANCH  15  24
ENDBRANCH  12  15
ENDBRANCH   8  11
BRANCH   1  33
HETATM   33  C3  UNL     1     -13.581  20.957  -8.461  1.00  0.00     0.160 C 
BRANCH  33  34
HETATM   34  C2  UNL     1     -12.253  20.302  -8.006  1.00  0.00     0.029 C 
HETATM   35  C1  UNL     1     -11.045  21.145  -8.292  1.00  0.00     0.007 C 
ENDBRANCH  33  34
BRANCH  33  36
HETATM   36  C23 UNL     1     -13.958  22.053  -7.591  1.00  0.00     0.137 C 
BRANCH  36  37
HETATM   37  O6  UNL     1     -13.848  23.236  -8.142  1.00  0.00    -0.348 OA
ATOM     38  H6  UNL     1     -13.663  23.935  -7.526  1.00  0.00     0.219 HD
ENDBRANCH  36  37
BRANCH  36  39
HETATM   39  N6  UNL     1     -14.412  22.061  -6.269  1.00  0.00    -0.363 N 
HETATM   40  C24 UNL     1     -15.799  22.149  -5.916  1.00  0.00     0.124 C 
HETATM   41  C25 UNL     1     -16.002  23.271  -4.933  1.00  0.00     0.020 C 
HETATM   42  C26 UNL     1     -15.395  23.062  -3.589  1.00  0.00     0.002 C 
HETATM   43  C27 UNL     1     -13.966  23.579  -3.467  1.00  0.00     0.006 C 
HETATM   44  C28 UNL     1     -13.209  23.435  -4.768  1.00  0.00    -0.001 C 
HETATM   45  C29 UNL     1     -11.755  23.766  -4.617  1.00  0.00     0.011 C 
HETATM   46  C30 UNL     1     -13.342  21.994  -5.245  1.00  0.00     0.128 C 
ENDBRANCH  36  39
ENDBRANCH  33  36
ENDBRANCH   1  33
TORSDOF 12
ENDMDL
MODEL 5
REMARK VINA RESULT: -8.863091440      2.541     10.670
REMARK  12 active torsions:
REMARK  status: ('A' for Active; 'I' for Inactive)
REMARK    1  A    between atoms: C2_2  and  C3_3 
REMARK    2  A    between atoms: C3_3  and  N1_4 
REMARK    3  A    between atoms: C3_3  and  C23_36 
REMARK       I    between atoms: N1_4  and  C4_6 
REMARK       I    between atoms: C4_6  and  N2_8 
REMARK    4  A    between atoms: C7_11  and  N3_12 
REMARK       I    between atoms: N3_12  and  C8_14 
REMARK    5  A    between atoms: C8_14  and  C9_16 
REMARK    6  A    between atoms: C9_16  and  C10_17 
REMARK    7  A    between atoms: C9_16  and  N5_25 
REMARK    8  A    between atoms: C10_17  and  C11_18 
REMARK       I    between atoms: N5_25  and  C16_27 
REMARK    9  A    between atoms: C16_27  and  C17_29 
REMARK   10  A    between atoms: C17_29  and  O5_32 
REMARK   11  A    between atoms: C23_36  and  O6_37 
REMARK   12  A    between atoms: C23_36  and  N6_39 
ROOT
HETATM    1  N1  UNL     1     -18.360  19.355  -3.948  1.00  0.00    -0.331 N 
ATOM      2  H1  UNL     1     -17.661  18.795  -4.437  1.00  0.00     0.165 HD
HETATM    3  C4  UNL     1     -17.999  20.679  -3.701  1.00  0.00     0.319 C 
HETATM    4  O1  UNL     1     -18.753  21.483  -3.090  1.00  0.00    -0.247 OA
HETATM    5  N2  UNL     1     -16.730  21.222  -4.125  1.00  0.00    -0.334 N 
HETATM    6  C5  UNL     1     -15.870  20.444  -4.963  1.00  0.00     0.129 C 
HETATM    7  C6  UNL     1     -14.467  20.968  -4.963  1.00  0.00     0.045 C 
HETATM    8  C7  UNL     1     -14.295  22.420  -5.169  1.00  0.00     0.087 C 
HETATM    9  C21 UNL     1     -15.371  23.249  -4.553  1.00  0.00     0.045 C 
HETATM   10  C22 UNL     1     -16.292  22.517  -3.660  1.00  0.00     0.129 C 
ENDROOT
BRANCH   8  11
HETATM   11  N3  UNL     1     -14.140  22.811  -6.581  1.00  0.00    -0.355 N 
HETATM   12  C8  UNL     1     -13.341  21.991  -7.407  1.00  0.00     0.240 C 
HETATM   13  O2  UNL     1     -12.799  20.932  -6.936  1.00  0.00    -0.271 OA
ATOM     14  H3  UNL     1     -14.594  23.646  -6.950  1.00  0.00     0.162 HD
BRANCH  12  15
HETATM   15  C9  UNL     1     -13.062  22.280  -8.853  1.00  0.00     0.177 C 
BRANCH  15  16
HETATM   16  C10 UNL     1     -14.424  22.072  -9.521  1.00  0.00     0.049 C 
BRANCH  16  17
HETATM   17  C11 UNL     1     -15.078  20.785  -9.180  1.00  0.00     0.082 C 
HETATM   18  C12 UNL     1     -15.437  20.100 -10.504  1.00  0.00     0.034 C 
HETATM   19  C13 UNL     1     -16.480  19.101 -10.070  1.00  0.00     0.126 C 
HETATM   20  N4  UNL     1     -17.092  19.698  -8.870  1.00  0.00    -0.356 N 
HETATM   21  C14 UNL     1     -18.261  19.176  -8.196  1.00  0.00     0.152 C 
HETATM   22  C15 UNL     1     -16.369  20.854  -8.495  1.00  0.00     0.223 C 
HETATM   23  O3  UNL     1     -16.848  21.723  -7.707  1.00  0.00    -0.273 OA
ENDBRANCH  16  17
ENDBRANCH  15  16
BRANCH  15  24
HETATM   24  N5  UNL     1     -12.616  23.620  -9.046  1.00  0.00    -0.345 N 
HETATM   25  C16 UNL     1     -11.331  23.916  -9.596  1.00  0.00     0.252 C 
HETATM   26  O4  UNL     1     -10.594  22.942  -9.900  1.00  0.00    -0.270 OA
ATOM     27  H5  UNL     1     -13.232  24.390  -8.785  1.00  0.00     0.163 HD
BRANCH  25  28
HETATM   28  C17 UNL     1     -10.841  25.289  -9.821  1.00  0.00     0.133 C 
HETATM   29  C18 UNL     1     -11.884  26.205 -10.418  1.00  0.00     0.056 C 
HETATM   30  C19 UNL     1      -9.644  25.281 -10.771  1.00  0.00     0.056 C 
BRANCH  28  31
HETATM   31  O5  UNL     1     -10.475  25.824  -8.582  1.00  0.00    -0.376 OA
HETATM   32  C20 UNL     1     -10.104  27.145  -8.621  1.00  0.00     0.203 C 
ENDBRANCH  28  31
ENDBRANCH  25  28
ENDBRANCH  15  24
ENDBRANCH  12  15
ENDBRANCH   8  11
BRANCH   1  33
HETATM   33  C3  UNL     1     -19.586  18.662  -3.607  1.00  0.00     0.160 C 
BRANCH  33  34
HETATM   34  C2  UNL     1     -19.375  17.950  -2.247  1.00  0.00     0.029 C 
HETATM   35  C1  UNL     1     -20.659  17.561  -1.574  1.00  0.00     0.007 C 
ENDBRANCH  33  34
BRANCH  33  36
HETATM   36  C23 UNL     1     -19.919  17.716  -4.654  1.00  0.00     0.137 C 
BRANCH  36  37
HETATM   37  O6  UNL     1     -18.956  16.879  -4.946  1.00  0.00    -0.348 OA
ATOM     38  H6  UNL     1     -18.906  16.127  -4.367  1.00  0.00     0.219 HD
ENDBRANCH  36  37
BRANCH  36  39
HETATM   39  N6  UNL     1     -21.088  17.550  -5.403  1.00  0.00    -0.363 N 
HETATM   40  C24 UNL     1     -22.399  17.556  -4.823  1.00  0.00     0.124 C 
HETATM   41  C25 UNL     1     -23.148  16.322  -5.250  1.00  0.00     0.020 C 
HETATM   42  C26 UNL     1     -23.495  16.252  -6.698  1.00  0.00     0.002 C 
HETATM   43  C27 UNL     1     -22.433  15.573  -7.557  1.00  0.00     0.006 C 
HETATM   44  C28 UNL     1     -21.040  15.838  -7.032  1.00  0.00    -0.001 C 
HETATM   45  C29 UNL     1     -19.979  15.334  -7.964  1.00  0.00     0.011 C 
HETATM   46  C30 UNL     1     -20.870  17.341  -6.854  1.00  0.00     0.128 C 
ENDBRANCH  36  39
ENDBRANCH  33  36
ENDBRANCH   1  33
TORSDOF 12
ENDMDL
