MODEL 1
REMARK VINA RESULT: -9.977463492      0.000      0.000
REMARK  12 active torsions:
REMARK  status: ('A' for Active; 'I' for Inactive)
REMARK    1  A    between atoms: C2_2  and  C4_4 
REMARK    2  A    between atoms: C4_4  and  C5_5 
REMARK    3  A    between atoms: C5_5  and  N1_6 
REMARK    4  A    between atoms: C5_5  and  C24_34 
REMARK       I    between atoms: N1_6  and  C6_7 
REMARK       I    between atoms: C6_7  and  N2_9 
REMARK    5  A    between atoms: C10_13  and  C11_14 
REMARK    6  A    between atoms: C11_14  and  N3_15 
REMARK    7  A    between atoms: C11_14  and  C12_19 
REMARK    8  A    between atoms: C12_19  and  C13_20 
REMARK       I    between atoms: C13_20  and  N4_22 
REMARK    9  A    between atoms: C16_25  and  N5_26 
REMARK   10  A    between atoms: C24_34  and  O3_35 
REMARK   11  A    between atoms: C24_34  and  N6_37 
REMARK   12  A    between atoms: C30_43  and  C31_44 
ROOT
HETATM    1  N1  UNL     1     -15.709  19.898  -6.796  1.00  0.00    -0.348 NA
HETATM    2  C6  UNL     1     -16.922  19.524  -7.275  1.00  0.00     0.397 C 
HETATM    3  O1  UNL     1     -17.885  19.089  -6.587  1.00  0.00    -0.230 OA
HETATM    4  N2  UNL     1     -17.145  19.576  -8.694  1.00  0.00    -0.315 N 
HETATM    5  C7  UNL     1     -16.535  20.475  -9.680  1.00  0.00     0.129 C 
HETATM    6  C8  UNL     1     -15.746  19.518 -10.530  1.00  0.00     0.022 C 
HETATM    7  C9  UNL     1     -16.695  18.334 -10.581  1.00  0.00     0.029 C 
HETATM    8  C10 UNL     1     -17.721  18.549  -9.537  1.00  0.00     0.120 C 
ENDROOT
BRANCH   8   9
HETATM    9  C11 UNL     1     -18.140  17.309  -8.779  1.00  0.00     0.215 C 
BRANCH   9  10
HETATM   10  N3  UNL     1     -17.298  16.213  -9.387  1.00  0.00    -0.073 N 
ATOM     11  H33 UNL     1     -17.119  15.426  -8.763  1.00  0.00     0.274 HD
ATOM     12  H32 UNL     1     -17.770  15.673 -10.112  1.00  0.00     0.274 HD
ATOM     13  H31 UNL     1     -16.458  16.699  -9.703  1.00  0.00     0.274 HD
ENDBRANCH   9  10
BRANCH   9  14
HETATM   14  C12 UNL     1     -19.509  16.888  -9.327  1.00  0.00     0.137 C 
BRANCH  14  15
HETATM   15  C13 UNL     1     -20.601  17.568  -8.624  1.00  0.00     0.221 C 
HETATM   16  O2  UNL     1     -21.062  18.667  -8.932  1.00  0.00    -0.273 OA
HETATM   17  N4  UNL     1     -21.211  16.868  -7.473  1.00  0.00    -0.352 N 
HETATM   18  C14 UNL     1     -20.606  15.788  -6.809  1.00  0.00     0.128 C 
HETATM   19  C23 UNL     1     -22.606  17.212  -7.136  1.00  0.00     0.128 C 
HETATM   20  C15 UNL     1     -20.288  16.308  -5.345  1.00  0.00     0.055 C 
HETATM   21  C16 UNL     1     -21.302  17.382  -5.091  1.00  0.00     0.226 C 
HETATM   22  C22 UNL     1     -22.596  17.057  -5.605  1.00  0.00     0.055 C 
BRANCH  21  23
HETATM   23  N5  UNL     1     -21.280  17.976  -3.822  1.00  0.00     0.093 N 
HETATM   24  C17 UNL     1     -20.642  19.255  -3.734  1.00  0.00     0.273 C 
HETATM   25  C18 UNL     1     -19.224  19.266  -3.328  1.00  0.00     0.030 C 
HETATM   26  C19 UNL     1     -19.022  18.685  -1.953  1.00  0.00     0.003 C 
HETATM   27  C20 UNL     1     -20.265  17.829  -1.643  1.00  0.00     0.030 C 
HETATM   28  C21 UNL     1     -20.630  17.050  -2.836  1.00  0.00     0.273 C 
ENDBRANCH  21  23
ENDBRANCH  14  15
ENDBRANCH   9  14
ENDBRANCH   8   9
BRANCH   1  29
HETATM   29  C5  UNL     1     -14.507  20.265  -6.302  1.00  0.00     0.160 C 
BRANCH  29  30
HETATM   30  C4  UNL     1     -13.238  20.302  -7.105  1.00  0.00     0.026 C 
BRANCH  30  31
HETATM   31  C2  UNL     1     -12.622  21.530  -7.594  1.00  0.00     0.003 C 
HETATM   32  C1  UNL     1     -11.271  21.256  -8.243  1.00  0.00     0.013 C 
HETATM   33  C3  UNL     1     -13.498  22.235  -8.587  1.00  0.00     0.013 C 
ENDBRANCH  30  31
ENDBRANCH  29  30
BRANCH  29  34
HETATM   34  C24 UNL     1     -14.249  20.588  -4.877  1.00  0.00     0.180 C 
BRANCH  34  35
HETATM   35  O3  UNL     1     -13.756  19.671  -4.087  1.00  0.00    -0.344 OA
ATOM     36  H3  UNL     1     -13.043  19.894  -3.499  1.00  0.00     0.219 HD
ENDBRANCH  34  35
BRANCH  34  37
HETATM   37  N6  UNL     1     -14.485  21.819  -4.268  1.00  0.00    -0.344 N 
HETATM   38  C25 UNL     1     -14.747  22.177  -2.912  1.00  0.00     0.135 C 
HETATM   39  C26 UNL     1     -15.946  23.166  -3.094  1.00  0.00    -0.029 C 
HETATM   40  C27 UNL     1     -15.935  24.126  -1.979  1.00  0.00     0.016 C 
HETATM   41  C28 UNL     1     -17.195  22.349  -3.146  1.00  0.00     0.016 C 
HETATM   42  C29 UNL     1     -15.603  23.807  -4.432  1.00  0.00     0.046 C 
HETATM   43  C30 UNL     1     -14.392  23.103  -5.004  1.00  0.00     0.188 C 
BRANCH  43  44
HETATM   44  C31 UNL     1     -13.176  23.843  -4.564  1.00  0.00     0.196 C 
HETATM   45  O4  UNL     1     -12.039  23.378  -4.538  1.00  0.00    -0.646 OA
HETATM   46  O5  UNL     1     -13.404  25.166  -4.148  1.00  0.00    -0.646 OA
ENDBRANCH  43  44
ENDBRANCH  34  37
ENDBRANCH  29  34
ENDBRANCH   1  29
TORSDOF 12
ENDMDL
MODEL 2
REMARK VINA RESULT: -9.863081416      1.026      1.797
REMARK  12 active torsions:
REMARK  status: ('A' for Active; 'I' for Inactive)
REMARK    1  A    between atoms: C2_2  and  C4_4 
REMARK    2  A    between atoms: C4_4  and  C5_5 
REMARK    3  A    between atoms: C5_5  and  N1_6 
REMARK    4  A    between atoms: C5_5  and  C24_34 
REMARK       I    between atoms: N1_6  and  C6_7 
REMARK       I    between atoms: C6_7  and  N2_9 
REMARK    5  A    between atoms: C10_13  and  C11_14 
REMARK    6  A    between atoms: C11_14  and  N3_15 
REMARK    7  A    between atoms: C11_14  and  C12_19 
REMARK    8  A    between atoms: C12_19  and  C13_20 
REMARK       I    between atoms: C13_20  and  N4_22 
REMARK    9  A    between atoms: C16_25  and  N5_26 
REMARK   10  A    between atoms: C24_34  and  O3_35 
REMARK   11  A    between atoms: C24_34  and  N6_37 
REMARK   12  A    between atoms: C30_43  and  C31_44 
ROOT
HETATM    1  N1  UNL     1     -15.680  19.972  -6.689  1.00  0.00    -0.348 NA
HETATM    2  C6  UNL     1     -16.889  19.621  -7.197  1.00  0.00     0.397 C 
HETATM    3  O1  UNL     1     -17.872  19.192  -6.534  1.00  0.00    -0.230 OA
HETATM    4  N2  UNL     1     -17.081  19.692  -8.619  1.00  0.00    -0.315 N 
HETATM    5  C7  UNL     1     -16.438  20.593  -9.583  1.00  0.00     0.129 C 
HETATM    6  C8  UNL     1     -15.645  19.634 -10.427  1.00  0.00     0.022 C 
HETATM    7  C9  UNL     1     -16.610  18.465 -10.511  1.00  0.00     0.029 C 
HETATM    8  C10 UNL     1     -17.653  18.682  -9.486  1.00  0.00     0.120 C 
ENDROOT
BRANCH   8   9
HETATM    9  C11 UNL     1     -18.105  17.440  -8.751  1.00  0.00     0.215 C 
BRANCH   9  10
HETATM   10  N3  UNL     1     -17.236  16.347  -9.323  1.00  0.00    -0.073 N 
ATOM     11  H33 UNL     1     -17.700  15.442  -9.407  1.00  0.00     0.274 HD
ATOM     12  H32 UNL     1     -17.024  16.453 -10.315  1.00  0.00     0.274 HD
ATOM     13  H31 UNL     1     -16.417  16.344  -8.716  1.00  0.00     0.274 HD
ENDBRANCH   9  10
BRANCH   9  14
HETATM   14  C12 UNL     1     -19.449  17.020  -9.361  1.00  0.00     0.137 C 
BRANCH  14  15
HETATM   15  C13 UNL     1     -20.575  17.643  -8.659  1.00  0.00     0.221 C 
HETATM   16  O2  UNL     1     -21.077  18.728  -8.954  1.00  0.00    -0.273 OA
HETATM   17  N4  UNL     1     -21.169  16.899  -7.528  1.00  0.00    -0.352 N 
HETATM   18  C14 UNL     1     -20.529  15.834  -6.875  1.00  0.00     0.128 C 
HETATM   19  C23 UNL     1     -22.581  17.181  -7.202  1.00  0.00     0.128 C 
HETATM   20  C15 UNL     1     -20.249  16.340  -5.398  1.00  0.00     0.055 C 
HETATM   21  C16 UNL     1     -21.308  17.368  -5.139  1.00  0.00     0.226 C 
HETATM   22  C22 UNL     1     -22.582  17.000  -5.673  1.00  0.00     0.055 C 
BRANCH  21  23
HETATM   23  N5  UNL     1     -21.325  17.941  -3.860  1.00  0.00     0.093 N 
HETATM   24  C17 UNL     1     -20.791  19.265  -3.753  1.00  0.00     0.273 C 
HETATM   25  C18 UNL     1     -19.376  19.383  -3.356  1.00  0.00     0.030 C 
HETATM   26  C19 UNL     1     -19.116  18.798  -1.992  1.00  0.00     0.003 C 
HETATM   27  C20 UNL     1     -20.285  17.838  -1.689  1.00  0.00     0.030 C 
HETATM   28  C21 UNL     1     -20.594  17.053  -2.894  1.00  0.00     0.273 C 
ENDBRANCH  21  23
ENDBRANCH  14  15
ENDBRANCH   9  14
ENDBRANCH   8   9
BRANCH   1  29
HETATM   29  C5  UNL     1     -14.484  20.317  -6.166  1.00  0.00     0.160 C 
BRANCH  29  30
HETATM   30  C4  UNL     1     -13.179  20.220  -6.904  1.00  0.00     0.026 C 
BRANCH  30  31
HETATM   31  C2  UNL     1     -12.888  20.944  -8.136  1.00  0.00     0.003 C 
HETATM   32  C1  UNL     1     -13.615  22.282  -8.182  1.00  0.00     0.013 C 
HETATM   33  C3  UNL     1     -11.418  21.192  -8.302  1.00  0.00     0.013 C 
ENDBRANCH  30  31
ENDBRANCH  29  30
BRANCH  29  34
HETATM   34  C24 UNL     1     -14.274  20.746  -4.761  1.00  0.00     0.180 C 
BRANCH  34  35
HETATM   35  O3  UNL     1     -13.907  19.866  -3.867  1.00  0.00    -0.344 OA
ATOM     36  H3  UNL     1     -14.501  19.640  -3.161  1.00  0.00     0.219 HD
ENDBRANCH  34  35
BRANCH  34  37
HETATM   37  N6  UNL     1     -14.433  22.042  -4.275  1.00  0.00    -0.344 N 
HETATM   38  C25 UNL     1     -14.455  23.310  -4.931  1.00  0.00     0.135 C 
HETATM   39  C26 UNL     1     -13.522  24.143  -3.990  1.00  0.00    -0.029 C 
HETATM   40  C27 UNL     1     -13.921  25.558  -4.070  1.00  0.00     0.016 C 
HETATM   41  C28 UNL     1     -12.117  23.910  -4.435  1.00  0.00     0.016 C 
HETATM   42  C29 UNL     1     -13.827  23.517  -2.636  1.00  0.00     0.046 C 
HETATM   43  C30 UNL     1     -14.738  22.328  -2.852  1.00  0.00     0.188 C 
BRANCH  43  44
HETATM   44  C31 UNL     1     -16.147  22.796  -2.729  1.00  0.00     0.196 C 
HETATM   45  O4  UNL     1     -17.107  22.302  -3.313  1.00  0.00    -0.646 OA
HETATM   46  O5  UNL     1     -16.334  23.896  -1.873  1.00  0.00    -0.646 OA
ENDBRANCH  43  44
ENDBRANCH  34  37
ENDBRANCH  29  34
ENDBRANCH   1  29
TORSDOF 12
ENDMDL
MODEL 3
REMARK VINA RESULT: -9.779276248      1.501      5.512
REMARK  12 active torsions:
REMARK  status: ('A' for Active; 'I' for Inactive)
REMARK    1  A    between atoms: C2_2  and  C4_4 
REMARK    2  A    between atoms: C4_4  and  C5_5 
REMARK    3  A    between atoms: C5_5  and  N1_6 
REMARK    4  A    between atoms: C5_5  and  C24_34 
REMARK       I    between atoms: N1_6  and  C6_7 
REMARK       I    between atoms: C6_7  and  N2_9 
REMARK    5  A    between atoms: C10_13  and  C11_14 
REMARK    6  A    between atoms: C11_14  and  N3_15 
REMARK    7  A    between atoms: C11_14  and  C12_19 
REMARK    8  A    between atoms: C12_19  and  C13_20 
REMARK       I    between atoms: C13_20  and  N4_22 
REMARK    9  A    between atoms: C16_25  and  N5_26 
REMARK   10  A    between atoms: C24_34  and  O3_35 
REMARK   11  A    between atoms: C24_34  and  N6_37 
REMARK   12  A    between atoms: C30_43  and  C31_44 
ROOT
HETATM    1  N1  UNL     1     -16.995  19.544  -4.462  1.00  0.00    -0.348 NA
HETATM    2  C6  UNL     1     -17.964  18.616  -4.663  1.00  0.00     0.397 C 
HETATM    3  O1  UNL     1     -18.320  18.148  -5.778  1.00  0.00    -0.230 OA
HETATM    4  N2  UNL     1     -18.700  18.136  -3.524  1.00  0.00    -0.315 N 
HETATM    5  C7  UNL     1     -18.250  18.017  -2.133  1.00  0.00     0.129 C 
HETATM    6  C8  UNL     1     -19.141  19.004  -1.430  1.00  0.00     0.022 C 
HETATM    7  C9  UNL     1     -20.448  18.785  -2.172  1.00  0.00     0.029 C 
HETATM    8  C10 UNL     1     -20.136  18.006  -3.390  1.00  0.00     0.120 C 
ENDROOT
BRANCH   8   9
HETATM    9  C11 UNL     1     -20.899  18.415  -4.630  1.00  0.00     0.215 C 
BRANCH   9  10
HETATM   10  N3  UNL     1     -21.990  19.315  -4.102  1.00  0.00    -0.073 N 
ATOM     11  H33 UNL     1     -22.570  18.891  -3.378  1.00  0.00     0.274 HD
ATOM     12  H32 UNL     1     -21.655  20.093  -3.533  1.00  0.00     0.274 HD
ATOM     13  H31 UNL     1     -22.500  19.595  -4.940  1.00  0.00     0.274 HD
ENDBRANCH   9  10
BRANCH   9  14
HETATM   14  C12 UNL     1     -21.760  17.215  -5.045  1.00  0.00     0.137 C 
BRANCH  14  15
HETATM   15  C13 UNL     1     -20.971  16.211  -5.765  1.00  0.00     0.221 C 
HETATM   16  O2  UNL     1     -20.338  15.298  -5.235  1.00  0.00    -0.273 OA
HETATM   17  N4  UNL     1     -20.955  16.287  -7.241  1.00  0.00    -0.352 N 
HETATM   18  C14 UNL     1     -21.344  17.425  -7.966  1.00  0.00     0.128 C 
HETATM   19  C23 UNL     1     -20.693  15.036  -7.979  1.00  0.00     0.128 C 
HETATM   20  C15 UNL     1     -20.031  17.943  -8.689  1.00  0.00     0.055 C 
HETATM   21  C16 UNL     1     -19.176  16.724  -8.850  1.00  0.00     0.226 C 
HETATM   22  C22 UNL     1     -19.927  15.561  -9.207  1.00  0.00     0.055 C 
BRANCH  21  23
HETATM   23  N5  UNL     1     -17.960  16.896  -9.527  1.00  0.00     0.093 N 
HETATM   24  C17 UNL     1     -16.837  17.274  -8.723  1.00  0.00     0.273 C 
HETATM   25  C18 UNL     1     -16.536  18.714  -8.632  1.00  0.00     0.030 C 
HETATM   26  C19 UNL     1     -16.214  19.315  -9.976  1.00  0.00     0.003 C 
HETATM   27  C20 UNL     1     -16.789  18.359 -11.040  1.00  0.00     0.030 C 
HETATM   28  C21 UNL     1     -18.125  17.911 -10.621  1.00  0.00     0.273 C 
ENDBRANCH  21  23
ENDBRANCH  14  15
ENDBRANCH   9  14
ENDBRANCH   8   9
BRANCH   1  29
HETATM   29  C5  UNL     1     -16.027  20.468  -4.282  1.00  0.00     0.160 C 
BRANCH  29  30
HETATM   30  C4  UNL     1     -16.227  21.772  -3.565  1.00  0.00     0.026 C 
BRANCH  30  31
HETATM   31  C2  UNL     1     -17.346  22.673  -3.815  1.00  0.00     0.003 C 
HETATM   32  C1  UNL     1     -17.408  23.092  -5.279  1.00  0.00     0.013 C 
HETATM   33  C3  UNL     1     -18.657  22.050  -3.438  1.00  0.00     0.013 C 
ENDBRANCH  30  31
ENDBRANCH  29  30
BRANCH  29  34
HETATM   34  C24 UNL     1     -14.659  20.372  -4.849  1.00  0.00     0.180 C 
BRANCH  34  35
HETATM   35  O3  UNL     1     -13.910  19.341  -4.555  1.00  0.00    -0.344 OA
ATOM     36  H3  UNL     1     -12.970  19.452  -4.480  1.00  0.00     0.219 HD
ENDBRANCH  34  35
BRANCH  34  37
HETATM   37  N6  UNL     1     -14.065  21.303  -5.698  1.00  0.00    -0.344 N 
HETATM   38  C25 UNL     1     -14.492  21.877  -6.932  1.00  0.00     0.135 C 
HETATM   39  C26 UNL     1     -13.182  21.760  -7.781  1.00  0.00    -0.029 C 
HETATM   40  C27 UNL     1     -13.177  22.837  -8.784  1.00  0.00     0.016 C 
HETATM   41  C28 UNL     1     -13.166  20.397  -8.390  1.00  0.00     0.016 C 
HETATM   42  C29 UNL     1     -12.116  21.942  -6.709  1.00  0.00     0.046 C 
HETATM   43  C30 UNL     1     -12.797  21.995  -5.359  1.00  0.00     0.188 C 
BRANCH  43  44
HETATM   44  C31 UNL     1     -13.079  23.423  -5.039  1.00  0.00     0.196 C 
HETATM   45  O4  UNL     1     -14.126  23.843  -4.554  1.00  0.00    -0.646 OA
HETATM   46  O5  UNL     1     -12.036  24.316  -5.343  1.00  0.00    -0.646 OA
ENDBRANCH  43  44
ENDBRANCH  34  37
ENDBRANCH  29  34
ENDBRANCH   1  29
TORSDOF 12
ENDMDL
MODEL 4
REMARK VINA RESULT: -9.560601299      1.814      5.411
REMARK  12 active torsions:
REMARK  status: ('A' for Active; 'I' for Inactive)
REMARK    1  A    between atoms: C2_2  and  C4_4 
REMARK    2  A    between atoms: C4_4  and  C5_5 
REMARK    3  A    between atoms: C5_5  and  N1_6 
REMARK    4  A    between atoms: C5_5  and  C24_34 
REMARK       I    between atoms: N1_6  and  C6_7 
REMARK       I    between atoms: C6_7  and  N2_9 
REMARK    5  A    between atoms: C10_13  and  C11_14 
REMARK    6  A    between atoms: C11_14  and  N3_15 
REMARK    7  A    between atoms: C11_14  and  C12_19 
REMARK    8  A    between atoms: C12_19  and  C13_20 
REMARK       I    between atoms: C13_20  and  N4_22 
REMARK    9  A    between atoms: C16_25  and  N5_26 
REMARK   10  A    between atoms: C24_34  and  O3_35 
REMARK   11  A    between atoms: C24_34  and  N6_37 
REMARK   12  A    between atoms: C30_43  and  C31_44 
ROOT
HETATM    1  N1  UNL     1     -17.141  19.396  -4.483  1.00  0.00    -0.348 NA
HETATM    2  C6  UNL     1     -18.129  18.485  -4.673  1.00  0.00     0.397 C 
HETATM    3  O1  UNL     1     -18.492  18.011  -5.784  1.00  0.00    -0.230 OA
HETATM    4  N2  UNL     1     -18.875  18.034  -3.531  1.00  0.00    -0.315 N 
HETATM    5  C7  UNL     1     -18.430  17.924  -2.136  1.00  0.00     0.129 C 
HETATM    6  C8  UNL     1     -19.303  18.938  -1.449  1.00  0.00     0.022 C 
HETATM    7  C9  UNL     1     -20.613  18.735  -2.190  1.00  0.00     0.029 C 
HETATM    8  C10 UNL     1     -20.314  17.935  -3.398  1.00  0.00     0.120 C 
ENDROOT
BRANCH   8   9
HETATM    9  C11 UNL     1     -21.067  18.343  -4.644  1.00  0.00     0.215 C 
BRANCH   9  10
HETATM   10  N3  UNL     1     -22.187  19.209  -4.122  1.00  0.00    -0.073 N 
ATOM     11  H33 UNL     1     -22.570  18.906  -3.226  1.00  0.00     0.274 HD
ATOM     12  H32 UNL     1     -21.893  20.134  -3.808  1.00  0.00     0.274 HD
ATOM     13  H31 UNL     1     -22.863  19.219  -4.886  1.00  0.00     0.274 HD
ENDBRANCH   9  10
BRANCH   9  14
HETATM   14  C12 UNL     1     -21.892  17.129  -5.089  1.00  0.00     0.137 C 
BRANCH  14  15
HETATM   15  C13 UNL     1     -21.063  16.146  -5.794  1.00  0.00     0.221 C 
HETATM   16  O2  UNL     1     -20.422  15.246  -5.253  1.00  0.00    -0.273 OA
HETATM   17  N4  UNL     1     -21.016  16.228  -7.270  1.00  0.00    -0.352 N 
HETATM   18  C14 UNL     1     -21.415  17.359  -8.000  1.00  0.00     0.128 C 
HETATM   19  C23 UNL     1     -20.708  14.986  -8.006  1.00  0.00     0.128 C 
HETATM   20  C15 UNL     1     -20.098  17.911  -8.691  1.00  0.00     0.055 C 
HETATM   21  C16 UNL     1     -19.211  16.712  -8.837  1.00  0.00     0.226 C 
HETATM   22  C22 UNL     1     -19.927  15.533  -9.214  1.00  0.00     0.055 C 
BRANCH  21  23
HETATM   23  N5  UNL     1     -17.985  16.915  -9.485  1.00  0.00     0.093 N 
HETATM   24  C17 UNL     1     -16.860  17.179  -8.640  1.00  0.00     0.273 C 
HETATM   25  C18 UNL     1     -16.519  18.594  -8.405  1.00  0.00     0.030 C 
HETATM   26  C19 UNL     1     -16.167  19.315  -9.680  1.00  0.00     0.003 C 
HETATM   27  C20 UNL     1     -16.759  18.486 -10.838  1.00  0.00     0.030 C 
HETATM   28  C21 UNL     1     -18.111  18.037 -10.474  1.00  0.00     0.273 C 
ENDBRANCH  21  23
ENDBRANCH  14  15
ENDBRANCH   9  14
ENDBRANCH   8   9
BRANCH   1  29
HETATM   29  C5  UNL     1     -16.156  20.303  -4.312  1.00  0.00     0.160 C 
BRANCH  29  30
HETATM   30  C4  UNL     1     -16.352  21.661  -3.701  1.00  0.00     0.026 C 
BRANCH  30  31
HETATM   31  C2  UNL     1     -17.437  22.565  -4.066  1.00  0.00     0.003 C 
HETATM   32  C1  UNL     1     -17.486  22.798  -5.571  1.00  0.00     0.013 C 
HETATM   33  C3  UNL     1     -18.770  22.045  -3.617  1.00  0.00     0.013 C 
ENDBRANCH  30  31
ENDBRANCH  29  30
BRANCH  29  34
HETATM   34  C24 UNL     1     -14.762  20.128  -4.791  1.00  0.00     0.180 C 
BRANCH  34  35
HETATM   35  O3  UNL     1     -14.197  18.952  -4.713  1.00  0.00    -0.344 OA
ATOM     36  H3  UNL     1     -14.073  18.439  -5.504  1.00  0.00     0.219 HD
ENDBRANCH  34  35
BRANCH  34  37
HETATM   37  N6  UNL     1     -13.960  21.127  -5.338  1.00  0.00    -0.344 N 
HETATM   38  C25 UNL     1     -12.833  21.834  -4.822  1.00  0.00     0.135 C 
HETATM   39  C26 UNL     1     -13.201  23.303  -5.219  1.00  0.00    -0.029 C 
HETATM   40  C27 UNL     1     -11.954  24.066  -5.394  1.00  0.00     0.016 C 
HETATM   41  C28 UNL     1     -14.072  23.852  -4.139  1.00  0.00     0.016 C 
HETATM   42  C29 UNL     1     -13.949  23.080  -6.527  1.00  0.00     0.046 C 
HETATM   43  C30 UNL     1     -14.110  21.591  -6.739  1.00  0.00     0.188 C 
BRANCH  43  44
HETATM   44  C31 UNL     1     -12.955  21.111  -7.549  1.00  0.00     0.196 C 
HETATM   45  O4  UNL     1     -12.251  21.822  -8.262  1.00  0.00    -0.646 OA
HETATM   46  O5  UNL     1     -12.703  19.730  -7.464  1.00  0.00    -0.646 OA
ENDBRANCH  43  44
ENDBRANCH  34  37
ENDBRANCH  29  34
ENDBRANCH   1  29
TORSDOF 12
ENDMDL
MODEL 5
REMARK VINA RESULT: -9.507553228      1.766      4.885
REMARK  12 active torsions:
REMARK  status: ('A' for Active; 'I' for Inactive)
REMARK    1  A    between atoms: C2_2  and  C4_4 
REMARK    2  A    between atoms: C4_4  and  C5_5 
REMARK    3  A    between atoms: C5_5  and  N1_6 
REMARK    4  A    between atoms: C5_5  and  C24_34 
REMARK       I    between atoms: N1_6  and  C6_7 
REMARK       I    between atoms: C6_7  and  N2_9 
REMARK    5  A    between atoms: C10_13  and  C11_14 
REMARK    6  A    between atoms: C11_14  and  N3_15 
REMARK    7  A    between atoms: C11_14  and  C12_19 
REMARK    8  A    between atoms: C12_19  and  C13_20 
REMARK       I    between atoms: C13_20  and  N4_22 
REMARK    9  A    between atoms: C16_25  and  N5_26 
REMARK   10  A    between atoms: C24_34  and  O3_35 
REMARK   11  A    between atoms: C24_34  and  N6_37 
REMARK   12  A    between atoms: C30_43  and  C31_44 
ROOT
HETATM    1  N1  UNL     1     -16.990  19.447  -5.493  1.00  0.00    -0.348 NA
HETATM    2  C6  UNL     1     -17.970  18.523  -5.328  1.00  0.00     0.397 C 
HETATM    3  O1  UNL     1     -18.566  17.905  -6.252  1.00  0.00    -0.230 OA
HETATM    4  N2  UNL     1     -18.423  18.234  -3.995  1.00  0.00    -0.315 N 
HETATM    5  C7  UNL     1     -17.667  18.311  -2.739  1.00  0.00     0.129 C 
HETATM    6  C8  UNL     1     -18.386  19.413  -2.009  1.00  0.00     0.022 C 
HETATM    7  C9  UNL     1     -19.824  19.118  -2.394  1.00  0.00     0.029 C 
HETATM    8  C10 UNL     1     -19.790  18.161  -3.521  1.00  0.00     0.120 C 
ENDROOT
BRANCH   8   9
HETATM    9  C11 UNL     1     -20.819  18.400  -4.603  1.00  0.00     0.215 C 
BRANCH   9  10
HETATM   10  N3  UNL     1     -21.816  19.328  -3.954  1.00  0.00    -0.073 N 
ATOM     11  H33 UNL     1     -22.712  19.387  -4.437  1.00  0.00     0.274 HD
ATOM     12  H32 UNL     1     -22.192  18.989  -3.068  1.00  0.00     0.274 HD
ATOM     13  H31 UNL     1     -21.316  20.215  -3.886  1.00  0.00     0.274 HD
ENDBRANCH   9  10
BRANCH   9  14
HETATM   14  C12 UNL     1     -21.686  17.138  -4.686  1.00  0.00     0.137 C 
BRANCH  14  15
HETATM   15  C13 UNL     1     -21.053  16.105  -5.510  1.00  0.00     0.221 C 
HETATM   16  O2  UNL     1     -20.358  15.185  -5.078  1.00  0.00    -0.273 OA
HETATM   17  N4  UNL     1     -21.289  16.156  -6.969  1.00  0.00    -0.352 N 
HETATM   18  C14 UNL     1     -21.772  17.292  -7.640  1.00  0.00     0.128 C 
HETATM   19  C23 UNL     1     -21.182  14.888  -7.716  1.00  0.00     0.128 C 
HETATM   20  C15 UNL     1     -20.592  17.767  -8.586  1.00  0.00     0.055 C 
HETATM   21  C16 UNL     1     -19.802  16.525  -8.867  1.00  0.00     0.226 C 
HETATM   22  C22 UNL     1     -20.627  15.375  -9.067  1.00  0.00     0.055 C 
BRANCH  21  23
HETATM   23  N5  UNL     1     -18.717  16.657  -9.744  1.00  0.00     0.093 N 
HETATM   24  C17 UNL     1     -17.422  16.401  -9.191  1.00  0.00     0.273 C 
HETATM   25  C18 UNL     1     -16.661  17.567  -8.704  1.00  0.00     0.030 C 
HETATM   26  C19 UNL     1     -16.375  18.558  -9.802  1.00  0.00     0.003 C 
HETATM   27  C20 UNL     1     -17.387  18.276 -10.932  1.00  0.00     0.030 C 
HETATM   28  C21 UNL     1     -18.714  18.032 -10.347  1.00  0.00     0.273 C 
ENDBRANCH  21  23
ENDBRANCH  14  15
ENDBRANCH   9  14
ENDBRANCH   8   9
BRANCH   1  29
HETATM   29  C5  UNL     1     -16.016  20.363  -5.676  1.00  0.00     0.160 C 
BRANCH  29  30
HETATM   30  C4  UNL     1     -15.685  20.993  -6.999  1.00  0.00     0.026 C 
BRANCH  30  31
HETATM   31  C2  UNL     1     -14.325  21.250  -7.459  1.00  0.00     0.003 C 
HETATM   32  C1  UNL     1     -13.605  19.956  -7.820  1.00  0.00     0.013 C 
HETATM   33  C3  UNL     1     -14.302  22.160  -8.650  1.00  0.00     0.013 C 
ENDBRANCH  30  31
ENDBRANCH  29  30
BRANCH  29  34
HETATM   34  C24 UNL     1     -15.071  20.806  -4.621  1.00  0.00     0.180 C 
BRANCH  34  35
HETATM   35  O3  UNL     1     -14.232  19.947  -4.105  1.00  0.00    -0.344 OA
ATOM     36  H3  UNL     1     -13.836  20.128  -3.261  1.00  0.00     0.219 HD
ENDBRANCH  34  35
BRANCH  34  37
HETATM   37  N6  UNL     1     -14.980  22.096  -4.102  1.00  0.00    -0.344 N 
HETATM   38  C25 UNL     1     -14.886  23.373  -4.733  1.00  0.00     0.135 C 
HETATM   39  C26 UNL     1     -13.740  24.032  -3.894  1.00  0.00    -0.029 C 
HETATM   40  C27 UNL     1     -13.931  25.492  -3.908  1.00  0.00     0.016 C 
HETATM   41  C28 UNL     1     -12.444  23.609  -4.500  1.00  0.00     0.016 C 
HETATM   42  C29 UNL     1     -13.982  23.415  -2.523  1.00  0.00     0.046 C 
HETATM   43  C30 UNL     1     -15.078  22.380  -2.650  1.00  0.00     0.188 C 
BRANCH  43  44
HETATM   44  C31 UNL     1     -16.379  23.045  -2.358  1.00  0.00     0.196 C 
HETATM   45  O4  UNL     1     -17.462  22.711  -2.831  1.00  0.00    -0.646 OA
HETATM   46  O5  UNL     1     -16.302  24.138  -1.477  1.00  0.00    -0.646 OA
ENDBRANCH  43  44
ENDBRANCH  34  37
ENDBRANCH  29  34
ENDBRANCH   1  29
TORSDOF 12
ENDMDL
