MODEL 1
REMARK VINA RESULT: -9.600721472      0.000      0.000
REMARK  14 active torsions:
REMARK  status: ('A' for Active; 'I' for Inactive)
REMARK    1  A    between atoms: C2_2  and  C3_3 
REMARK    2  A    between atoms: C3_3  and  C4_4 
REMARK    3  A    between atoms: C4_4  and  C5_5 
REMARK    4  A    between atoms: C5_5  and  O1_6 
REMARK    5  A    between atoms: C5_5  and  N1_8 
REMARK    6  A    between atoms: C8_11  and  C9_12 
REMARK    7  A    between atoms: C15_21  and  C16_22 
REMARK    8  A    between atoms: C16_22  and  N4_23 
REMARK       I    between atoms: N4_23  and  C17_24 
REMARK    9  A    between atoms: C17_24  and  C18_26 
REMARK   10  A    between atoms: C21_29  and  O4_30 
REMARK   11  A    between atoms: C23_33  and  C24_34 
REMARK   12  A    between atoms: C25_38  and  C26_39 
REMARK   13  A    between atoms: C26_39  and  C27_40 
REMARK   14  A    between atoms: C27_40  and  C29_42 
ROOT
HETATM    1  C9  UNL     1     -18.902  19.018  -6.963  1.00  0.00     0.237 C 
HETATM    2  N2  UNL     1     -19.090  18.570  -8.321  1.00  0.00    -0.310 N 
HETATM    3  C10 UNL     1     -20.100  18.762  -9.325  1.00  0.00     0.157 C 
HETATM    4  C11 UNL     1     -17.853  17.825  -8.525  1.00  0.00     0.340 C 
HETATM    5  O2  UNL     1     -17.734  16.760  -9.167  1.00  0.00    -0.245 OA
HETATM    6  N3  UNL     1     -16.838  18.549  -7.857  1.00  0.00    -0.242 N 
HETATM    7  C12 UNL     1     -15.405  18.723  -7.862  1.00  0.00     0.154 C 
HETATM    8  C13 UNL     1     -15.183  20.120  -8.475  1.00  0.00     0.024 C 
HETATM    9  C14 UNL     1     -16.498  20.914  -8.356  1.00  0.00     0.031 C 
HETATM   10  C15 UNL     1     -17.014  20.649  -6.962  1.00  0.00     0.136 C 
HETATM   11  N5  UNL     1     -17.542  19.381  -6.930  1.00  0.00    -0.287 N 
ENDROOT
BRANCH   1  12
HETATM   12  C8  UNL     1     -19.059  17.975  -5.897  1.00  0.00    -0.027 C 
HETATM   13  C7  UNL     1     -18.605  18.606  -4.591  1.00  0.00     0.058 C 
HETATM   14  C6  UNL     1     -19.758  19.077  -3.717  1.00  0.00     0.130 C 
HETATM   15  N1  UNL     1     -20.423  17.873  -3.323  1.00  0.00    -0.358 N 
HETATM   16  C31 UNL     1     -20.363  16.769  -4.219  1.00  0.00     0.163 C 
HETATM   17  C25 UNL     1     -20.204  17.124  -5.720  1.00  0.00    -0.037 C 
BRANCH  15  18
HETATM   18  C5  UNL     1     -21.163  17.758  -2.139  1.00  0.00     0.137 C 
BRANCH  18  19
HETATM   19  C4  UNL     1     -22.341  18.374  -1.667  1.00  0.00     0.052 C 
BRANCH  19  20
HETATM   20  C3  UNL     1     -23.529  18.367  -2.197  1.00  0.00    -0.023 C 
BRANCH  20  21
HETATM   21  C2  UNL     1     -23.780  18.725  -3.644  1.00  0.00     0.023 C 
HETATM   22  C1  UNL     1     -24.510  17.648  -4.385  1.00  0.00     0.009 C 
ENDBRANCH  20  21
ENDBRANCH  19  20
ENDBRANCH  18  19
BRANCH  18  23
HETATM   23  O1  UNL     1     -20.624  16.882  -1.305  1.00  0.00    -0.346 OA
ATOM     24  H1  UNL     1     -20.442  16.031  -1.686  1.00  0.00     0.219 HD
ENDBRANCH  18  23
ENDBRANCH  15  18
BRANCH  17  25
HETATM   25  C26 UNL     1     -21.463  17.162  -6.459  1.00  0.00    -0.013 C 
BRANCH  25  26
HETATM   26  C27 UNL     1     -21.980  16.215  -7.421  1.00  0.00     0.004 C 
HETATM   27  C28 UNL     1     -23.232  15.456  -7.143  1.00  0.00     0.014 C 
BRANCH  26  28
HETATM   28  C29 UNL     1     -20.906  15.233  -7.852  1.00  0.00     0.003 C 
HETATM   29  C30 UNL     1     -20.626  15.166  -9.308  1.00  0.00     0.006 C 
ENDBRANCH  26  28
ENDBRANCH  25  26
ENDBRANCH  17  25
ENDBRANCH   1  12
BRANCH  10  30
HETATM   30  C16 UNL     1     -17.710  21.851  -6.390  1.00  0.00     0.248 C 
BRANCH  30  31
HETATM   31  N4  UNL     1     -16.883  22.463  -5.416  1.00  0.00    -0.413 NA
HETATM   32  C17 UNL     1     -16.147  23.026  -4.444  1.00  0.00     0.291 C 
HETATM   33  O3  UNL     1     -16.432  23.094  -3.224  1.00  0.00    -0.257 OA
BRANCH  32  34
HETATM   34  C18 UNL     1     -14.802  23.685  -4.739  1.00  0.00     0.107 C 
HETATM   35  C19 UNL     1     -14.757  24.971  -3.951  1.00  0.00     0.019 C 
HETATM   36  C20 UNL     1     -13.446  25.134  -3.203  1.00  0.00     0.032 C 
HETATM   37  C21 UNL     1     -12.257  24.939  -4.103  1.00  0.00     0.119 C 
HETATM   38  C22 UNL     1     -12.374  23.612  -4.783  1.00  0.00     0.048 C 
HETATM   39  C23 UNL     1     -13.636  22.858  -4.376  1.00  0.00     0.103 C 
BRANCH  37  40
HETATM   40  O4  UNL     1     -12.150  25.997  -4.983  1.00  0.00    -0.396 OA
ATOM     41  H4  UNL     1     -11.253  26.079  -5.288  1.00  0.00     0.210 HD
ENDBRANCH  37  40
BRANCH  39  42
HETATM   42  C24 UNL     1     -13.558  21.519  -4.985  1.00  0.00     0.177 C 
HETATM   43  O5  UNL     1     -13.166  21.339  -6.175  1.00  0.00    -0.648 OA
HETATM   44  O6  UNL     1     -13.923  20.416  -4.252  1.00  0.00    -0.648 OA
ENDBRANCH  39  42
ENDBRANCH  32  34
ENDBRANCH  30  31
ENDBRANCH  10  30
TORSDOF 14
ENDMDL
MODEL 2
REMARK VINA RESULT: -9.384473025      2.855     10.083
REMARK  14 active torsions:
REMARK  status: ('A' for Active; 'I' for Inactive)
REMARK    1  A    between atoms: C2_2  and  C3_3 
REMARK    2  A    between atoms: C3_3  and  C4_4 
REMARK    3  A    between atoms: C4_4  and  C5_5 
REMARK    4  A    between atoms: C5_5  and  O1_6 
REMARK    5  A    between atoms: C5_5  and  N1_8 
REMARK    6  A    between atoms: C8_11  and  C9_12 
REMARK    7  A    between atoms: C15_21  and  C16_22 
REMARK    8  A    between atoms: C16_22  and  N4_23 
REMARK       I    between atoms: N4_23  and  C17_24 
REMARK    9  A    between atoms: C17_24  and  C18_26 
REMARK   10  A    between atoms: C21_29  and  O4_30 
REMARK   11  A    between atoms: C23_33  and  C24_34 
REMARK   12  A    between atoms: C25_38  and  C26_39 
REMARK   13  A    between atoms: C26_39  and  C27_40 
REMARK   14  A    between atoms: C27_40  and  C29_42 
ROOT
HETATM    1  C9  UNL     1     -15.850  22.055  -5.699  1.00  0.00     0.237 C 
HETATM    2  N2  UNL     1     -15.885  22.703  -4.411  1.00  0.00    -0.310 N 
HETATM    3  C10 UNL     1     -16.100  24.048  -3.953  1.00  0.00     0.157 C 
HETATM    4  C11 UNL     1     -15.686  21.554  -3.535  1.00  0.00     0.340 C 
HETATM    5  O2  UNL     1     -15.015  21.541  -2.480  1.00  0.00    -0.245 OA
HETATM    6  N3  UNL     1     -16.398  20.481  -4.118  1.00  0.00    -0.242 N 
HETATM    7  C12 UNL     1     -16.998  19.217  -3.764  1.00  0.00     0.154 C 
HETATM    8  C13 UNL     1     -18.516  19.478  -3.808  1.00  0.00     0.024 C 
HETATM    9  C14 UNL     1     -18.765  20.739  -4.657  1.00  0.00     0.031 C 
HETATM   10  C15 UNL     1     -17.872  20.603  -5.867  1.00  0.00     0.136 C 
HETATM   11  N5  UNL     1     -16.580  20.871  -5.482  1.00  0.00    -0.287 N 
ENDROOT
BRANCH   1  12
HETATM   12  C8  UNL     1     -14.501  21.607  -6.177  1.00  0.00    -0.027 C 
HETATM   13  C7  UNL     1     -14.645  21.263  -7.649  1.00  0.00     0.058 C 
HETATM   14  C6  UNL     1     -14.146  22.362  -8.575  1.00  0.00     0.130 C 
HETATM   15  N1  UNL     1     -12.735  22.405  -8.352  1.00  0.00    -0.358 N 
HETATM   16  C31 UNL     1     -12.264  22.031  -7.062  1.00  0.00     0.163 C 
HETATM   17  C25 UNL     1     -13.252  22.260  -5.890  1.00  0.00    -0.037 C 
BRANCH  15  18
HETATM   18  C5  UNL     1     -11.818  22.845  -9.317  1.00  0.00     0.137 C 
BRANCH  18  19
HETATM   19  C4  UNL     1     -11.852  23.859 -10.297  1.00  0.00     0.052 C 
BRANCH  19  20
HETATM   20  C3  UNL     1     -11.855  25.149 -10.130  1.00  0.00    -0.023 C 
BRANCH  20  21
HETATM   21  C2  UNL     1     -11.955  26.121 -11.283  1.00  0.00     0.023 C 
HETATM   22  C1  UNL     1     -13.246  26.877 -11.288  1.00  0.00     0.009 C 
ENDBRANCH  20  21
ENDBRANCH  19  20
ENDBRANCH  18  19
BRANCH  18  23
HETATM   23  O1  UNL     1     -10.693  22.147  -9.283  1.00  0.00    -0.346 OA
ATOM     24  H1  UNL     1     -10.802  21.213  -9.422  1.00  0.00     0.219 HD
ENDBRANCH  18  23
ENDBRANCH  15  18
BRANCH  17  25
HETATM   25  C26 UNL     1     -13.049  23.518  -5.178  1.00  0.00    -0.013 C 
BRANCH  25  26
HETATM   26  C27 UNL     1     -12.107  23.823  -4.124  1.00  0.00     0.004 C 
HETATM   27  C28 UNL     1     -12.570  24.420  -2.840  1.00  0.00     0.014 C 
BRANCH  26  28
HETATM   28  C29 UNL     1     -10.947  24.648  -4.651  1.00  0.00     0.003 C 
HETATM   29  C30 UNL     1     -10.473  25.747  -3.773  1.00  0.00     0.006 C 
ENDBRANCH  26  28
ENDBRANCH  25  26
ENDBRANCH  17  25
ENDBRANCH   1  12
BRANCH  10  30
HETATM   30  C16 UNL     1     -18.509  21.185  -7.095  1.00  0.00     0.248 C 
BRANCH  30  31
HETATM   31  N4  UNL     1     -19.225  20.177  -7.786  1.00  0.00    -0.413 NA
HETATM   32  C17 UNL     1     -19.938  19.271  -8.475  1.00  0.00     0.291 C 
HETATM   33  O3  UNL     1     -20.811  19.500  -9.346  1.00  0.00    -0.257 OA
BRANCH  32  34
HETATM   34  C18 UNL     1     -19.749  17.771  -8.257  1.00  0.00     0.107 C 
HETATM   35  C19 UNL     1     -21.126  17.164  -8.145  1.00  0.00     0.019 C 
HETATM   36  C20 UNL     1     -21.272  15.920  -9.003  1.00  0.00     0.032 C 
HETATM   37  C21 UNL     1     -20.159  14.937  -8.762  1.00  0.00     0.119 C 
HETATM   38  C22 UNL     1     -18.847  15.627  -8.961  1.00  0.00     0.048 C 
HETATM   39  C23 UNL     1     -19.013  17.095  -9.342  1.00  0.00     0.103 C 
BRANCH  37  40
HETATM   40  O4  UNL     1     -20.293  14.367  -7.512  1.00  0.00    -0.396 OA
ATOM     41  H4  UNL     1     -19.437  14.224  -7.125  1.00  0.00     0.210 HD
ENDBRANCH  37  40
BRANCH  39  42
HETATM   42  C24 UNL     1     -17.673  17.617  -9.659  1.00  0.00     0.177 C 
HETATM   43  O5  UNL     1     -17.368  18.040 -10.812  1.00  0.00    -0.648 OA
HETATM   44  O6  UNL     1     -16.707  17.649  -8.682  1.00  0.00    -0.648 OA
ENDBRANCH  39  42
ENDBRANCH  32  34
ENDBRANCH  30  31
ENDBRANCH  10  30
TORSDOF 14
ENDMDL
MODEL 3
REMARK VINA RESULT: -8.516575848      1.049      1.778
REMARK  14 active torsions:
REMARK  status: ('A' for Active; 'I' for Inactive)
REMARK    1  A    between atoms: C2_2  and  C3_3 
REMARK    2  A    between atoms: C3_3  and  C4_4 
REMARK    3  A    between atoms: C4_4  and  C5_5 
REMARK    4  A    between atoms: C5_5  and  O1_6 
REMARK    5  A    between atoms: C5_5  and  N1_8 
REMARK    6  A    between atoms: C8_11  and  C9_12 
REMARK    7  A    between atoms: C15_21  and  C16_22 
REMARK    8  A    between atoms: C16_22  and  N4_23 
REMARK       I    between atoms: N4_23  and  C17_24 
REMARK    9  A    between atoms: C17_24  and  C18_26 
REMARK   10  A    between atoms: C21_29  and  O4_30 
REMARK   11  A    between atoms: C23_33  and  C24_34 
REMARK   12  A    between atoms: C25_38  and  C26_39 
REMARK   13  A    between atoms: C26_39  and  C27_40 
REMARK   14  A    between atoms: C27_40  and  C29_42 
ROOT
HETATM    1  C9  UNL     1     -18.754  19.114  -6.798  1.00  0.00     0.237 C 
HETATM    2  N2  UNL     1     -19.200  18.877  -8.150  1.00  0.00    -0.310 N 
HETATM    3  C10 UNL     1     -20.264  19.382  -8.973  1.00  0.00     0.157 C 
HETATM    4  C11 UNL     1     -18.182  17.934  -8.600  1.00  0.00     0.340 C 
HETATM    5  O2  UNL     1     -18.371  16.951  -9.347  1.00  0.00    -0.245 OA
HETATM    6  N3  UNL     1     -16.963  18.360  -8.024  1.00  0.00    -0.242 N 
HETATM    7  C12 UNL     1     -15.537  18.250  -8.222  1.00  0.00     0.154 C 
HETATM    8  C13 UNL     1     -15.105  19.639  -8.731  1.00  0.00     0.024 C 
HETATM    9  C14 UNL     1     -16.198  20.655  -8.349  1.00  0.00     0.031 C 
HETATM   10  C15 UNL     1     -16.580  20.332  -6.925  1.00  0.00     0.136 C 
HETATM   11  N5  UNL     1     -17.355  19.197  -6.932  1.00  0.00    -0.287 N 
ENDROOT
BRANCH   1  12
HETATM   12  C8  UNL     1     -18.993  18.002  -5.821  1.00  0.00    -0.027 C 
HETATM   13  C7  UNL     1     -18.456  18.471  -4.479  1.00  0.00     0.058 C 
HETATM   14  C6  UNL     1     -19.543  18.972  -3.539  1.00  0.00     0.130 C 
HETATM   15  N1  UNL     1     -20.314  17.808  -3.231  1.00  0.00    -0.358 N 
HETATM   16  C31 UNL     1     -20.378  16.785  -4.218  1.00  0.00     0.163 C 
HETATM   17  C25 UNL     1     -20.212  17.252  -5.687  1.00  0.00    -0.037 C 
BRANCH  15  18
HETATM   18  C5  UNL     1     -21.041  17.661  -2.042  1.00  0.00     0.137 C 
BRANCH  18  19
HETATM   19  C4  UNL     1     -22.189  18.295  -1.521  1.00  0.00     0.052 C 
BRANCH  19  20
HETATM   20  C3  UNL     1     -23.390  18.338  -2.022  1.00  0.00    -0.023 C 
BRANCH  20  21
HETATM   21  C2  UNL     1     -23.661  18.705  -3.463  1.00  0.00     0.023 C 
HETATM   22  C1  UNL     1     -24.805  17.937  -4.047  1.00  0.00     0.009 C 
ENDBRANCH  20  21
ENDBRANCH  19  20
ENDBRANCH  18  19
BRANCH  18  23
HETATM   23  O1  UNL     1     -20.523  16.728  -1.259  1.00  0.00    -0.346 OA
ATOM     24  H1  UNL     1     -19.574  16.670  -1.285  1.00  0.00     0.219 HD
ENDBRANCH  18  23
ENDBRANCH  15  18
BRANCH  17  25
HETATM   25  C26 UNL     1     -21.474  17.475  -6.387  1.00  0.00    -0.013 C 
BRANCH  25  26
HETATM   26  C27 UNL     1     -22.106  16.660  -7.401  1.00  0.00     0.004 C 
HETATM   27  C28 UNL     1     -23.548  16.299  -7.296  1.00  0.00     0.014 C 
BRANCH  26  28
HETATM   28  C29 UNL     1     -21.309  15.394  -7.659  1.00  0.00     0.003 C 
HETATM   29  C30 UNL     1     -20.890  15.159  -9.063  1.00  0.00     0.006 C 
ENDBRANCH  26  28
ENDBRANCH  25  26
ENDBRANCH  17  25
ENDBRANCH   1  12
BRANCH  10  30
HETATM   30  C16 UNL     1     -16.931  21.570  -6.149  1.00  0.00     0.248 C 
BRANCH  30  31
HETATM   31  N4  UNL     1     -15.994  21.760  -5.104  1.00  0.00    -0.413 NA
HETATM   32  C17 UNL     1     -15.154  21.919  -4.069  1.00  0.00     0.291 C 
HETATM   33  O3  UNL     1     -15.396  21.693  -2.858  1.00  0.00    -0.257 OA
BRANCH  32  34
HETATM   34  C18 UNL     1     -13.726  22.423  -4.266  1.00  0.00     0.107 C 
HETATM   35  C19 UNL     1     -13.219  21.820  -5.554  1.00  0.00     0.019 C 
HETATM   36  C20 UNL     1     -12.551  22.854  -6.442  1.00  0.00     0.032 C 
HETATM   37  C21 UNL     1     -11.511  23.647  -5.698  1.00  0.00     0.119 C 
HETATM   38  C22 UNL     1     -12.136  24.247  -4.479  1.00  0.00     0.048 C 
HETATM   39  C23 UNL     1     -13.613  23.891  -4.346  1.00  0.00     0.103 C 
BRANCH  37  40
HETATM   40  O4  UNL     1     -10.420  22.849  -5.416  1.00  0.00    -0.396 OA
ATOM     41  H4  UNL     1      -9.870  22.764  -6.187  1.00  0.00     0.210 HD
ENDBRANCH  37  40
BRANCH  39  42
HETATM   42  C24 UNL     1     -14.145  24.659  -3.208  1.00  0.00     0.177 C 
HETATM   43  O5  UNL     1     -15.350  25.043  -3.156  1.00  0.00    -0.648 OA
HETATM   44  O6  UNL     1     -13.319  24.981  -2.159  1.00  0.00    -0.648 OA
ENDBRANCH  39  42
ENDBRANCH  32  34
ENDBRANCH  30  31
ENDBRANCH  10  30
TORSDOF 14
ENDMDL
MODEL 4
REMARK VINA RESULT: -8.496238157      1.140      1.997
REMARK  14 active torsions:
REMARK  status: ('A' for Active; 'I' for Inactive)
REMARK    1  A    between atoms: C2_2  and  C3_3 
REMARK    2  A    between atoms: C3_3  and  C4_4 
REMARK    3  A    between atoms: C4_4  and  C5_5 
REMARK    4  A    between atoms: C5_5  and  O1_6 
REMARK    5  A    between atoms: C5_5  and  N1_8 
REMARK    6  A    between atoms: C8_11  and  C9_12 
REMARK    7  A    between atoms: C15_21  and  C16_22 
REMARK    8  A    between atoms: C16_22  and  N4_23 
REMARK       I    between atoms: N4_23  and  C17_24 
REMARK    9  A    between atoms: C17_24  and  C18_26 
REMARK   10  A    between atoms: C21_29  and  O4_30 
REMARK   11  A    between atoms: C23_33  and  C24_34 
REMARK   12  A    between atoms: C25_38  and  C26_39 
REMARK   13  A    between atoms: C26_39  and  C27_40 
REMARK   14  A    between atoms: C27_40  and  C29_42 
ROOT
HETATM    1  C9  UNL     1     -18.793  19.036  -6.718  1.00  0.00     0.237 C 
HETATM    2  N2  UNL     1     -19.277  18.776  -8.052  1.00  0.00    -0.310 N 
HETATM    3  C10 UNL     1     -20.360  19.272  -8.856  1.00  0.00     0.157 C 
HETATM    4  C11 UNL     1     -18.279  17.817  -8.511  1.00  0.00     0.340 C 
HETATM    5  O2  UNL     1     -18.494  16.821  -9.233  1.00  0.00    -0.245 OA
HETATM    6  N3  UNL     1     -17.041  18.246  -7.978  1.00  0.00    -0.242 N 
HETATM    7  C12 UNL     1     -15.622  18.122  -8.213  1.00  0.00     0.154 C 
HETATM    8  C13 UNL     1     -15.194  19.498  -8.761  1.00  0.00     0.024 C 
HETATM    9  C14 UNL     1     -16.270  20.529  -8.370  1.00  0.00     0.031 C 
HETATM   10  C15 UNL     1     -16.615  20.237  -6.929  1.00  0.00     0.136 C 
HETATM   11  N5  UNL     1     -17.397  19.107  -6.892  1.00  0.00    -0.287 N 
ENDROOT
BRANCH   1  12
HETATM   12  C8  UNL     1     -19.011  17.946  -5.712  1.00  0.00    -0.027 C 
HETATM   13  C7  UNL     1     -18.479  18.457  -4.384  1.00  0.00     0.058 C 
HETATM   14  C6  UNL     1     -19.571  18.964  -3.454  1.00  0.00     0.130 C 
HETATM   15  N1  UNL     1     -20.324  17.796  -3.115  1.00  0.00    -0.358 N 
HETATM   16  C31 UNL     1     -20.373  16.748  -4.076  1.00  0.00     0.163 C 
HETATM   17  C25 UNL     1     -20.218  17.181  -5.557  1.00  0.00    -0.037 C 
BRANCH  15  18
HETATM   18  C5  UNL     1     -21.045  17.668  -1.921  1.00  0.00     0.137 C 
BRANCH  18  19
HETATM   19  C4  UNL     1     -22.164  18.341  -1.385  1.00  0.00     0.052 C 
BRANCH  19  20
HETATM   20  C3  UNL     1     -23.368  18.427  -1.872  1.00  0.00    -0.023 C 
BRANCH  20  21
HETATM   21  C2  UNL     1     -23.640  18.708  -3.332  1.00  0.00     0.023 C 
HETATM   22  C1  UNL     1     -24.493  17.657  -3.970  1.00  0.00     0.009 C 
ENDBRANCH  20  21
ENDBRANCH  19  20
ENDBRANCH  18  19
BRANCH  18  23
HETATM   23  O1  UNL     1     -20.555  16.710  -1.149  1.00  0.00    -0.346 OA
ATOM     24  H1  UNL     1     -19.757  16.308  -1.474  1.00  0.00     0.219 HD
ENDBRANCH  18  23
ENDBRANCH  15  18
BRANCH  17  25
HETATM   25  C26 UNL     1     -21.486  17.365  -6.259  1.00  0.00    -0.013 C 
BRANCH  25  26
HETATM   26  C27 UNL     1     -22.248  16.404  -7.024  1.00  0.00     0.004 C 
HETATM   27  C28 UNL     1     -21.650  15.736  -8.214  1.00  0.00     0.014 C 
BRANCH  26  28
HETATM   28  C29 UNL     1     -23.601  16.968  -7.416  1.00  0.00     0.003 C 
HETATM   29  C30 UNL     1     -24.739  16.016  -7.392  1.00  0.00     0.006 C 
ENDBRANCH  26  28
ENDBRANCH  25  26
ENDBRANCH  17  25
ENDBRANCH   1  12
BRANCH  10  30
HETATM   30  C16 UNL     1     -16.936  21.492  -6.169  1.00  0.00     0.248 C 
BRANCH  30  31
HETATM   31  N4  UNL     1     -15.997  21.671  -5.124  1.00  0.00    -0.413 NA
HETATM   32  C17 UNL     1     -15.155  21.818  -4.088  1.00  0.00     0.291 C 
HETATM   33  O3  UNL     1     -15.395  21.580  -2.880  1.00  0.00    -0.257 OA
BRANCH  32  34
HETATM   34  C18 UNL     1     -13.728  22.324  -4.283  1.00  0.00     0.107 C 
HETATM   35  C19 UNL     1     -13.266  21.833  -5.634  1.00  0.00     0.019 C 
HETATM   36  C20 UNL     1     -12.610  22.936  -6.446  1.00  0.00     0.032 C 
HETATM   37  C21 UNL     1     -11.539  23.648  -5.666  1.00  0.00     0.119 C 
HETATM   38  C22 UNL     1     -12.121  24.144  -4.380  1.00  0.00     0.048 C 
HETATM   39  C23 UNL     1     -13.599  23.792  -4.235  1.00  0.00     0.103 C 
BRANCH  37  40
HETATM   40  O4  UNL     1     -10.451  22.818  -5.490  1.00  0.00    -0.396 OA
ATOM     41  H4  UNL     1     -10.515  22.068  -6.069  1.00  0.00     0.210 HD
ENDBRANCH  37  40
BRANCH  39  42
HETATM   42  C24 UNL     1     -14.088  24.460  -3.018  1.00  0.00     0.177 C 
HETATM   43  O5  UNL     1     -13.382  24.560  -1.971  1.00  0.00    -0.648 OA
HETATM   44  O6  UNL     1     -15.352  24.997  -2.997  1.00  0.00    -0.648 OA
ENDBRANCH  39  42
ENDBRANCH  32  34
ENDBRANCH  30  31
ENDBRANCH  10  30
TORSDOF 14
ENDMDL
MODEL 5
REMARK VINA RESULT: -8.414383912      3.122     10.032
REMARK  14 active torsions:
REMARK  status: ('A' for Active; 'I' for Inactive)
REMARK    1  A    between atoms: C2_2  and  C3_3 
REMARK    2  A    between atoms: C3_3  and  C4_4 
REMARK    3  A    between atoms: C4_4  and  C5_5 
REMARK    4  A    between atoms: C5_5  and  O1_6 
REMARK    5  A    between atoms: C5_5  and  N1_8 
REMARK    6  A    between atoms: C8_11  and  C9_12 
REMARK    7  A    between atoms: C15_21  and  C16_22 
REMARK    8  A    between atoms: C16_22  and  N4_23 
REMARK       I    between atoms: N4_23  and  C17_24 
REMARK    9  A    between atoms: C17_24  and  C18_26 
REMARK   10  A    between atoms: C21_29  and  O4_30 
REMARK   11  A    between atoms: C23_33  and  C24_34 
REMARK   12  A    between atoms: C25_38  and  C26_39 
REMARK   13  A    between atoms: C26_39  and  C27_40 
REMARK   14  A    between atoms: C27_40  and  C29_42 
ROOT
HETATM    1  C9  UNL     1     -15.149  23.005  -4.843  1.00  0.00     0.237 C 
HETATM    2  N2  UNL     1     -15.237  23.774  -3.625  1.00  0.00    -0.310 N 
HETATM    3  C10 UNL     1     -15.418  25.165  -3.311  1.00  0.00     0.157 C 
HETATM    4  C11 UNL     1     -15.149  22.708  -2.635  1.00  0.00     0.340 C 
HETATM    5  O2  UNL     1     -14.550  22.769  -1.540  1.00  0.00    -0.245 OA
HETATM    6  N3  UNL     1     -15.872  21.613  -3.163  1.00  0.00    -0.242 N 
HETATM    7  C12 UNL     1     -16.552  20.414  -2.735  1.00  0.00     0.154 C 
HETATM    8  C13 UNL     1     -18.051  20.732  -2.908  1.00  0.00     0.024 C 
HETATM    9  C14 UNL     1     -18.184  21.914  -3.886  1.00  0.00     0.031 C 
HETATM   10  C15 UNL     1     -17.222  21.626  -5.013  1.00  0.00     0.136 C 
HETATM   11  N5  UNL     1     -15.946  21.877  -4.567  1.00  0.00    -0.287 N 
ENDROOT
BRANCH   1  12
HETATM   12  C8  UNL     1     -13.795  22.458  -5.181  1.00  0.00    -0.027 C 
HETATM   13  C7  UNL     1     -13.981  21.513  -6.356  1.00  0.00     0.058 C 
HETATM   14  C6  UNL     1     -13.605  22.134  -7.693  1.00  0.00     0.130 C 
HETATM   15  N1  UNL     1     -12.191  22.333  -7.611  1.00  0.00    -0.358 N 
HETATM   16  C31 UNL     1     -11.637  22.566  -6.322  1.00  0.00     0.163 C 
HETATM   17  C25 UNL     1     -12.584  23.227  -5.288  1.00  0.00    -0.037 C 
BRANCH  15  18
HETATM   18  C5  UNL     1     -11.354  22.361  -8.735  1.00  0.00     0.137 C 
BRANCH  18  19
HETATM   19  C4  UNL     1     -11.259  23.216  -9.853  1.00  0.00     0.052 C 
BRANCH  19  20
HETATM   20  C3  UNL     1     -12.061  24.177 -10.210  1.00  0.00    -0.023 C 
BRANCH  20  21
HETATM   21  C2  UNL     1     -11.621  25.621 -10.286  1.00  0.00     0.023 C 
HETATM   22  C1  UNL     1     -12.582  26.476 -11.051  1.00  0.00     0.009 C 
ENDBRANCH  20  21
ENDBRANCH  19  20
ENDBRANCH  18  19
BRANCH  18  23
HETATM   23  O1  UNL     1     -10.479  21.368  -8.723  1.00  0.00    -0.346 OA
ATOM     24  H1  UNL     1     -10.860  20.503  -8.821  1.00  0.00     0.219 HD
ENDBRANCH  18  23
ENDBRANCH  15  18
BRANCH  17  25
HETATM   25  C26 UNL     1     -12.440  24.677  -5.191  1.00  0.00    -0.013 C 
BRANCH  25  26
HETATM   26  C27 UNL     1     -11.770  25.456  -4.174  1.00  0.00     0.004 C 
HETATM   27  C28 UNL     1     -10.447  26.084  -4.447  1.00  0.00     0.014 C 
BRANCH  26  28
HETATM   28  C29 UNL     1     -11.680  24.689  -2.868  1.00  0.00     0.003 C 
HETATM   29  C30 UNL     1     -12.191  25.385  -1.662  1.00  0.00     0.006 C 
ENDBRANCH  26  28
ENDBRANCH  25  26
ENDBRANCH  17  25
ENDBRANCH   1  12
BRANCH  10  30
HETATM   30  C16 UNL     1     -17.749  22.113  -6.332  1.00  0.00     0.248 C 
BRANCH  30  31
HETATM   31  N4  UNL     1     -17.639  21.084  -7.300  1.00  0.00    -0.413 NA
HETATM   32  C17 UNL     1     -17.482  20.144  -8.246  1.00  0.00     0.291 C 
HETATM   33  O3  UNL     1     -16.638  20.140  -9.174  1.00  0.00    -0.257 OA
BRANCH  32  34
HETATM   34  C18 UNL     1     -18.370  18.903  -8.295  1.00  0.00     0.107 C 
HETATM   35  C19 UNL     1     -18.330  18.387  -9.714  1.00  0.00     0.019 C 
HETATM   36  C20 UNL     1     -18.092  16.889  -9.768  1.00  0.00     0.032 C 
HETATM   37  C21 UNL     1     -19.044  16.135  -8.880  1.00  0.00     0.119 C 
HETATM   38  C22 UNL     1     -18.955  16.686  -7.492  1.00  0.00     0.048 C 
HETATM   39  C23 UNL     1     -17.948  17.826  -7.381  1.00  0.00     0.103 C 
BRANCH  37  40
HETATM   40  O4  UNL     1     -20.319  16.182  -9.406  1.00  0.00    -0.396 OA
ATOM     41  H4  UNL     1     -20.280  16.216 -10.355  1.00  0.00     0.210 HD
ENDBRANCH  37  40
BRANCH  39  42
HETATM   42  C24 UNL     1     -17.840  18.173  -5.954  1.00  0.00     0.177 C 
HETATM   43  O5  UNL     1     -18.841  18.532  -5.268  1.00  0.00    -0.648 OA
HETATM   44  O6  UNL     1     -16.617  18.115  -5.330  1.00  0.00    -0.648 OA
ENDBRANCH  39  42
ENDBRANCH  32  34
ENDBRANCH  30  31
ENDBRANCH  10  30
TORSDOF 14
ENDMDL
