MODEL 1
REMARK VINA RESULT: -6.075563366      0.000      0.000
REMARK  3 active torsions:
REMARK  status: ('A' for Active; 'I' for Inactive)
REMARK    1  A    between atoms: N1_1  and  N2_4 
REMARK       I    between atoms: N2_4  and  C1_6 
REMARK    2  A    between atoms: C1_6  and  C2_8 
REMARK       I    between atoms: C2_8  and  N3_10 
REMARK    3  A    between atoms: N3_10  and  N4_12 
REMARK       I    between atoms: N4_12  and  C3_14 
ROOT
HETATM    1  C2  UNL     1       7.330   4.995   0.668  1.00  0.00     0.329 C 
HETATM    2  O2  UNL     1       8.045   6.044   0.601  1.00  0.00    -0.261 OA
HETATM    3  N3  UNL     1       7.498   3.903  -0.192  1.00  0.00    -0.258 N 
ATOM      4  H3  UNL     1       6.885   3.096  -0.075  1.00  0.00     0.190 HD
ENDROOT
BRANCH   1   5
HETATM    5  C1  UNL     1       6.292   4.966   1.705  1.00  0.00     0.329 C 
HETATM    6  N2  UNL     1       5.638   3.752   2.070  1.00  0.00    -0.268 N 
ATOM      7  H2  UNL     1       5.875   2.869   1.617  1.00  0.00     0.190 HD
HETATM    8  O1  UNL     1       5.987   6.061   2.277  1.00  0.00    -0.261 OA
BRANCH   6   9
HETATM    9  N1  UNL     1       4.663   3.812   3.066  1.00  0.00    -0.342 N 
ATOM     10  H12 UNL     1       4.014   4.599   3.101  1.00  0.00     0.176 HD
ATOM     11  H11 UNL     1       4.629   3.051   3.744  1.00  0.00     0.176 HD
ENDBRANCH   6   9
ENDBRANCH   1   5
BRANCH   3  12
HETATM   12  N4  UNL     1       8.461   3.859  -1.202  1.00  0.00    -0.251 N 
HETATM   13  C3  UNL     1       8.212   4.376  -2.503  1.00  0.00     0.347 C 
HETATM   14  N5  UNL     1       9.193   4.326  -3.516  1.00  0.00    -0.038 NA
HETATM   15  O3  UNL     1       7.060   4.890  -2.719  1.00  0.00    -0.249 OA
ATOM     16  H4  UNL     1       9.370   3.444  -1.000  1.00  0.00     0.191 HD
ENDBRANCH   3  12
TORSDOF 3
ENDMDL
MODEL 2
REMARK VINA RESULT: -5.916618328      2.610      2.911
REMARK  3 active torsions:
REMARK  status: ('A' for Active; 'I' for Inactive)
REMARK    1  A    between atoms: N1_1  and  N2_4 
REMARK       I    between atoms: N2_4  and  C1_6 
REMARK    2  A    between atoms: C1_6  and  C2_8 
REMARK       I    between atoms: C2_8  and  N3_10 
REMARK    3  A    between atoms: N3_10  and  N4_12 
REMARK       I    between atoms: N4_12  and  C3_14 
ROOT
HETATM    1  C2  UNL     1       6.800   4.824   2.015  1.00  0.00     0.329 C 
HETATM    2  O2  UNL     1       6.133   5.710   1.393  1.00  0.00    -0.261 OA
HETATM    3  N3  UNL     1       6.954   3.515   1.540  1.00  0.00    -0.258 N 
ATOM      4  H3  UNL     1       7.505   2.861   2.096  1.00  0.00     0.190 HD
ENDROOT
BRANCH   1   5
HETATM    5  C1  UNL     1       7.420   5.228   3.282  1.00  0.00     0.329 C 
HETATM    6  N2  UNL     1       7.459   6.594   3.690  1.00  0.00    -0.268 N 
ATOM      7  H2  UNL     1       7.055   7.330   3.109  1.00  0.00     0.190 HD
HETATM    8  O1  UNL     1       7.927   4.321   4.015  1.00  0.00    -0.261 OA
BRANCH   6   9
HETATM    9  N1  UNL     1       8.067   6.892   4.909  1.00  0.00    -0.342 N 
ATOM     10  H12 UNL     1       8.632   7.735   5.008  1.00  0.00     0.176 HD
ATOM     11  H11 UNL     1       7.925   6.242   5.683  1.00  0.00     0.176 HD
ENDBRANCH   6   9
ENDBRANCH   1   5
BRANCH   3  12
HETATM   12  N4  UNL     1       6.394   3.058   0.347  1.00  0.00    -0.251 N 
HETATM   13  C3  UNL     1       7.092   3.130  -0.889  1.00  0.00     0.347 C 
HETATM   14  N5  UNL     1       6.516   2.665  -2.091  1.00  0.00    -0.038 NA
HETATM   15  O3  UNL     1       8.268   3.635  -0.870  1.00  0.00    -0.249 OA
ATOM     16  H4  UNL     1       5.455   2.660   0.362  1.00  0.00     0.191 HD
ENDBRANCH   3  12
TORSDOF 3
ENDMDL
MODEL 3
REMARK VINA RESULT: -5.903537887      2.364      2.452
REMARK  3 active torsions:
REMARK  status: ('A' for Active; 'I' for Inactive)
REMARK    1  A    between atoms: N1_1  and  N2_4 
REMARK       I    between atoms: N2_4  and  C1_6 
REMARK    2  A    between atoms: C1_6  and  C2_8 
REMARK       I    between atoms: C2_8  and  N3_10 
REMARK    3  A    between atoms: N3_10  and  N4_12 
REMARK       I    between atoms: N4_12  and  C3_14 
ROOT
HETATM    1  C2  UNL     1       7.586   3.941   1.556  1.00  0.00     0.329 C 
HETATM    2  O2  UNL     1       8.357   3.003   1.182  1.00  0.00    -0.261 OA
HETATM    3  N3  UNL     1       6.801   4.684   0.663  1.00  0.00    -0.258 N 
ATOM      4  H3  UNL     1       6.206   5.420   1.041  1.00  0.00     0.190 HD
ENDROOT
BRANCH   1   5
HETATM    5  C1  UNL     1       7.541   4.229   2.994  1.00  0.00     0.329 C 
HETATM    6  N2  UNL     1       7.020   5.460   3.492  1.00  0.00    -0.268 N 
ATOM      7  H2  UNL     1       6.662   6.175   2.858  1.00  0.00     0.190 HD
HETATM    8  O1  UNL     1       7.984   3.345   3.795  1.00  0.00    -0.261 OA
BRANCH   6   9
HETATM    9  N1  UNL     1       7.014   5.653   4.873  1.00  0.00    -0.342 N 
ATOM     10  H12 UNL     1       7.527   5.014   5.482  1.00  0.00     0.176 HD
ATOM     11  H11 UNL     1       6.485   6.444   5.240  1.00  0.00     0.176 HD
ENDBRANCH   6   9
ENDBRANCH   1   5
BRANCH   3  12
HETATM   12  N4  UNL     1       6.792   4.469  -0.715  1.00  0.00    -0.251 N 
HETATM   13  C3  UNL     1       7.323   5.420  -1.629  1.00  0.00     0.347 C 
HETATM   14  N5  UNL     1       7.308   5.193  -3.022  1.00  0.00    -0.038 NA
HETATM   15  O3  UNL     1       7.818   6.493  -1.138  1.00  0.00    -0.249 OA
ATOM     16  H4  UNL     1       6.392   3.604  -1.078  1.00  0.00     0.191 HD
ENDBRANCH   3  12
TORSDOF 3
ENDMDL
MODEL 4
REMARK VINA RESULT: -5.902906955      2.408      4.687
REMARK  3 active torsions:
REMARK  status: ('A' for Active; 'I' for Inactive)
REMARK    1  A    between atoms: N1_1  and  N2_4 
REMARK       I    between atoms: N2_4  and  C1_6 
REMARK    2  A    between atoms: C1_6  and  C2_8 
REMARK       I    between atoms: C2_8  and  N3_10 
REMARK    3  A    between atoms: N3_10  and  N4_12 
REMARK       I    between atoms: N4_12  and  C3_14 
ROOT
HETATM    1  C2  UNL     1       7.401   3.193   0.152  1.00  0.00     0.329 C 
HETATM    2  O2  UNL     1       8.670   3.241   0.197  1.00  0.00    -0.261 OA
HETATM    3  N3  UNL     1       6.588   3.450   1.264  1.00  0.00    -0.258 N 
ATOM      4  H3  UNL     1       5.577   3.392   1.147  1.00  0.00     0.190 HD
ENDROOT
BRANCH   1   5
HETATM    5  C1  UNL     1       6.796   2.848  -1.141  1.00  0.00     0.329 C 
HETATM    6  N2  UNL     1       5.715   1.923  -1.234  1.00  0.00    -0.268 N 
ATOM      7  H2  UNL     1       5.332   1.474  -0.401  1.00  0.00     0.190 HD
HETATM    8  O1  UNL     1       7.266   3.400  -2.186  1.00  0.00    -0.261 OA
BRANCH   6   9
HETATM    9  N1  UNL     1       5.199   1.651  -2.501  1.00  0.00    -0.342 N 
ATOM     10  H12 UNL     1       4.224   1.372  -2.607  1.00  0.00     0.176 HD
ATOM     11  H11 UNL     1       5.827   1.743  -3.300  1.00  0.00     0.176 HD
ENDBRANCH   6   9
ENDBRANCH   1   5
BRANCH   3  12
HETATM   12  N4  UNL     1       7.090   3.782   2.523  1.00  0.00    -0.251 N 
HETATM   13  C3  UNL     1       7.239   5.132   2.943  1.00  0.00     0.347 C 
HETATM   14  N5  UNL     1       7.748   5.457   4.218  1.00  0.00    -0.038 NA
HETATM   15  O3  UNL     1       6.892   6.045   2.116  1.00  0.00    -0.249 OA
ATOM     16  H4  UNL     1       7.358   3.033   3.161  1.00  0.00     0.191 HD
ENDBRANCH   3  12
TORSDOF 3
ENDMDL
MODEL 5
REMARK VINA RESULT: -5.881371651      1.728      1.728
REMARK  3 active torsions:
REMARK  status: ('A' for Active; 'I' for Inactive)
REMARK    1  A    between atoms: N1_1  and  N2_4 
REMARK       I    between atoms: N2_4  and  C1_6 
REMARK    2  A    between atoms: C1_6  and  C2_8 
REMARK       I    between atoms: C2_8  and  N3_10 
REMARK    3  A    between atoms: N3_10  and  N4_12 
REMARK       I    between atoms: N4_12  and  C3_14 
ROOT
HETATM    1  C2  UNL     1       8.182   3.252   0.925  1.00  0.00     0.329 C 
HETATM    2  O2  UNL     1       9.237   2.574   1.128  1.00  0.00    -0.261 OA
HETATM    3  N3  UNL     1       7.901   3.876  -0.298  1.00  0.00    -0.258 N 
ATOM      4  H3  UNL     1       7.031   4.402  -0.383  1.00  0.00     0.190 HD
ENDROOT
BRANCH   1   5
HETATM    5  C1  UNL     1       7.240   3.364   2.045  1.00  0.00     0.329 C 
HETATM    6  N2  UNL     1       5.830   3.384   1.834  1.00  0.00    -0.268 N 
ATOM      7  H2  UNL     1       5.437   3.321   0.894  1.00  0.00     0.190 HD
HETATM    8  O1  UNL     1       7.718   3.445   3.222  1.00  0.00    -0.261 OA
BRANCH   6   9
HETATM    9  N1  UNL     1       5.006   3.493   2.954  1.00  0.00    -0.342 N 
ATOM     10  H12 UNL     1       5.290   4.071   3.745  1.00  0.00     0.176 HD
ATOM     11  H11 UNL     1       4.124   2.980   2.947  1.00  0.00     0.176 HD
ENDBRANCH   6   9
ENDBRANCH   1   5
BRANCH   3  12
HETATM   12  N4  UNL     1       8.747   3.815  -1.405  1.00  0.00    -0.251 N 
HETATM   13  C3  UNL     1       8.416   4.434  -2.642  1.00  0.00     0.347 C 
HETATM   14  N5  UNL     1       9.279   4.366  -3.756  1.00  0.00    -0.038 NA
HETATM   15  O3  UNL     1       7.300   5.058  -2.705  1.00  0.00    -0.249 OA
ATOM     16  H4  UNL     1       9.630   3.312  -1.325  1.00  0.00     0.191 HD
ENDBRANCH   3  12
TORSDOF 3
ENDMDL
