MODEL 1
REMARK VINA RESULT: -7.090695007      0.000      0.000
REMARK  3 active torsions:
REMARK  status: ('A' for Active; 'I' for Inactive)
REMARK       I    between atoms: C2_2  and  N1_4 
REMARK    1  A    between atoms: N1_4  and  N2_6 
REMARK    2  A    between atoms: N2_6  and  C3_8 
REMARK    3  A    between atoms: N5_15  and  N6_16 
ROOT
HETATM    1  C3  UNL     1       6.738   4.763   3.190  1.00  0.00     0.736 A 
HETATM    2  N3  UNL     1       7.646   4.045   3.882  1.00  0.00    -0.125 N 
ATOM      3  H3  UNL     1       7.890   3.070   3.704  1.00  0.00     0.206 HD
HETATM    4  N4  UNL     1       8.170   4.808   4.827  1.00  0.00    -0.235 N 
ATOM      5  H4  UNL     1       8.882   4.538   5.505  1.00  0.00     0.192 HD
HETATM    6  C4  UNL     1       7.576   6.015   4.716  1.00  0.00     0.375 A 
HETATM    7  O2  UNL     1       7.824   7.005   5.453  1.00  0.00    -0.243 OA
HETATM    8  N5  UNL     1       6.681   6.003   3.702  1.00  0.00    -0.034 N 
ENDROOT
BRANCH   1   9
HETATM    9  N2  UNL     1       6.021   4.364   2.197  1.00  0.00    -0.126 N 
ATOM     10  H2  UNL     1       5.044   4.650   2.132  1.00  0.00     0.206 HD
BRANCH   9  11
HETATM   11  N1  UNL     1       6.573   3.533   1.198  1.00  0.00    -0.256 N 
HETATM   12  C2  UNL     1       7.113   4.122   0.042  1.00  0.00     0.232 C 
HETATM   13  C1  UNL     1       7.698   3.276  -1.021  1.00  0.00     0.119 C 
HETATM   14  O1  UNL     1       7.111   5.380  -0.114  1.00  0.00    -0.272 OA
ATOM     15  H1  UNL     1       6.580   2.520   1.314  1.00  0.00     0.190 HD
ENDBRANCH   9  11
ENDBRANCH   1   9
BRANCH   8  16
HETATM   16  N6  UNL     1       5.860   7.059   3.266  1.00  0.00    -0.320 N 
ATOM     17  H62 UNL     1       4.860   7.031   3.071  1.00  0.00     0.178 HD
ATOM     18  H61 UNL     1       6.147   8.020   3.079  1.00  0.00     0.178 HD
ENDBRANCH   8  16
TORSDOF 3
ENDMDL
MODEL 2
REMARK VINA RESULT: -7.049300594      0.980      1.040
REMARK  3 active torsions:
REMARK  status: ('A' for Active; 'I' for Inactive)
REMARK       I    between atoms: C2_2  and  N1_4 
REMARK    1  A    between atoms: N1_4  and  N2_6 
REMARK    2  A    between atoms: N2_6  and  C3_8 
REMARK    3  A    between atoms: N5_15  and  N6_16 
ROOT
HETATM    1  C3  UNL     1       6.836   3.853   2.572  1.00  0.00     0.736 A 
HETATM    2  N3  UNL     1       7.561   3.040   3.366  1.00  0.00    -0.125 N 
ATOM      3  H3  UNL     1       7.662   2.031   3.248  1.00  0.00     0.206 HD
HETATM    4  N4  UNL     1       8.122   3.761   4.324  1.00  0.00    -0.235 N 
ATOM      5  H4  UNL     1       8.725   3.419   5.071  1.00  0.00     0.192 HD
HETATM    6  C4  UNL     1       7.737   5.038   4.116  1.00  0.00     0.375 A 
HETATM    7  O2  UNL     1       8.077   6.014   4.834  1.00  0.00    -0.243 OA
HETATM    8  N5  UNL     1       6.936   5.112   3.029  1.00  0.00    -0.034 N 
ENDROOT
BRANCH   1   9
HETATM    9  N2  UNL     1       6.147   3.519   1.536  1.00  0.00    -0.126 N 
ATOM     10  H2  UNL     1       5.128   3.547   1.577  1.00  0.00     0.206 HD
BRANCH   9  11
HETATM   11  N1  UNL     1       6.788   3.115   0.344  1.00  0.00    -0.256 N 
HETATM   12  C2  UNL     1       7.147   4.088  -0.603  1.00  0.00     0.232 C 
HETATM   13  C1  UNL     1       7.819   3.692  -1.860  1.00  0.00     0.119 C 
HETATM   14  O1  UNL     1       6.904   5.316  -0.403  1.00  0.00    -0.272 OA
ATOM     15  H1  UNL     1       6.988   2.129   0.174  1.00  0.00     0.190 HD
ENDBRANCH   9  11
ENDBRANCH   1   9
BRANCH   8  16
HETATM   16  N6  UNL     1       6.329   6.258   2.484  1.00  0.00    -0.320 N 
ATOM     17  H62 UNL     1       6.653   6.820   1.697  1.00  0.00     0.178 HD
ATOM     18  H61 UNL     1       5.466   6.702   2.798  1.00  0.00     0.178 HD
ENDBRANCH   8  16
TORSDOF 3
ENDMDL
MODEL 3
REMARK VINA RESULT: -6.683478233      1.293      2.113
REMARK  3 active torsions:
REMARK  status: ('A' for Active; 'I' for Inactive)
REMARK       I    between atoms: C2_2  and  N1_4 
REMARK    1  A    between atoms: N1_4  and  N2_6 
REMARK    2  A    between atoms: N2_6  and  C3_8 
REMARK    3  A    between atoms: N5_15  and  N6_16 
ROOT
HETATM    1  C3  UNL     1       6.230   4.793   2.749  1.00  0.00     0.736 A 
HETATM    2  N3  UNL     1       5.527   5.943   2.701  1.00  0.00    -0.125 N 
ATOM      3  H3  UNL     1       4.803   6.167   2.017  1.00  0.00     0.206 HD
HETATM    4  N4  UNL     1       5.928   6.735   3.682  1.00  0.00    -0.235 N 
ATOM      5  H4  UNL     1       5.578   7.669   3.895  1.00  0.00     0.192 HD
HETATM    6  C4  UNL     1       6.892   6.062   4.346  1.00  0.00     0.375 A 
HETATM    7  O2  UNL     1       7.511   6.504   5.349  1.00  0.00    -0.243 OA
HETATM    8  N5  UNL     1       7.092   4.852   3.777  1.00  0.00    -0.034 N 
ENDROOT
BRANCH   1   9
HETATM    9  N2  UNL     1       6.124   3.781   1.959  1.00  0.00    -0.126 N 
ATOM     10  H2  UNL     1       5.604   2.957   2.262  1.00  0.00     0.206 HD
BRANCH   9  11
HETATM   11  N1  UNL     1       6.721   3.801   0.680  1.00  0.00    -0.256 N 
HETATM   12  C2  UNL     1       7.992   3.229   0.510  1.00  0.00     0.232 C 
HETATM   13  C1  UNL     1       8.641   3.236  -0.819  1.00  0.00     0.119 C 
HETATM   14  O1  UNL     1       8.606   2.697   1.484  1.00  0.00    -0.272 OA
ATOM     15  H1  UNL     1       6.235   4.226  -0.110  1.00  0.00     0.190 HD
ENDBRANCH   9  11
ENDBRANCH   1   9
BRANCH   8  16
HETATM   16  N6  UNL     1       8.005   3.857   4.170  1.00  0.00    -0.320 N 
ATOM     17  H62 UNL     1       8.760   3.451   3.618  1.00  0.00     0.178 HD
ATOM     18  H61 UNL     1       8.050   3.389   5.075  1.00  0.00     0.178 HD
ENDBRANCH   8  16
TORSDOF 3
ENDMDL
MODEL 4
REMARK VINA RESULT: -6.629882995      1.614      4.521
REMARK  3 active torsions:
REMARK  status: ('A' for Active; 'I' for Inactive)
REMARK       I    between atoms: C2_2  and  N1_4 
REMARK    1  A    between atoms: N1_4  and  N2_6 
REMARK    2  A    between atoms: N2_6  and  C3_8 
REMARK    3  A    between atoms: N5_15  and  N6_16 
ROOT
HETATM    1  C3  UNL     1       7.463   3.169   2.285  1.00  0.00     0.736 A 
HETATM    2  N3  UNL     1       8.247   2.151   1.875  1.00  0.00    -0.125 N 
ATOM      3  H3  UNL     1       8.716   1.482   2.486  1.00  0.00     0.206 HD
HETATM    4  N4  UNL     1       8.310   2.160   0.554  1.00  0.00    -0.235 N 
ATOM      5  H4  UNL     1       8.829   1.511  -0.037  1.00  0.00     0.192 HD
HETATM    6  C4  UNL     1       7.553   3.200   0.142  1.00  0.00     0.375 A 
HETATM    7  O2  UNL     1       7.375   3.523  -1.061  1.00  0.00    -0.243 OA
HETATM    8  N5  UNL     1       7.019   3.838   1.209  1.00  0.00    -0.034 N 
ENDROOT
BRANCH   1   9
HETATM    9  N2  UNL     1       7.164   3.483   3.498  1.00  0.00    -0.126 N 
ATOM     10  H2  UNL     1       6.393   3.008   3.967  1.00  0.00     0.206 HD
BRANCH   9  11
HETATM   11  N1  UNL     1       7.892   4.480   4.184  1.00  0.00    -0.256 N 
HETATM   12  C2  UNL     1       7.305   5.740   4.383  1.00  0.00     0.232 C 
HETATM   13  C1  UNL     1       8.045   6.802   5.098  1.00  0.00     0.119 C 
HETATM   14  O1  UNL     1       6.137   5.992   3.958  1.00  0.00    -0.272 OA
ATOM     15  H1  UNL     1       8.832   4.287   4.529  1.00  0.00     0.190 HD
ENDBRANCH   9  11
ENDBRANCH   1   9
BRANCH   8  16
HETATM   16  N6  UNL     1       6.177   4.964   1.203  1.00  0.00    -0.320 N 
ATOM     17  H62 UNL     1       5.631   5.338   1.979  1.00  0.00     0.178 HD
ATOM     18  H61 UNL     1       5.984   5.581   0.414  1.00  0.00     0.178 HD
ENDBRANCH   8  16
TORSDOF 3
ENDMDL
MODEL 5
REMARK VINA RESULT: -6.563416404      1.911      2.252
REMARK  3 active torsions:
REMARK  status: ('A' for Active; 'I' for Inactive)
REMARK       I    between atoms: C2_2  and  N1_4 
REMARK    1  A    between atoms: N1_4  and  N2_6 
REMARK    2  A    between atoms: N2_6  and  C3_8 
REMARK    3  A    between atoms: N5_15  and  N6_16 
ROOT
HETATM    1  C3  UNL     1       7.639   3.618   1.694  1.00  0.00     0.736 A 
HETATM    2  N3  UNL     1       7.694   2.661   2.643  1.00  0.00    -0.125 N 
ATOM      3  H3  UNL     1       7.709   1.655   2.470  1.00  0.00     0.206 HD
HETATM    4  N4  UNL     1       7.727   3.236   3.834  1.00  0.00    -0.235 N 
ATOM      5  H4  UNL     1       7.769   2.766   4.738  1.00  0.00     0.192 HD
HETATM    6  C4  UNL     1       7.691   4.568   3.616  1.00  0.00     0.375 A 
HETATM    7  O2  UNL     1       7.707   5.441   4.522  1.00  0.00    -0.243 OA
HETATM    8  N5  UNL     1       7.636   4.821   2.289  1.00  0.00    -0.034 N 
ENDROOT
BRANCH   1   9
HETATM    9  N2  UNL     1       7.595   3.449   0.418  1.00  0.00    -0.126 N 
ATOM     10  H2  UNL     1       8.262   3.937  -0.180  1.00  0.00     0.206 HD
BRANCH   9  11
HETATM   11  N1  UNL     1       6.631   2.595  -0.162  1.00  0.00    -0.256 N 
HETATM   12  C2  UNL     1       6.436   2.629  -1.553  1.00  0.00     0.232 C 
HETATM   13  C1  UNL     1       5.433   1.745  -2.186  1.00  0.00     0.119 C 
HETATM   14  O1  UNL     1       7.111   3.410  -2.289  1.00  0.00    -0.272 OA
ATOM     15  H1  UNL     1       6.083   1.962   0.422  1.00  0.00     0.190 HD
ENDBRANCH   9  11
ENDBRANCH   1   9
BRANCH   8  16
HETATM   16  N6  UNL     1       7.586   6.076   1.655  1.00  0.00    -0.320 N 
ATOM     17  H62 UNL     1       6.763   6.651   1.476  1.00  0.00     0.178 HD
ATOM     18  H61 UNL     1       8.373   6.602   1.275  1.00  0.00     0.178 HD
ENDBRANCH   8  16
TORSDOF 3
ENDMDL
