MODEL 1
REMARK VINA RESULT: -6.714316566      0.000      0.000
REMARK  3 active torsions:
REMARK  status: ('A' for Active; 'I' for Inactive)
REMARK       I    between atoms: N1_1  and  C1_4 
REMARK       I    between atoms: C1_4  and  N3_6 
REMARK    1  A    between atoms: N3_6  and  C2_8 
REMARK    2  A    between atoms: C4_16  and  N7_17 
REMARK    3  A    between atoms: N7_17  and  N8_19 
ROOT
HETATM    1  C2  UNL     1       7.030   5.193   2.164  1.00  0.00     0.168 A 
HETATM    2  N4  UNL     1       7.210   6.502   2.518  1.00  0.00    -0.281 N 
ATOM      3  H4  UNL     1       6.993   7.217   1.825  1.00  0.00     0.188 HD
HETATM    4  N5  UNL     1       7.643   6.897   3.686  1.00  0.00    -0.294 N 
ATOM      5  H5  UNL     1       7.754   7.893   3.879  1.00  0.00     0.187 HD
HETATM    6  C3  UNL     1       7.942   5.989   4.634  1.00  0.00     0.199 A 
HETATM    7  N6  UNL     1       7.780   4.676   4.330  1.00  0.00    -0.333 N 
ATOM      8  H6  UNL     1       8.003   3.977   5.039  1.00  0.00     0.168 HD
HETATM    9  C4  UNL     1       7.337   4.267   3.136  1.00  0.00     0.167 A 
ENDROOT
BRANCH   1  10
HETATM   10  N3  UNL     1       6.600   4.910   0.996  1.00  0.00    -0.313 N 
HETATM   11  C1  UNL     1       7.350   4.480  -0.117  1.00  0.00     0.187 C 
HETATM   12  N1  UNL     1       7.757   5.442  -0.912  1.00  0.00    -0.373 N 
HETATM   13  N2  UNL     1       7.647   3.119  -0.380  1.00  0.00    -0.064 NA
ATOM     14  H12 UNL     1       8.300   5.130  -1.718  1.00  0.00     0.158 HD
ATOM     15  H11 UNL     1       7.543   6.421  -0.722  1.00  0.00     0.158 HD
ATOM     16  H3  UNL     1       5.595   5.008   0.850  1.00  0.00     0.170 HD
ENDBRANCH   1  10
BRANCH   9  17
HETATM   17  N7  UNL     1       7.201   3.001   2.903  1.00  0.00    -0.289 N 
ATOM     18  H7  UNL     1       6.281   2.572   3.004  1.00  0.00     0.188 HD
BRANCH  17  19
HETATM   19  N8  UNL     1       8.281   2.212   2.519  1.00  0.00    -0.344 N 
ATOM     20  H82 UNL     1       9.207   2.460   2.867  1.00  0.00     0.176 HD
ATOM     21  H81 UNL     1       8.161   1.406   1.905  1.00  0.00     0.176 HD
ENDBRANCH  17  19
ENDBRANCH   9  17
TORSDOF 3
ENDMDL
MODEL 2
REMARK VINA RESULT: -6.451617143      1.486      2.723
REMARK  3 active torsions:
REMARK  status: ('A' for Active; 'I' for Inactive)
REMARK       I    between atoms: N1_1  and  C1_4 
REMARK       I    between atoms: C1_4  and  N3_6 
REMARK    1  A    between atoms: N3_6  and  C2_8 
REMARK    2  A    between atoms: C4_16  and  N7_17 
REMARK    3  A    between atoms: N7_17  and  N8_19 
ROOT
HETATM    1  C2  UNL     1       7.004   4.238   3.291  1.00  0.00     0.168 A 
HETATM    2  N4  UNL     1       7.993   4.337   4.231  1.00  0.00    -0.281 N 
ATOM      3  H4  UNL     1       8.627   3.545   4.341  1.00  0.00     0.188 HD
HETATM    4  N5  UNL     1       8.181   5.379   4.997  1.00  0.00    -0.294 N 
ATOM      5  H5  UNL     1       8.942   5.382   5.677  1.00  0.00     0.187 HD
HETATM    6  C3  UNL     1       7.371   6.448   4.887  1.00  0.00     0.199 A 
HETATM    7  N6  UNL     1       6.373   6.398   3.969  1.00  0.00    -0.333 N 
ATOM      8  H6  UNL     1       5.751   7.200   3.875  1.00  0.00     0.168 HD
HETATM    9  C4  UNL     1       6.177   5.334   3.182  1.00  0.00     0.167 A 
ENDROOT
BRANCH   1  10
HETATM   10  N3  UNL     1       6.905   3.175   2.591  1.00  0.00    -0.313 N 
HETATM   11  C1  UNL     1       7.573   2.871   1.389  1.00  0.00     0.187 C 
HETATM   12  N1  UNL     1       6.919   3.195   0.298  1.00  0.00    -0.373 N 
HETATM   13  N2  UNL     1       8.849   2.254   1.337  1.00  0.00    -0.064 NA
ATOM     14  H12 UNL     1       7.403   2.975  -0.573  1.00  0.00     0.158 HD
ATOM     15  H11 UNL     1       6.001   3.639   0.335  1.00  0.00     0.158 HD
ATOM     16  H3  UNL     1       6.267   2.462   2.945  1.00  0.00     0.170 HD
ENDBRANCH   1  10
BRANCH   9  17
HETATM   17  N7  UNL     1       5.209   5.342   2.324  1.00  0.00    -0.289 N 
ATOM     18  H7  UNL     1       5.173   4.618   1.606  1.00  0.00     0.188 HD
BRANCH  17  19
HETATM   19  N8  UNL     1       4.215   6.316   2.357  1.00  0.00    -0.344 N 
ATOM     20  H82 UNL     1       3.468   6.220   3.045  1.00  0.00     0.176 HD
ATOM     21  H81 UNL     1       4.224   7.109   1.715  1.00  0.00     0.176 HD
ENDBRANCH  17  19
ENDBRANCH   9  17
TORSDOF 3
ENDMDL
MODEL 3
REMARK VINA RESULT: -6.392623946      1.522      4.114
REMARK  3 active torsions:
REMARK  status: ('A' for Active; 'I' for Inactive)
REMARK       I    between atoms: N1_1  and  C1_4 
REMARK       I    between atoms: C1_4  and  N3_6 
REMARK    1  A    between atoms: N3_6  and  C2_8 
REMARK    2  A    between atoms: C4_16  and  N7_17 
REMARK    3  A    between atoms: N7_17  and  N8_19 
ROOT
HETATM    1  C2  UNL     1       7.037   3.776   2.611  1.00  0.00     0.168 A 
HETATM    2  N4  UNL     1       7.753   2.808   3.259  1.00  0.00    -0.281 N 
ATOM      3  H4  UNL     1       7.572   2.666   4.252  1.00  0.00     0.188 HD
HETATM    4  N5  UNL     1       8.655   2.053   2.691  1.00  0.00    -0.294 N 
ATOM      5  H5  UNL     1       9.151   1.349   3.239  1.00  0.00     0.187 HD
HETATM    6  C3  UNL     1       8.929   2.203   1.382  1.00  0.00     0.199 A 
HETATM    7  N6  UNL     1       8.244   3.152   0.694  1.00  0.00    -0.333 N 
ATOM      8  H6  UNL     1       8.442   3.278  -0.299  1.00  0.00     0.168 HD
HETATM    9  C4  UNL     1       7.320   3.928   1.271  1.00  0.00     0.167 A 
ENDROOT
BRANCH   1  10
HETATM   10  N3  UNL     1       6.176   4.462   3.258  1.00  0.00    -0.313 N 
HETATM   11  C1  UNL     1       6.292   5.794   3.701  1.00  0.00     0.187 C 
HETATM   12  N1  UNL     1       6.756   5.929   4.922  1.00  0.00    -0.373 N 
HETATM   13  N2  UNL     1       5.935   6.915   2.911  1.00  0.00    -0.064 NA
ATOM     14  H12 UNL     1       6.840   6.894   5.243  1.00  0.00     0.158 HD
ATOM     15  H11 UNL     1       7.012   5.122   5.490  1.00  0.00     0.158 HD
ATOM     16  H3  UNL     1       5.300   3.988   3.479  1.00  0.00     0.170 HD
ENDBRANCH   1  10
BRANCH   9  17
HETATM   17  N7  UNL     1       6.698   4.817   0.566  1.00  0.00    -0.289 N 
ATOM     18  H7  UNL     1       6.104   5.500   1.036  1.00  0.00     0.188 HD
BRANCH  17  19
HETATM   19  N8  UNL     1       6.821   4.862  -0.820  1.00  0.00    -0.344 N 
ATOM     20  H82 UNL     1       7.741   4.695  -1.228  1.00  0.00     0.176 HD
ATOM     21  H81 UNL     1       6.019   5.055  -1.420  1.00  0.00     0.176 HD
ENDBRANCH  17  19
ENDBRANCH   9  17
TORSDOF 3
ENDMDL
MODEL 4
REMARK VINA RESULT: -6.380513507      2.191      3.159
REMARK  3 active torsions:
REMARK  status: ('A' for Active; 'I' for Inactive)
REMARK       I    between atoms: N1_1  and  C1_4 
REMARK       I    between atoms: C1_4  and  N3_6 
REMARK    1  A    between atoms: N3_6  and  C2_8 
REMARK    2  A    between atoms: C4_16  and  N7_17 
REMARK    3  A    between atoms: N7_17  and  N8_19 
ROOT
HETATM    1  C2  UNL     1       7.548   3.737   0.284  1.00  0.00     0.168 A 
HETATM    2  N4  UNL     1       8.746   3.108   0.083  1.00  0.00    -0.281 N 
ATOM      3  H4  UNL     1       9.183   3.197  -0.834  1.00  0.00     0.188 HD
HETATM    4  N5  UNL     1       9.367   2.399   0.988  1.00  0.00    -0.294 N 
ATOM      5  H5  UNL     1      10.260   1.957   0.765  1.00  0.00     0.187 HD
HETATM    6  C3  UNL     1       8.830   2.252   2.213  1.00  0.00     0.199 A 
HETATM    7  N6  UNL     1       7.641   2.858   2.462  1.00  0.00    -0.333 N 
ATOM      8  H6  UNL     1       7.221   2.755   3.385  1.00  0.00     0.168 HD
HETATM    9  C4  UNL     1       7.000   3.585   1.539  1.00  0.00     0.167 A 
ENDROOT
BRANCH   1  10
HETATM   10  N3  UNL     1       7.022   4.408  -0.666  1.00  0.00    -0.313 N 
HETATM   11  C1  UNL     1       7.678   5.030  -1.747  1.00  0.00     0.187 C 
HETATM   12  N1  UNL     1       7.999   6.286  -1.546  1.00  0.00    -0.373 N 
HETATM   13  N2  UNL     1       7.970   4.371  -2.968  1.00  0.00    -0.064 NA
ATOM     14  H12 UNL     1       8.474   6.737  -2.329  1.00  0.00     0.158 HD
ATOM     15  H11 UNL     1       7.789   6.760  -0.668  1.00  0.00     0.158 HD
ATOM     16  H3  UNL     1       6.007   4.505  -0.639  1.00  0.00     0.170 HD
ENDBRANCH   1  10
BRANCH   9  17
HETATM   17  N7  UNL     1       5.869   4.140   1.833  1.00  0.00    -0.289 N 
ATOM     18  H7  UNL     1       5.668   5.077   1.485  1.00  0.00     0.188 HD
BRANCH  17  19
HETATM   19  N8  UNL     1       4.919   3.486   2.613  1.00  0.00    -0.344 N 
ATOM     20  H82 UNL     1       5.225   3.055   3.485  1.00  0.00     0.176 HD
ATOM     21  H81 UNL     1       3.940   3.435   2.329  1.00  0.00     0.176 HD
ENDBRANCH  17  19
ENDBRANCH   9  17
TORSDOF 3
ENDMDL
MODEL 5
REMARK VINA RESULT: -6.340267575      1.591      3.686
REMARK  3 active torsions:
REMARK  status: ('A' for Active; 'I' for Inactive)
REMARK       I    between atoms: N1_1  and  C1_4 
REMARK       I    between atoms: C1_4  and  N3_6 
REMARK    1  A    between atoms: N3_6  and  C2_8 
REMARK    2  A    between atoms: C4_16  and  N7_17 
REMARK    3  A    between atoms: N7_17  and  N8_19 
ROOT
HETATM    1  C2  UNL     1       6.573   4.073   2.224  1.00  0.00     0.168 A 
HETATM    2  N4  UNL     1       6.375   4.239   0.881  1.00  0.00    -0.281 N 
ATOM      3  H4  UNL     1       5.601   4.832   0.583  1.00  0.00     0.188 HD
HETATM    4  N5  UNL     1       7.113   3.689  -0.046  1.00  0.00    -0.294 N 
ATOM      5  H5  UNL     1       6.905   3.858  -1.031  1.00  0.00     0.187 HD
HETATM    6  C3  UNL     1       8.146   2.899   0.298  1.00  0.00     0.199 A 
HETATM    7  N6  UNL     1       8.383   2.702   1.621  1.00  0.00    -0.333 N 
ATOM      8  H6  UNL     1       9.163   2.105   1.897  1.00  0.00     0.168 HD
HETATM    9  C4  UNL     1       7.631   3.264   2.574  1.00  0.00     0.167 A 
ENDROOT
BRANCH   1  10
HETATM   10  N3  UNL     1       5.795   4.656   3.052  1.00  0.00    -0.313 N 
HETATM   11  C1  UNL     1       5.395   6.007   3.052  1.00  0.00     0.187 C 
HETATM   12  N1  UNL     1       6.144   6.803   3.779  1.00  0.00    -0.373 N 
HETATM   13  N2  UNL     1       4.269   6.489   2.337  1.00  0.00    -0.064 NA
ATOM     14  H12 UNL     1       5.854   7.782   3.779  1.00  0.00     0.158 HD
ATOM     15  H11 UNL     1       6.953   6.456   4.293  1.00  0.00     0.158 HD
ATOM     16  H3  UNL     1       5.419   4.075   3.802  1.00  0.00     0.170 HD
ENDBRANCH   1  10
BRANCH   9  17
HETATM   17  N7  UNL     1       7.904   3.041   3.819  1.00  0.00    -0.289 N 
ATOM     18  H7  UNL     1       7.829   2.091   4.183  1.00  0.00     0.188 HD
BRANCH  17  19
HETATM   19  N8  UNL     1       8.297   4.068   4.672  1.00  0.00    -0.344 N 
ATOM     20  H82 UNL     1       9.168   3.957   5.191  1.00  0.00     0.176 HD
ATOM     21  H81 UNL     1       7.736   4.913   4.783  1.00  0.00     0.176 HD
ENDBRANCH  17  19
ENDBRANCH   9  17
TORSDOF 3
ENDMDL
