MODEL 1
REMARK VINA RESULT: -7.291566721      0.000      0.000
REMARK  2 active torsions:
REMARK  status: ('A' for Active; 'I' for Inactive)
REMARK    1  A    between atoms: N1_1  and  C1_4 
REMARK       I    between atoms: N5_14  and  C4_16 
REMARK    2  A    between atoms: C4_16  and  C5_18 
ROOT
HETATM    1  C1  UNL     1      20.427  34.573 113.151  1.00  0.00     0.149 A 
HETATM    2  N2  UNL     1      20.342  33.856 112.016  1.00  0.00    -0.291 N 
ATOM      3  H2  UNL     1      20.241  32.841 112.050  1.00  0.00     0.172 HD
HETATM    4  C2  UNL     1      20.393  34.498 110.841  1.00  0.00     0.340 A 
HETATM    5  O1  UNL     1      20.311  33.800 109.798  1.00  0.00    -0.245 OA
HETATM    6  N3  UNL     1      20.526  35.833 110.823  1.00  0.00    -0.250 N 
ATOM      7  H3  UNL     1      20.562  36.307 109.920  1.00  0.00     0.192 HD
HETATM    8  N4  UNL     1      20.611  36.562 111.924  1.00  0.00    -0.278 N 
ATOM      9  H4  UNL     1      20.712  37.575 111.867  1.00  0.00     0.189 HD
HETATM   10  C3  UNL     1      20.564  35.949 113.121  1.00  0.00     0.167 A 
HETATM   11  N5  UNL     1      20.638  36.561 114.244  1.00  0.00    -0.301 N 
ATOM     12  H5  UNL     1      20.592  35.990 115.088  1.00  0.00     0.171 HD
HETATM   13  C4  UNL     1      20.777  37.944 114.415  1.00  0.00     0.312 C 
HETATM   14  O2  UNL     1      21.860  38.450 114.802  1.00  0.00    -0.262 OA
ENDROOT
BRANCH   1  15
HETATM   15  N1  UNL     1      20.375  33.914 114.282  1.00  0.00    -0.382 N 
ATOM     16  H12 UNL     1      19.509  33.838 114.817  1.00  0.00     0.157 HD
ATOM     17  H11 UNL     1      21.238  33.479 114.609  1.00  0.00     0.157 HD
ENDBRANCH   1  15
BRANCH  13  18
HETATM   18  C5  UNL     1      19.672  38.856 114.153  1.00  0.00     0.322 C 
HETATM   19  N6  UNL     1      18.680  39.144 115.130  1.00  0.00    -0.053 NA
HETATM   20  O3  UNL     1      19.582  39.419 113.010  1.00  0.00    -0.266 OA
ENDBRANCH  13  18
TORSDOF 2
ENDMDL
MODEL 2
REMARK VINA RESULT: -7.195821894      2.520      2.539
REMARK  2 active torsions:
REMARK  status: ('A' for Active; 'I' for Inactive)
REMARK    1  A    between atoms: N1_1  and  C1_4 
REMARK       I    between atoms: N5_14  and  C4_16 
REMARK    2  A    between atoms: C4_16  and  C5_18 
ROOT
HETATM    1  C1  UNL     1      21.131  35.339 114.911  1.00  0.00     0.149 A 
HETATM    2  N2  UNL     1      22.105  34.698 114.238  1.00  0.00    -0.291 N 
ATOM      3  H2  UNL     1      22.205  33.686 114.310  1.00  0.00     0.172 HD
HETATM    4  C2  UNL     1      22.939  35.415 113.472  1.00  0.00     0.340 A 
HETATM    5  O1  UNL     1      23.838  34.788 112.856  1.00  0.00    -0.245 OA
HETATM    6  N3  UNL     1      22.786  36.746 113.394  1.00  0.00    -0.250 N 
ATOM      7  H3  UNL     1      23.428  37.277 112.807  1.00  0.00     0.192 HD
HETATM    8  N4  UNL     1      21.837  37.400 114.046  1.00  0.00    -0.278 N 
ATOM      9  H4  UNL     1      21.754  38.413 113.959  1.00  0.00     0.189 HD
HETATM   10  C3  UNL     1      20.982  36.711 114.823  1.00  0.00     0.167 A 
HETATM   11  N5  UNL     1      20.031  37.247 115.494  1.00  0.00    -0.301 N 
ATOM     12  H5  UNL     1      19.446  36.623 116.051  1.00  0.00     0.171 HD
HETATM   13  C4  UNL     1      19.724  38.612 115.532  1.00  0.00     0.312 C 
HETATM   14  O2  UNL     1      19.968  39.311 116.547  1.00  0.00    -0.262 OA
ENDROOT
BRANCH   1  15
HETATM   15  N1  UNL     1      20.334  34.609 115.651  1.00  0.00    -0.382 N 
ATOM     16  H12 UNL     1      19.335  34.807 115.715  1.00  0.00     0.157 HD
ATOM     17  H11 UNL     1      20.753  33.832 116.162  1.00  0.00     0.157 HD
ENDBRANCH   1  15
BRANCH  13  18
HETATM   18  C5  UNL     1      19.109  39.283 114.395  1.00  0.00     0.322 C 
HETATM   19  N6  UNL     1      17.751  39.704 114.408  1.00  0.00    -0.053 NA
HETATM   20  O3  UNL     1      19.803  39.504 113.346  1.00  0.00    -0.266 OA
ENDBRANCH  13  18
TORSDOF 2
ENDMDL
MODEL 3
REMARK VINA RESULT: -7.142873385      1.242      1.285
REMARK  2 active torsions:
REMARK  status: ('A' for Active; 'I' for Inactive)
REMARK    1  A    between atoms: N1_1  and  C1_4 
REMARK       I    between atoms: N5_14  and  C4_16 
REMARK    2  A    between atoms: C4_16  and  C5_18 
ROOT
HETATM    1  C1  UNL     1      20.287  34.656 114.150  1.00  0.00     0.149 A 
HETATM    2  N2  UNL     1      20.356  34.038 112.957  1.00  0.00    -0.291 N 
ATOM      3  H2  UNL     1      20.192  33.033 112.883  1.00  0.00     0.172 HD
HETATM    4  C2  UNL     1      20.644  34.765 111.869  1.00  0.00     0.340 A 
HETATM    5  O1  UNL     1      20.702  34.159 110.769  1.00  0.00    -0.245 OA
HETATM    6  N3  UNL     1      20.856  36.085 111.993  1.00  0.00    -0.250 N 
ATOM      7  H3  UNL     1      21.073  36.624 111.155  1.00  0.00     0.192 HD
HETATM    8  N4  UNL     1      20.793  36.717 113.154  1.00  0.00    -0.278 N 
ATOM      9  H4  UNL     1      20.961  37.721 113.206  1.00  0.00     0.189 HD
HETATM   10  C3  UNL     1      20.506  36.016 114.266  1.00  0.00     0.167 A 
HETATM   11  N5  UNL     1      20.422  36.531 115.437  1.00  0.00    -0.301 N 
ATOM     12  H5  UNL     1      20.199  35.900 116.207  1.00  0.00     0.171 HD
HETATM   13  C4  UNL     1      20.611  37.882 115.752  1.00  0.00     0.312 C 
HETATM   14  O2  UNL     1      21.639  38.277 116.356  1.00  0.00    -0.262 OA
ENDROOT
BRANCH   1  15
HETATM   15  N1  UNL     1      20.004  33.915 115.193  1.00  0.00    -0.382 N 
ATOM     16  H12 UNL     1      19.065  33.547 115.347  1.00  0.00     0.157 HD
ATOM     17  H11 UNL     1      20.762  33.722 115.847  1.00  0.00     0.157 HD
ENDBRANCH   1  15
BRANCH  13  18
HETATM   18  C5  UNL     1      19.622  38.890 115.394  1.00  0.00     0.322 C 
HETATM   19  N6  UNL     1      19.564  40.156 116.037  1.00  0.00    -0.053 NA
HETATM   20  O3  UNL     1      18.773  38.636 114.473  1.00  0.00    -0.266 OA
ENDBRANCH  13  18
TORSDOF 2
ENDMDL
MODEL 4
REMARK VINA RESULT: -7.123739470      1.468      1.502
REMARK  2 active torsions:
REMARK  status: ('A' for Active; 'I' for Inactive)
REMARK    1  A    between atoms: N1_1  and  C1_4 
REMARK       I    between atoms: N5_14  and  C4_16 
REMARK    2  A    between atoms: C4_16  and  C5_18 
ROOT
HETATM    1  C1  UNL     1      22.005  35.418 113.591  1.00  0.00     0.149 A 
HETATM    2  N2  UNL     1      21.800  34.606 112.538  1.00  0.00    -0.291 N 
ATOM      3  H2  UNL     1      22.254  33.693 112.491  1.00  0.00     0.172 HD
HETATM    4  C2  UNL     1      20.991  35.018 111.552  1.00  0.00     0.340 A 
HETATM    5  O1  UNL     1      20.819  34.237 110.582  1.00  0.00    -0.245 OA
HETATM    6  N3  UNL     1      20.406  36.223 111.638  1.00  0.00    -0.250 N 
ATOM      7  H3  UNL     1      19.792  36.522 110.881  1.00  0.00     0.192 HD
HETATM    8  N4  UNL     1      20.591  37.041 112.663  1.00  0.00    -0.278 N 
ATOM      9  H4  UNL     1      20.128  37.949 112.689  1.00  0.00     0.189 HD
HETATM   10  C3  UNL     1      21.398  36.658 113.669  1.00  0.00     0.167 A 
HETATM   11  N5  UNL     1      21.643  37.373 114.703  1.00  0.00    -0.301 N 
ATOM     12  H5  UNL     1      22.273  36.978 115.402  1.00  0.00     0.171 HD
HETATM   13  C4  UNL     1      21.124  38.648 114.959  1.00  0.00     0.312 C 
HETATM   14  O2  UNL     1      21.840  39.676 114.875  1.00  0.00    -0.262 OA
ENDROOT
BRANCH   1  15
HETATM   15  N1  UNL     1      22.803  34.985 114.536  1.00  0.00    -0.382 N 
ATOM     16  H12 UNL     1      23.710  34.571 114.320  1.00  0.00     0.157 HD
ATOM     17  H11 UNL     1      22.479  35.078 115.498  1.00  0.00     0.157 HD
ENDBRANCH   1  15
BRANCH  13  18
HETATM   18  C5  UNL     1      19.729  38.838 115.335  1.00  0.00     0.322 C 
HETATM   19  N6  UNL     1      19.344  39.669 116.421  1.00  0.00    -0.053 NA
HETATM   20  O3  UNL     1      18.815  38.241 114.672  1.00  0.00    -0.266 OA
ENDBRANCH  13  18
TORSDOF 2
ENDMDL
MODEL 5
REMARK VINA RESULT: -6.593776582      1.835      4.904
REMARK  2 active torsions:
REMARK  status: ('A' for Active; 'I' for Inactive)
REMARK    1  A    between atoms: N1_1  and  C1_4 
REMARK       I    between atoms: N5_14  and  C4_16 
REMARK    2  A    between atoms: C4_16  and  C5_18 
ROOT
HETATM    1  C1  UNL     1      21.387  36.811 115.629  1.00  0.00     0.149 A 
HETATM    2  N2  UNL     1      21.045  37.970 116.221  1.00  0.00    -0.291 N 
ATOM      3  H2  UNL     1      21.549  38.301 117.044  1.00  0.00     0.172 HD
HETATM    4  C2  UNL     1      20.031  38.681 115.710  1.00  0.00     0.340 A 
HETATM    5  O1  UNL     1      19.735  39.760 116.284  1.00  0.00    -0.245 OA
HETATM    6  N3  UNL     1      19.384  38.225 114.626  1.00  0.00    -0.250 N 
ATOM      7  H3  UNL     1      18.615  38.778 114.248  1.00  0.00     0.192 HD
HETATM    8  N4  UNL     1      19.701  37.088 114.025  1.00  0.00    -0.278 N 
ATOM      9  H4  UNL     1      19.183  36.776 113.203  1.00  0.00     0.189 HD
HETATM   10  C3  UNL     1      20.714  36.350 114.513  1.00  0.00     0.167 A 
HETATM   11  N5  UNL     1      21.099  35.237 114.007  1.00  0.00    -0.301 N 
ATOM     12  H5  UNL     1      21.879  34.765 114.465  1.00  0.00     0.171 HD
HETATM   13  C4  UNL     1      20.544  34.613 112.884  1.00  0.00     0.312 C 
HETATM   14  O2  UNL     1      19.838  33.579 112.990  1.00  0.00    -0.262 OA
ENDROOT
BRANCH   1  15
HETATM   15  N1  UNL     1      22.382  36.140 116.155  1.00  0.00    -0.382 N 
ATOM     16  H12 UNL     1      23.039  36.578 116.802  1.00  0.00     0.157 HD
ATOM     17  H11 UNL     1      22.475  35.159 115.892  1.00  0.00     0.157 HD
ENDBRANCH   1  15
BRANCH  13  18
HETATM   18  C5  UNL     1      20.761  35.135 111.541  1.00  0.00     0.322 C 
HETATM   19  N6  UNL     1      20.991  36.516 111.294  1.00  0.00    -0.053 NA
HETATM   20  O3  UNL     1      20.744  34.334 110.547  1.00  0.00    -0.266 OA
ENDBRANCH  13  18
TORSDOF 2
ENDMDL
