MODEL 1
REMARK VINA RESULT: -7.354785903      0.000      0.000
REMARK  0 active torsions:
REMARK  status: ('A' for Active; 'I' for Inactive)
REMARK       I    between atoms: C1_2  and  N2_4 
ROOT
HETATM    1  N1  UNL     1      20.122  39.109 116.260  1.00  0.00    -0.040 NA
HETATM    2  C1  UNL     1      20.754  39.012 114.997  1.00  0.00     0.334 C 
HETATM    3  O1  UNL     1      20.453  39.790 114.042  1.00  0.00    -0.251 OA
HETATM    4  N2  UNL     1      21.738  38.050 114.756  1.00  0.00    -0.292 N 
ATOM      5  H2  UNL     1      22.652  38.246 115.164  1.00  0.00     0.172 HD
HETATM    6  C2  UNL     1      21.655  36.972 114.102  1.00  0.00     0.182 C 
HETATM    7  N3  UNL     1      22.774  36.193 114.012  1.00  0.00    -0.290 N 
ATOM      8  H3  UNL     1      23.482  36.334 114.732  1.00  0.00     0.172 HD
HETATM    9  C3  UNL     1      23.049  35.265 113.086  1.00  0.00     0.329 C 
HETATM   10  O2  UNL     1      24.150  34.665 113.289  1.00  0.00    -0.246 OA
HETATM   11  N4  UNL     1      22.357  34.879 112.006  1.00  0.00    -0.260 N 
ATOM     12  H4  UNL     1      22.844  34.296 111.325  1.00  0.00     0.175 HD
HETATM   13  C4  UNL     1      21.059  35.196 111.734  1.00  0.00     0.331 C 
HETATM   14  O3  UNL     1      20.597  34.685 110.689  1.00  0.00    -0.246 OA
HETATM   15  N5  UNL     1      20.206  35.973 112.420  1.00  0.00    -0.272 N 
ATOM     16  H5  UNL     1      19.261  36.035 112.042  1.00  0.00     0.174 HD
HETATM   17  C5  UNL     1      20.433  36.679 113.539  1.00  0.00     0.293 C 
HETATM   18  O4  UNL     1      19.408  37.119 114.136  1.00  0.00    -0.264 OA
ENDROOT
TORSDOF 0
ENDMDL
MODEL 2
REMARK VINA RESULT: -7.037752942      1.868      2.127
REMARK  0 active torsions:
REMARK  status: ('A' for Active; 'I' for Inactive)
REMARK       I    between atoms: C1_2  and  N2_4 
ROOT
HETATM    1  N1  UNL     1      19.466  40.064 115.994  1.00  0.00    -0.040 NA
HETATM    2  C1  UNL     1      20.503  39.157 115.665  1.00  0.00     0.334 C 
HETATM    3  O1  UNL     1      21.652  39.562 115.314  1.00  0.00    -0.251 OA
HETATM    4  N2  UNL     1      20.295  37.777 115.716  1.00  0.00    -0.292 N 
ATOM      5  H2  UNL     1      20.277  37.370 116.651  1.00  0.00     0.172 HD
HETATM    6  C2  UNL     1      20.127  36.961 114.764  1.00  0.00     0.182 C 
HETATM    7  N3  UNL     1      19.941  35.644 115.079  1.00  0.00    -0.290 N 
ATOM      8  H3  UNL     1      19.610  35.449 116.024  1.00  0.00     0.172 HD
HETATM    9  C3  UNL     1      20.143  34.581 114.291  1.00  0.00     0.329 C 
HETATM   10  O2  UNL     1      19.837  33.480 114.845  1.00  0.00    -0.246 OA
HETATM   11  N4  UNL     1      20.607  34.502 113.036  1.00  0.00    -0.260 N 
ATOM     12  H4  UNL     1      20.872  33.577 112.696  1.00  0.00     0.175 HD
HETATM   13  C4  UNL     1      20.756  35.547 112.173  1.00  0.00     0.331 C 
HETATM   14  O3  UNL     1      21.161  35.235 111.030  1.00  0.00    -0.246 OA
HETATM   15  N5  UNL     1      20.534  36.856 112.367  1.00  0.00    -0.272 N 
ATOM     16  H5  UNL     1      20.680  37.455 111.555  1.00  0.00     0.174 HD
HETATM   17  C5  UNL     1      20.146  37.481 113.490  1.00  0.00     0.293 C 
HETATM   18  O4  UNL     1      19.753  38.676 113.353  1.00  0.00    -0.264 OA
ENDROOT
TORSDOF 0
ENDMDL
MODEL 3
REMARK VINA RESULT: -6.896901270      2.036      4.848
REMARK  0 active torsions:
REMARK  status: ('A' for Active; 'I' for Inactive)
REMARK       I    between atoms: C1_2  and  N2_4 
ROOT
HETATM    1  N1  UNL     1      22.598  35.442 113.111  1.00  0.00    -0.040 NA
HETATM    2  C1  UNL     1      21.814  35.913 114.193  1.00  0.00     0.334 C 
HETATM    3  O1  UNL     1      21.027  35.146 114.826  1.00  0.00    -0.251 OA
HETATM    4  N2  UNL     1      21.881  37.246 114.605  1.00  0.00    -0.292 N 
ATOM      5  H2  UNL     1      22.714  37.499 115.137  1.00  0.00     0.172 HD
HETATM    6  C2  UNL     1      21.054  38.182 114.411  1.00  0.00     0.182 C 
HETATM    7  N3  UNL     1      21.354  39.413 114.922  1.00  0.00    -0.290 N 
ATOM      8  H3  UNL     1      22.339  39.594 115.116  1.00  0.00     0.172 HD
HETATM    9  C3  UNL     1      20.504  40.411 115.198  1.00  0.00     0.329 C 
HETATM   10  O2  UNL     1      21.082  41.459 115.621  1.00  0.00    -0.246 OA
HETATM   11  N4  UNL     1      19.170  40.471 115.098  1.00  0.00    -0.260 N 
ATOM     12  H4  UNL     1      18.705  41.258 115.551  1.00  0.00     0.175 HD
HETATM   13  C4  UNL     1      18.377  39.575 114.443  1.00  0.00     0.331 C 
HETATM   14  O3  UNL     1      17.157  39.856 114.435  1.00  0.00    -0.246 OA
HETATM   15  N5  UNL     1      18.710  38.441 113.809  1.00  0.00    -0.272 N 
ATOM     16  H5  UNL     1      17.944  37.946 113.353  1.00  0.00     0.174 HD
HETATM   17  C5  UNL     1      19.921  37.871 113.695  1.00  0.00     0.293 C 
HETATM   18  O4  UNL     1      20.022  36.950 112.833  1.00  0.00    -0.264 OA
ENDROOT
TORSDOF 0
ENDMDL
MODEL 4
REMARK VINA RESULT: -6.896140332      1.754      2.546
REMARK  0 active torsions:
REMARK  status: ('A' for Active; 'I' for Inactive)
REMARK       I    between atoms: C1_2  and  N2_4 
ROOT
HETATM    1  N1  UNL     1      19.490  39.600 116.191  1.00  0.00    -0.040 NA
HETATM    2  C1  UNL     1      20.315  38.460 116.349  1.00  0.00     0.334 C 
HETATM    3  O1  UNL     1      21.377  38.500 117.040  1.00  0.00    -0.251 OA
HETATM    4  N2  UNL     1      19.986  37.243 115.747  1.00  0.00    -0.292 N 
ATOM      5  H2  UNL     1      19.231  36.722 116.194  1.00  0.00     0.172 HD
HETATM    6  C2  UNL     1      20.492  36.698 114.725  1.00  0.00     0.182 C 
HETATM    7  N3  UNL     1      19.988  35.490 114.331  1.00  0.00    -0.290 N 
ATOM      8  H3  UNL     1      19.044  35.270 114.649  1.00  0.00     0.172 HD
HETATM    9  C3  UNL     1      20.589  34.563 113.574  1.00  0.00     0.329 C 
HETATM   10  O2  UNL     1      19.851  33.558 113.332  1.00  0.00    -0.246 OA
HETATM   11  N4  UNL     1      21.819  34.534 113.046  1.00  0.00    -0.260 N 
ATOM     12  H4  UNL     1      22.143  33.641 112.671  1.00  0.00     0.175 HD
HETATM   13  C4  UNL     1      22.678  35.589 112.962  1.00  0.00     0.331 C 
HETATM   14  O3  UNL     1      23.761  35.346 112.383  1.00  0.00    -0.246 OA
HETATM   15  N5  UNL     1      22.534  36.846 113.409  1.00  0.00    -0.272 N 
ATOM     16  H5  UNL     1      23.303  37.483 113.196  1.00  0.00     0.174 HD
HETATM   17  C5  UNL     1      21.513  37.377 114.099  1.00  0.00     0.293 C 
HETATM   18  O4  UNL     1      21.491  38.640 114.176  1.00  0.00    -0.264 OA
ENDROOT
TORSDOF 0
ENDMDL
MODEL 5
REMARK VINA RESULT: -6.761035827      1.790      4.984
REMARK  0 active torsions:
REMARK  status: ('A' for Active; 'I' for Inactive)
REMARK       I    between atoms: C1_2  and  N2_4 
ROOT
HETATM    1  N1  UNL     1      21.049  34.261 110.915  1.00  0.00    -0.040 NA
HETATM    2  C1  UNL     1      21.517  35.551 111.263  1.00  0.00     0.334 C 
HETATM    3  O1  UNL     1      22.746  35.854 111.188  1.00  0.00    -0.251 OA
HETATM    4  N2  UNL     1      20.637  36.542 111.705  1.00  0.00    -0.292 N 
ATOM      5  H2  UNL     1      20.068  36.978 110.979  1.00  0.00     0.172 HD
HETATM    6  C2  UNL     1      20.449  36.975 112.877  1.00  0.00     0.182 C 
HETATM    7  N3  UNL     1      19.518  37.961 113.051  1.00  0.00    -0.290 N 
ATOM      8  H3  UNL     1      18.809  38.045 112.323  1.00  0.00     0.172 HD
HETATM    9  C3  UNL     1      19.431  38.830 114.066  1.00  0.00     0.329 C 
HETATM   10  O2  UNL     1      18.428  39.603 113.979  1.00  0.00    -0.246 OA
HETATM   11  N4  UNL     1      20.220  39.003 115.136  1.00  0.00    -0.260 N 
ATOM     12  H4  UNL     1      20.083  39.854 115.680  1.00  0.00     0.175 HD
HETATM   13  C4  UNL     1      21.188  38.142 115.561  1.00  0.00     0.331 C 
HETATM   14  O3  UNL     1      21.771  38.482 116.616  1.00  0.00    -0.246 OA
HETATM   15  N5  UNL     1      21.607  36.989 115.018  1.00  0.00    -0.272 N 
ATOM     16  H5  UNL     1      22.327  36.490 115.539  1.00  0.00     0.174 HD
HETATM   17  C5  UNL     1      21.202  36.406 113.878  1.00  0.00     0.293 C 
HETATM   18  O4  UNL     1      21.555  35.201 113.715  1.00  0.00    -0.264 OA
ENDROOT
TORSDOF 0
ENDMDL
