MODEL 1
REMARK VINA RESULT: -6.909400546      0.000      0.000
REMARK  12 active torsions:
REMARK  status: ('A' for Active; 'I' for Inactive)
REMARK    1  A    between atoms: C2_2  and  C4_4 
REMARK       I    between atoms: C4_4  and  N1_6 
REMARK    2  A    between atoms: N1_6  and  C5_8 
REMARK    3  A    between atoms: C5_8  and  C6_9 
REMARK    4  A    between atoms: C6_9  and  C7_10 
REMARK       I    between atoms: N3_15  and  C10_16 
REMARK    5  A    between atoms: C10_16  and  C11_18 
REMARK       I    between atoms: N4_21  and  C14_22 
REMARK    6  A    between atoms: C18_27  and  C19_28 
REMARK       I    between atoms: C19_28  and  N5_30 
REMARK    7  A    between atoms: C21_32  and  C22_33 
REMARK    8  A    between atoms: C21_32  and  C25_36 
REMARK    9  A    between atoms: C22_33  and  C23_34 
REMARK   10  A    between atoms: C25_36  and  C26_37 
REMARK   11  A    between atoms: C30_41  and  C31_42 
REMARK       I    between atoms: C31_42  and  N6_44 
REMARK   12  A    between atoms: N6_44  and  C32_46 
ROOT
HETATM    1  C7  UNL     1       7.528 -17.937 -20.678  1.00  0.00     0.085 C 
HETATM    2  S1  UNL     1       7.969 -16.675 -19.441  1.00  0.00    -0.073 SA
HETATM    3  N2  UNL     1       7.572 -18.101 -18.437  1.00  0.00    -0.220 NA
HETATM    4  C8  UNL     1       6.715 -18.532 -19.540  1.00  0.00     0.105 C 
HETATM    5  C9  UNL     1       5.498 -17.626 -19.316  1.00  0.00     0.150 C 
HETATM    6  N3  UNL     1       5.360 -17.577 -17.886  1.00  0.00    -0.324 N 
HETATM    7  C10 UNL     1       4.141 -17.367 -17.191  1.00  0.00     0.225 C 
HETATM    8  O2  UNL     1       4.211 -17.353 -15.922  1.00  0.00    -0.273 OA
HETATM    9  C18 UNL     1       6.668 -17.781 -17.352  1.00  0.00     0.266 C 
ENDROOT
BRANCH   9  10
HETATM   10  C19 UNL     1       7.225 -16.683 -16.558  1.00  0.00     0.259 C 
HETATM   11  O4  UNL     1       6.560 -15.621 -16.363  1.00  0.00    -0.269 OA
HETATM   12  N5  UNL     1       8.509 -16.792 -15.994  1.00  0.00    -0.335 N 
HETATM   13  C20 UNL     1       9.373 -17.952 -16.058  1.00  0.00     0.136 C 
HETATM   14  C30 UNL     1       9.243 -15.759 -15.230  1.00  0.00     0.180 C 
HETATM   15  C21 UNL     1      10.399 -17.765 -14.910  1.00  0.00    -0.021 C 
HETATM   16  C29 UNL     1       9.783 -16.670 -14.134  1.00  0.00     0.046 C 
BRANCH  15  17
HETATM   17  C22 UNL     1      10.353 -19.031 -14.090  1.00  0.00     0.011 C 
BRANCH  17  18
HETATM   18  C23 UNL     1      11.324 -19.019 -12.928  1.00  0.00    -0.004 C 
HETATM   19  C24 UNL     1      12.451 -20.000 -13.143  1.00  0.00     0.005 C 
ENDBRANCH  17  18
ENDBRANCH  15  17
BRANCH  15  20
HETATM   20  C25 UNL     1      11.698 -17.522 -15.565  1.00  0.00     0.015 C 
BRANCH  20  21
HETATM   21  C26 UNL     1      12.139 -18.414 -16.655  1.00  0.00    -0.022 C 
HETATM   22  C27 UNL     1      12.464 -17.491 -17.856  1.00  0.00     0.009 C 
HETATM   23  C28 UNL     1      13.435 -19.158 -16.414  1.00  0.00     0.009 C 
ENDBRANCH  20  21
ENDBRANCH  15  20
BRANCH  14  24
HETATM   24  C31 UNL     1       8.391 -14.698 -14.711  1.00  0.00     0.240 C 
HETATM   25  O5  UNL     1       8.560 -13.516 -15.103  1.00  0.00    -0.271 OA
HETATM   26  N6  UNL     1       7.358 -14.938 -13.765  1.00  0.00    -0.360 N 
ATOM     27  H6  UNL     1       7.200 -15.888 -13.431  1.00  0.00     0.162 HD
BRANCH  26  28
HETATM   28  C32 UNL     1       6.520 -13.859 -13.263  1.00  0.00     0.118 C 
HETATM   29  C33 UNL     1       5.459 -13.427 -14.233  1.00  0.00     0.026 C 
ENDBRANCH  26  28
ENDBRANCH  14  24
ENDBRANCH   9  10
BRANCH   7  30
HETATM   30  C11 UNL     1       2.818 -17.167 -17.782  1.00  0.00     0.081 C 
HETATM   31  C12 UNL     1       1.986 -16.223 -16.897  1.00  0.00     0.034 C 
HETATM   32  C13 UNL     1       0.520 -16.317 -17.187  1.00  0.00     0.126 C 
HETATM   33  N4  UNL     1       0.339 -16.914 -18.509  1.00  0.00    -0.352 N 
HETATM   34  C14 UNL     1      -0.233 -16.206 -19.577  1.00  0.00     0.215 C 
HETATM   35  C16 UNL     1       0.774 -18.276 -18.679  1.00  0.00     0.126 C 
HETATM   36  C15 UNL     1      -0.409 -16.816 -20.915  1.00  0.00     0.117 C 
HETATM   37  O3  UNL     1      -0.604 -15.017 -19.386  1.00  0.00    -0.274 OA
HETATM   38  C17 UNL     1       2.015 -18.461 -17.838  1.00  0.00     0.034 C 
ENDBRANCH   7  30
BRANCH   1  39
HETATM   39  C6  UNL     1       8.694 -18.804 -21.097  1.00  0.00     0.038 C 
BRANCH  39  40
HETATM   40  C5  UNL     1       9.876 -18.407 -20.273  1.00  0.00     0.124 C 
BRANCH  40  41
HETATM   41  N1  UNL     1      10.873 -19.424 -20.096  1.00  0.00    -0.357 N 
HETATM   42  C4  UNL     1      10.687 -20.504 -19.215  1.00  0.00     0.246 C 
HETATM   43  O1  UNL     1       9.657 -20.652 -18.538  1.00  0.00    -0.268 OA
ATOM     44  H1  UNL     1      11.743 -19.362 -20.625  1.00  0.00     0.162 HD
BRANCH  42  45
HETATM   45  C2  UNL     1      11.755 -21.499 -19.092  1.00  0.00    -0.004 C 
HETATM   46  C1  UNL     1      11.511 -22.650 -18.504  1.00  0.00     0.024 C 
HETATM   47  C3  UNL     1      13.120 -21.210 -19.618  1.00  0.00     0.053 C 
ENDBRANCH  42  45
ENDBRANCH  40  41
ENDBRANCH  39  40
ENDBRANCH   1  39
TORSDOF 12
ENDMDL
MODEL 2
REMARK VINA RESULT: -6.894112539      3.346      5.863
REMARK  12 active torsions:
REMARK  status: ('A' for Active; 'I' for Inactive)
REMARK    1  A    between atoms: C2_2  and  C4_4 
REMARK       I    between atoms: C4_4  and  N1_6 
REMARK    2  A    between atoms: N1_6  and  C5_8 
REMARK    3  A    between atoms: C5_8  and  C6_9 
REMARK    4  A    between atoms: C6_9  and  C7_10 
REMARK       I    between atoms: N3_15  and  C10_16 
REMARK    5  A    between atoms: C10_16  and  C11_18 
REMARK       I    between atoms: N4_21  and  C14_22 
REMARK    6  A    between atoms: C18_27  and  C19_28 
REMARK       I    between atoms: C19_28  and  N5_30 
REMARK    7  A    between atoms: C21_32  and  C22_33 
REMARK    8  A    between atoms: C21_32  and  C25_36 
REMARK    9  A    between atoms: C22_33  and  C23_34 
REMARK   10  A    between atoms: C25_36  and  C26_37 
REMARK   11  A    between atoms: C30_41  and  C31_42 
REMARK       I    between atoms: C31_42  and  N6_44 
REMARK   12  A    between atoms: N6_44  and  C32_46 
ROOT
HETATM    1  C7  UNL     1       1.282 -18.725 -19.025  1.00  0.00     0.085 C 
HETATM    2  S1  UNL     1       3.021 -18.374 -19.435  1.00  0.00    -0.073 SA
HETATM    3  N2  UNL     1       3.027 -18.404 -17.646  1.00  0.00    -0.220 NA
HETATM    4  C8  UNL     1       1.618 -18.022 -17.720  1.00  0.00     0.105 C 
HETATM    5  C9  UNL     1       1.753 -16.524 -18.022  1.00  0.00     0.150 C 
HETATM    6  N3  UNL     1       2.875 -16.109 -17.224  1.00  0.00    -0.324 N 
HETATM    7  C10 UNL     1       3.070 -14.801 -16.710  1.00  0.00     0.225 C 
HETATM    8  O2  UNL     1       4.125 -14.617 -16.024  1.00  0.00    -0.273 OA
HETATM    9  C18 UNL     1       3.705 -17.260 -17.075  1.00  0.00     0.266 C 
ENDROOT
BRANCH   9  10
HETATM   10  C19 UNL     1       5.057 -17.164 -17.630  1.00  0.00     0.259 C 
HETATM   11  O4  UNL     1       5.245 -17.162 -18.885  1.00  0.00    -0.269 OA
HETATM   12  N5  UNL     1       6.172 -17.068 -16.778  1.00  0.00    -0.335 N 
HETATM   13  C20 UNL     1       6.137 -16.988 -15.333  1.00  0.00     0.136 C 
HETATM   14  C30 UNL     1       7.599 -17.034 -17.169  1.00  0.00     0.180 C 
HETATM   15  C21 UNL     1       7.515 -16.408 -14.918  1.00  0.00    -0.021 C 
HETATM   16  C29 UNL     1       8.040 -15.931 -16.214  1.00  0.00     0.046 C 
BRANCH  15  17
HETATM   17  C22 UNL     1       7.226 -15.215 -14.039  1.00  0.00     0.011 C 
BRANCH  17  18
HETATM   18  C23 UNL     1       7.114 -13.921 -14.817  1.00  0.00    -0.004 C 
HETATM   19  C24 UNL     1       6.013 -13.044 -14.269  1.00  0.00     0.005 C 
ENDBRANCH  17  18
ENDBRANCH  15  17
BRANCH  15  20
HETATM   20  C25 UNL     1       8.223 -17.502 -14.229  1.00  0.00     0.015 C 
BRANCH  20  21
HETATM   21  C26 UNL     1       9.686 -17.628 -14.382  1.00  0.00    -0.022 C 
HETATM   22  C27 UNL     1      10.248 -17.829 -12.953  1.00  0.00     0.009 C 
HETATM   23  C28 UNL     1      10.167 -18.853 -15.132  1.00  0.00     0.009 C 
ENDBRANCH  20  21
ENDBRANCH  15  20
BRANCH  14  24
HETATM   24  C31 UNL     1       7.815 -16.688 -18.567  1.00  0.00     0.240 C 
HETATM   25  O5  UNL     1       7.780 -15.483 -18.923  1.00  0.00    -0.271 OA
HETATM   26  N6  UNL     1       8.068 -17.663 -19.568  1.00  0.00    -0.360 N 
ATOM     27  H6  UNL     1       8.101 -18.648 -19.306  1.00  0.00     0.162 HD
BRANCH  26  28
HETATM   28  C32 UNL     1       8.280 -17.290 -20.959  1.00  0.00     0.118 C 
HETATM   29  C33 UNL     1       9.217 -18.209 -21.687  1.00  0.00     0.026 C 
ENDBRANCH  26  28
ENDBRANCH  14  24
ENDBRANCH   9  10
BRANCH   7  30
HETATM   30  C11 UNL     1       2.186 -13.649 -16.886  1.00  0.00     0.081 C 
HETATM   31  C12 UNL     1       2.940 -12.352 -16.543  1.00  0.00     0.034 C 
HETATM   32  C13 UNL     1       2.012 -11.208 -16.276  1.00  0.00     0.126 C 
HETATM   33  N4  UNL     1       0.706 -11.516 -16.857  1.00  0.00    -0.352 N 
HETATM   34  C14 UNL     1       0.162 -10.767 -17.912  1.00  0.00     0.215 C 
HETATM   35  C16 UNL     1      -0.013 -12.632 -16.300  1.00  0.00     0.126 C 
HETATM   36  C15 UNL     1      -1.160 -11.088 -18.498  1.00  0.00     0.117 C 
HETATM   37  O3  UNL     1       0.823  -9.796 -18.369  1.00  0.00    -0.274 OA
HETATM   38  C17 UNL     1       1.005 -13.681 -15.921  1.00  0.00     0.034 C 
ENDBRANCH   7  30
BRANCH   1  39
HETATM   39  C6  UNL     1       0.988 -20.198 -18.852  1.00  0.00     0.038 C 
BRANCH  39  40
HETATM   40  C5  UNL     1       1.482 -20.908 -20.071  1.00  0.00     0.124 C 
BRANCH  40  41
HETATM   41  N1  UNL     1       1.847 -22.282 -19.879  1.00  0.00    -0.357 N 
HETATM   42  C4  UNL     1       3.036 -22.652 -19.226  1.00  0.00     0.246 C 
HETATM   43  O1  UNL     1       3.843 -21.825 -18.773  1.00  0.00    -0.268 OA
ATOM     44  H1  UNL     1       1.226 -23.012 -20.226  1.00  0.00     0.162 HD
BRANCH  42  45
HETATM   45  C2  UNL     1       3.335 -24.078 -19.071  1.00  0.00    -0.004 C 
HETATM   46  C1  UNL     1       2.689 -24.787 -18.172  1.00  0.00     0.024 C 
HETATM   47  C3  UNL     1       4.377 -24.727 -19.918  1.00  0.00     0.053 C 
ENDBRANCH  42  45
ENDBRANCH  40  41
ENDBRANCH  39  40
ENDBRANCH   1  39
TORSDOF 12
ENDMDL
MODEL 3
REMARK VINA RESULT: -6.868101961      2.533      9.638
REMARK  12 active torsions:
REMARK  status: ('A' for Active; 'I' for Inactive)
REMARK    1  A    between atoms: C2_2  and  C4_4 
REMARK       I    between atoms: C4_4  and  N1_6 
REMARK    2  A    between atoms: N1_6  and  C5_8 
REMARK    3  A    between atoms: C5_8  and  C6_9 
REMARK    4  A    between atoms: C6_9  and  C7_10 
REMARK       I    between atoms: N3_15  and  C10_16 
REMARK    5  A    between atoms: C10_16  and  C11_18 
REMARK       I    between atoms: N4_21  and  C14_22 
REMARK    6  A    between atoms: C18_27  and  C19_28 
REMARK       I    between atoms: C19_28  and  N5_30 
REMARK    7  A    between atoms: C21_32  and  C22_33 
REMARK    8  A    between atoms: C21_32  and  C25_36 
REMARK    9  A    between atoms: C22_33  and  C23_34 
REMARK   10  A    between atoms: C25_36  and  C26_37 
REMARK   11  A    between atoms: C30_41  and  C31_42 
REMARK       I    between atoms: C31_42  and  N6_44 
REMARK   12  A    between atoms: N6_44  and  C32_46 
ROOT
HETATM    1  C7  UNL     1       8.533 -14.995 -14.090  1.00  0.00     0.085 C 
HETATM    2  S1  UNL     1       8.416 -15.106 -15.904  1.00  0.00    -0.073 SA
HETATM    3  N2  UNL     1       7.478 -16.526 -15.352  1.00  0.00    -0.220 NA
HETATM    4  C8  UNL     1       8.305 -16.496 -14.147  1.00  0.00     0.105 C 
HETATM    5  C9  UNL     1       9.592 -17.141 -14.677  1.00  0.00     0.150 C 
HETATM    6  N3  UNL     1       9.123 -18.176 -15.559  1.00  0.00    -0.324 N 
HETATM    7  C10 UNL     1       9.823 -19.374 -15.854  1.00  0.00     0.225 C 
HETATM    8  O2  UNL     1       9.253 -20.175 -16.660  1.00  0.00    -0.273 OA
HETATM    9  C18 UNL     1       7.853 -17.741 -16.044  1.00  0.00     0.266 C 
ENDROOT
BRANCH   9  10
HETATM   10  C19 UNL     1       7.744 -17.535 -17.490  1.00  0.00     0.259 C 
HETATM   11  O4  UNL     1       8.782 -17.468 -18.216  1.00  0.00    -0.269 OA
HETATM   12  N5  UNL     1       6.482 -17.413 -18.099  1.00  0.00    -0.335 N 
HETATM   13  C20 UNL     1       5.200 -17.532 -17.436  1.00  0.00     0.136 C 
HETATM   14  C30 UNL     1       6.197 -17.134 -19.524  1.00  0.00     0.180 C 
HETATM   15  C21 UNL     1       4.177 -17.816 -18.567  1.00  0.00    -0.021 C 
HETATM   16  C29 UNL     1       5.066 -18.140 -19.700  1.00  0.00     0.046 C 
BRANCH  15  17
HETATM   17  C22 UNL     1       3.430 -19.064 -18.160  1.00  0.00     0.011 C 
BRANCH  17  18
HETATM   18  C23 UNL     1       3.289 -20.063 -19.288  1.00  0.00    -0.004 C 
HETATM   19  C24 UNL     1       3.465 -21.479 -18.794  1.00  0.00     0.005 C 
ENDBRANCH  17  18
ENDBRANCH  15  17
BRANCH  15  20
HETATM   20  C25 UNL     1       3.329 -16.613 -18.656  1.00  0.00     0.015 C 
BRANCH  20  21
HETATM   21  C26 UNL     1       2.128 -16.635 -19.514  1.00  0.00    -0.022 C 
HETATM   22  C27 UNL     1       0.925 -16.391 -18.568  1.00  0.00     0.009 C 
HETATM   23  C28 UNL     1       2.021 -15.514 -20.525  1.00  0.00     0.009 C 
ENDBRANCH  20  21
ENDBRANCH  15  20
BRANCH  14  24
HETATM   24  C31 UNL     1       7.325 -17.393 -20.408  1.00  0.00     0.240 C 
HETATM   25  O5  UNL     1       7.839 -16.446 -21.055  1.00  0.00    -0.271 OA
HETATM   26  N6  UNL     1       7.883 -18.688 -20.579  1.00  0.00    -0.360 N 
ATOM     27  H6  UNL     1       7.484 -19.474 -20.066  1.00  0.00     0.162 HD
BRANCH  26  28
HETATM   28  C32 UNL     1       9.011 -18.920 -21.469  1.00  0.00     0.118 C 
HETATM   29  C33 UNL     1      10.338 -18.912 -20.766  1.00  0.00     0.026 C 
ENDBRANCH  26  28
ENDBRANCH  14  24
ENDBRANCH   9  10
BRANCH   7  30
HETATM   30  C11 UNL     1      11.126 -19.780 -15.329  1.00  0.00     0.081 C 
HETATM   31  C12 UNL     1      11.176 -19.543 -13.809  1.00  0.00     0.034 C 
HETATM   32  C13 UNL     1      12.578 -19.516 -13.284  1.00  0.00     0.126 C 
HETATM   33  N4  UNL     1      13.457 -20.170 -14.253  1.00  0.00    -0.352 N 
HETATM   34  C14 UNL     1      14.140 -21.359 -13.958  1.00  0.00     0.215 C 
HETATM   35  C16 UNL     1      13.598 -19.539 -15.539  1.00  0.00     0.126 C 
HETATM   36  C15 UNL     1      15.025 -22.017 -14.947  1.00  0.00     0.117 C 
HETATM   37  O3  UNL     1      13.992 -21.877 -12.819  1.00  0.00    -0.274 OA
HETATM   38  C17 UNL     1      12.261 -18.933 -15.894  1.00  0.00     0.034 C 
ENDBRANCH   7  30
BRANCH   1  39
HETATM   39  C6  UNL     1       7.387 -14.239 -13.457  1.00  0.00     0.038 C 
BRANCH  39  40
HETATM   40  C5  UNL     1       6.664 -13.512 -14.545  1.00  0.00     0.124 C 
BRANCH  40  41
HETATM   41  N1  UNL     1       5.462 -14.142 -15.013  1.00  0.00    -0.357 N 
HETATM   42  C4  UNL     1       4.268 -13.423 -15.195  1.00  0.00     0.246 C 
HETATM   43  O1  UNL     1       4.170 -12.207 -14.968  1.00  0.00    -0.268 OA
ATOM     44  H1  UNL     1       5.476 -15.140 -15.221  1.00  0.00     0.162 HD
BRANCH  42  45
HETATM   45  C2  UNL     1       3.085 -14.142 -15.676  1.00  0.00    -0.004 C 
HETATM   46  C1  UNL     1       2.301 -13.584 -16.572  1.00  0.00     0.024 C 
HETATM   47  C3  UNL     1       2.759 -15.498 -15.147  1.00  0.00     0.053 C 
ENDBRANCH  42  45
ENDBRANCH  40  41
ENDBRANCH  39  40
ENDBRANCH   1  39
TORSDOF 12
ENDMDL
MODEL 4
REMARK VINA RESULT: -6.770780263      2.525      9.642
REMARK  12 active torsions:
REMARK  status: ('A' for Active; 'I' for Inactive)
REMARK    1  A    between atoms: C2_2  and  C4_4 
REMARK       I    between atoms: C4_4  and  N1_6 
REMARK    2  A    between atoms: N1_6  and  C5_8 
REMARK    3  A    between atoms: C5_8  and  C6_9 
REMARK    4  A    between atoms: C6_9  and  C7_10 
REMARK       I    between atoms: N3_15  and  C10_16 
REMARK    5  A    between atoms: C10_16  and  C11_18 
REMARK       I    between atoms: N4_21  and  C14_22 
REMARK    6  A    between atoms: C18_27  and  C19_28 
REMARK       I    between atoms: C19_28  and  N5_30 
REMARK    7  A    between atoms: C21_32  and  C22_33 
REMARK    8  A    between atoms: C21_32  and  C25_36 
REMARK    9  A    between atoms: C22_33  and  C23_34 
REMARK   10  A    between atoms: C25_36  and  C26_37 
REMARK   11  A    between atoms: C30_41  and  C31_42 
REMARK       I    between atoms: C31_42  and  N6_44 
REMARK   12  A    between atoms: N6_44  and  C32_46 
ROOT
HETATM    1  C7  UNL     1       7.847 -14.561 -14.419  1.00  0.00     0.085 C 
HETATM    2  S1  UNL     1       7.960 -14.818 -16.219  1.00  0.00    -0.073 SA
HETATM    3  N2  UNL     1       6.953 -16.193 -15.678  1.00  0.00    -0.220 NA
HETATM    4  C8  UNL     1       7.620 -16.062 -14.384  1.00  0.00     0.105 C 
HETATM    5  C9  UNL     1       8.961 -16.741 -14.694  1.00  0.00     0.150 C 
HETATM    6  N3  UNL     1       8.602 -17.846 -15.542  1.00  0.00    -0.324 N 
HETATM    7  C10 UNL     1       9.327 -19.060 -15.649  1.00  0.00     0.225 C 
HETATM    8  O2  UNL     1       8.860 -19.927 -16.454  1.00  0.00    -0.273 OA
HETATM    9  C18 UNL     1       7.406 -17.458 -16.217  1.00  0.00     0.266 C 
ENDROOT
BRANCH   9  10
HETATM   10  C19 UNL     1       7.482 -17.370 -17.677  1.00  0.00     0.259 C 
HETATM   11  O4  UNL     1       8.595 -17.190 -18.259  1.00  0.00    -0.269 OA
HETATM   12  N5  UNL     1       6.320 -17.487 -18.460  1.00  0.00    -0.335 N 
HETATM   13  C20 UNL     1       4.985 -17.760 -17.969  1.00  0.00     0.136 C 
HETATM   14  C30 UNL     1       6.210 -17.352 -19.930  1.00  0.00     0.180 C 
HETATM   15  C21 UNL     1       4.191 -18.276 -19.197  1.00  0.00    -0.021 C 
HETATM   16  C29 UNL     1       5.275 -18.532 -20.167  1.00  0.00     0.046 C 
BRANCH  15  17
HETATM   17  C22 UNL     1       3.582 -19.594 -18.786  1.00  0.00     0.011 C 
BRANCH  17  18
HETATM   18  C23 UNL     1       2.444 -20.026 -19.687  1.00  0.00    -0.004 C 
HETATM   19  C24 UNL     1       2.211 -21.516 -19.602  1.00  0.00     0.005 C 
ENDBRANCH  17  18
ENDBRANCH  15  17
BRANCH  15  20
HETATM   20  C25 UNL     1       3.200 -17.228 -19.508  1.00  0.00     0.015 C 
BRANCH  20  21
HETATM   21  C26 UNL     1       2.625 -16.426 -18.410  1.00  0.00    -0.022 C 
HETATM   22  C27 UNL     1       2.510 -14.980 -18.954  1.00  0.00     0.009 C 
HETATM   23  C28 UNL     1       1.206 -16.775 -18.014  1.00  0.00     0.009 C 
ENDBRANCH  20  21
ENDBRANCH  15  20
BRANCH  14  24
HETATM   24  C31 UNL     1       7.481 -17.491 -20.626  1.00  0.00     0.240 C 
HETATM   25  O5  UNL     1       7.937 -16.525 -21.288  1.00  0.00    -0.271 OA
HETATM   26  N6  UNL     1       8.246 -18.688 -20.594  1.00  0.00    -0.360 N 
ATOM     27  H6  UNL     1       7.899 -19.487 -20.065  1.00  0.00     0.162 HD
BRANCH  26  28
HETATM   28  C32 UNL     1       9.514 -18.800 -21.300  1.00  0.00     0.118 C 
HETATM   29  C33 UNL     1      10.689 -19.005 -20.387  1.00  0.00     0.026 C 
ENDBRANCH  26  28
ENDBRANCH  14  24
ENDBRANCH   9  10
BRANCH   7  30
HETATM   30  C11 UNL     1      10.551 -19.417 -14.931  1.00  0.00     0.081 C 
HETATM   31  C12 UNL     1      10.634 -18.629 -13.612  1.00  0.00     0.034 C 
HETATM   32  C13 UNL     1      12.023 -18.604 -13.051  1.00  0.00     0.126 C 
HETATM   33  N4  UNL     1      12.792 -19.694 -13.649  1.00  0.00    -0.352 N 
HETATM   34  C14 UNL     1      13.283 -20.766 -12.889  1.00  0.00     0.215 C 
HETATM   35  C16 UNL     1      13.031 -19.627 -15.067  1.00  0.00     0.126 C 
HETATM   36  C15 UNL     1      14.058 -21.870 -13.502  1.00  0.00     0.117 C 
HETATM   37  O3  UNL     1      13.054 -20.785 -11.650  1.00  0.00    -0.274 OA
HETATM   38  C17 UNL     1      11.804 -19.019 -15.704  1.00  0.00     0.034 C 
ENDBRANCH   7  30
BRANCH   1  39
HETATM   39  C6  UNL     1       6.634 -13.762 -14.000  1.00  0.00     0.038 C 
BRANCH  39  40
HETATM   40  C5  UNL     1       5.851 -13.441 -15.232  1.00  0.00     0.124 C 
BRANCH  40  41
HETATM   41  N1  UNL     1       4.536 -14.014 -15.293  1.00  0.00    -0.357 N 
HETATM   42  C4  UNL     1       3.383 -13.220 -15.423  1.00  0.00     0.246 C 
HETATM   43  O1  UNL     1       3.421 -11.982 -15.494  1.00  0.00    -0.268 OA
ATOM     44  H1  UNL     1       4.436 -15.027 -15.241  1.00  0.00     0.162 HD
BRANCH  42  45
HETATM   45  C2  UNL     1       2.079 -13.885 -15.477  1.00  0.00    -0.004 C 
HETATM   46  C1  UNL     1       1.069 -13.294 -16.076  1.00  0.00     0.024 C 
HETATM   47  C3  UNL     1       1.886 -15.222 -14.845  1.00  0.00     0.053 C 
ENDBRANCH  42  45
ENDBRANCH  40  41
ENDBRANCH  39  40
ENDBRANCH   1  39
TORSDOF 12
ENDMDL
MODEL 5
REMARK VINA RESULT: -6.644211319      3.561      8.775
REMARK  12 active torsions:
REMARK  status: ('A' for Active; 'I' for Inactive)
REMARK    1  A    between atoms: C2_2  and  C4_4 
REMARK       I    between atoms: C4_4  and  N1_6 
REMARK    2  A    between atoms: N1_6  and  C5_8 
REMARK    3  A    between atoms: C5_8  and  C6_9 
REMARK    4  A    between atoms: C6_9  and  C7_10 
REMARK       I    between atoms: N3_15  and  C10_16 
REMARK    5  A    between atoms: C10_16  and  C11_18 
REMARK       I    between atoms: N4_21  and  C14_22 
REMARK    6  A    between atoms: C18_27  and  C19_28 
REMARK       I    between atoms: C19_28  and  N5_30 
REMARK    7  A    between atoms: C21_32  and  C22_33 
REMARK    8  A    between atoms: C21_32  and  C25_36 
REMARK    9  A    between atoms: C22_33  and  C23_34 
REMARK   10  A    between atoms: C25_36  and  C26_37 
REMARK   11  A    between atoms: C30_41  and  C31_42 
REMARK       I    between atoms: C31_42  and  N6_44 
REMARK   12  A    between atoms: N6_44  and  C32_46 
ROOT
HETATM    1  C7  UNL     1       2.834 -19.947 -19.138  1.00  0.00     0.085 C 
HETATM    2  S1  UNL     1       2.740 -18.700 -17.815  1.00  0.00    -0.073 SA
HETATM    3  N2  UNL     1       3.205 -17.733 -19.246  1.00  0.00    -0.220 NA
HETATM    4  C8  UNL     1       3.798 -18.960 -19.775  1.00  0.00     0.105 C 
HETATM    5  C9  UNL     1       5.105 -19.005 -18.973  1.00  0.00     0.150 C 
HETATM    6  N3  UNL     1       5.516 -17.628 -18.904  1.00  0.00    -0.324 N 
HETATM    7  C10 UNL     1       6.858 -17.184 -18.785  1.00  0.00     0.225 C 
HETATM    8  O2  UNL     1       7.032 -15.925 -18.736  1.00  0.00    -0.273 OA
HETATM    9  C18 UNL     1       4.322 -16.851 -18.981  1.00  0.00     0.266 C 
ENDROOT
BRANCH   9  10
HETATM   10  C19 UNL     1       4.017 -16.009 -17.822  1.00  0.00     0.259 C 
HETATM   11  O4  UNL     1       4.634 -16.167 -16.725  1.00  0.00    -0.269 OA
HETATM   12  N5  UNL     1       3.034 -15.007 -17.908  1.00  0.00    -0.335 N 
HETATM   13  C20 UNL     1       2.285 -14.646 -19.094  1.00  0.00     0.136 C 
HETATM   14  C30 UNL     1       2.557 -14.122 -16.822  1.00  0.00     0.180 C 
HETATM   15  C21 UNL     1       1.733 -13.224 -18.816  1.00  0.00    -0.021 C 
HETATM   16  C29 UNL     1       2.512 -12.829 -17.626  1.00  0.00     0.046 C 
BRANCH  15  17
HETATM   17  C22 UNL     1       2.158 -12.368 -19.985  1.00  0.00     0.011 C 
BRANCH  17  18
HETATM   18  C23 UNL     1       2.390 -13.167 -21.249  1.00  0.00    -0.004 C 
HETATM   19  C24 UNL     1       2.735 -12.267 -22.412  1.00  0.00     0.005 C 
ENDBRANCH  17  18
ENDBRANCH  15  17
BRANCH  15  20
HETATM   20  C25 UNL     1       0.272 -13.376 -18.684  1.00  0.00     0.015 C 
BRANCH  20  21
HETATM   21  C26 UNL     1      -0.370 -14.629 -19.128  1.00  0.00    -0.022 C 
HETATM   22  C27 UNL     1      -1.323 -15.049 -17.982  1.00  0.00     0.009 C 
HETATM   23  C28 UNL     1      -1.284 -14.510 -20.329  1.00  0.00     0.009 C 
ENDBRANCH  20  21
ENDBRANCH  15  20
BRANCH  14  24
HETATM   24  C31 UNL     1       3.466 -14.049 -15.686  1.00  0.00     0.240 C 
HETATM   25  O5  UNL     1       3.175 -14.643 -14.617  1.00  0.00    -0.271 OA
HETATM   26  N6  UNL     1       4.687 -13.325 -15.727  1.00  0.00    -0.360 N 
ATOM     27  H6  UNL     1       4.947 -12.833 -16.582  1.00  0.00     0.162 HD
BRANCH  26  28
HETATM   28  C32 UNL     1       5.578 -13.267 -14.576  1.00  0.00     0.118 C 
HETATM   29  C33 UNL     1       6.708 -14.253 -14.648  1.00  0.00     0.026 C 
ENDBRANCH  26  28
ENDBRANCH  14  24
ENDBRANCH   9  10
BRANCH   7  30
HETATM   30  C11 UNL     1       8.056 -18.021 -18.713  1.00  0.00     0.081 C 
HETATM   31  C12 UNL     1       9.042 -17.437 -17.685  1.00  0.00     0.034 C 
HETATM   32  C13 UNL     1      10.431 -17.964 -17.868  1.00  0.00     0.126 C 
HETATM   33  N4  UNL     1      10.368 -19.200 -18.648  1.00  0.00    -0.352 N 
HETATM   34  C14 UNL     1      10.745 -20.441 -18.112  1.00  0.00     0.215 C 
HETATM   35  C16 UNL     1       9.896 -19.096 -20.004  1.00  0.00     0.126 C 
HETATM   36  C15 UNL     1      10.674 -21.689 -18.907  1.00  0.00     0.117 C 
HETATM   37  O3  UNL     1      11.156 -20.488 -16.922  1.00  0.00    -0.274 OA
HETATM   38  C17 UNL     1       8.824 -18.032 -20.029  1.00  0.00     0.034 C 
ENDBRANCH   7  30
BRANCH   1  39
HETATM   39  C6  UNL     1       1.543 -20.106 -19.910  1.00  0.00     0.038 C 
BRANCH  39  40
HETATM   40  C5  UNL     1       1.018 -21.480 -19.642  1.00  0.00     0.124 C 
BRANCH  40  41
HETATM   41  N1  UNL     1       1.998 -22.529 -19.662  1.00  0.00    -0.357 N 
HETATM   42  C4  UNL     1       2.280 -23.261 -20.828  1.00  0.00     0.246 C 
HETATM   43  O1  UNL     1       1.709 -23.054 -21.911  1.00  0.00    -0.268 OA
ATOM     44  H1  UNL     1       2.506 -22.748 -18.805  1.00  0.00     0.162 HD
BRANCH  42  45
HETATM   45  C2  UNL     1       3.295 -24.316 -20.764  1.00  0.00    -0.004 C 
HETATM   46  C1  UNL     1       4.129 -24.360 -19.748  1.00  0.00     0.024 C 
HETATM   47  C3  UNL     1       3.396 -25.334 -21.850  1.00  0.00     0.053 C 
ENDBRANCH  42  45
ENDBRANCH  40  41
ENDBRANCH  39  40
ENDBRANCH   1  39
TORSDOF 12
ENDMDL
