MODEL 1
REMARK VINA RESULT: -2.095296703      0.000      0.000
REMARK  15 active torsions:
REMARK  status: ('A' for Active; 'I' for Inactive)
REMARK       I    between atoms: C2_2  and  N1_4 
REMARK    1  A    between atoms: N1_4  and  C3_6 
REMARK    2  A    between atoms: C3_6  and  C4_7 
REMARK    3  A    between atoms: C4_7  and  O2_8 
REMARK    4  A    between atoms: C4_7  and  C5_10 
REMARK    5  A    between atoms: C5_10  and  O3_11 
REMARK    6  A    between atoms: C5_10  and  C6_13 
REMARK    7  A    between atoms: C9_17  and  N2_18 
REMARK    8  A    between atoms: N2_18  and  O5_19 
REMARK    9  A    between atoms: N2_18  and  O6_21 
REMARK   10  A    between atoms: C10_23  and  O7_24 
REMARK   11  A    between atoms: C11_26  and  O8_27 
REMARK   12  A    between atoms: C13_30  and  N3_31 
REMARK   13  A    between atoms: N3_31  and  N4_33 
REMARK       I    between atoms: N4_33  and  C14_34 
REMARK   14  A    between atoms: N4_33  and  N5_37 
REMARK   15  A    between atoms: C16_44  and  N9_45 
ROOT
HETATM    1  C6  UNL     1      14.024   8.563  39.260  1.00  0.00     0.137 A 
HETATM    2  O4  UNL     1      13.052   9.380  38.958  1.00  0.00    -0.305 OA
HETATM    3  C7  UNL     1      13.248  10.597  39.344  1.00  0.00     0.093 A 
HETATM    4  C8  UNL     1      12.506  11.771  39.237  1.00  0.00     0.069 A 
HETATM    5  C9  UNL     1      12.926  12.980  39.731  1.00  0.00     0.104 A 
HETATM    6  C10 UNL     1      14.149  13.023  40.363  1.00  0.00     0.126 A 
HETATM    7  C11 UNL     1      14.899  11.856  40.477  1.00  0.00     0.116 A 
HETATM    8  C12 UNL     1      14.477  10.638  39.982  1.00  0.00     0.065 A 
HETATM    9  C13 UNL     1      14.970   9.350  39.932  1.00  0.00     0.102 A 
ENDROOT
BRANCH   9  10
HETATM   10  N3  UNL     1      16.198   8.918  40.499  1.00  0.00    -0.271 N 
ATOM     11  H3  UNL     1      16.202   8.540  41.446  1.00  0.00     0.189 HD
BRANCH  10  12
HETATM   12  N4  UNL     1      17.394   8.997  39.795  1.00  0.00    -0.123 N 
HETATM   13  C14 UNL     1      18.488   9.820  40.160  1.00  0.00     0.256 C 
HETATM   14  C15 UNL     1      19.735   9.780  39.387  1.00  0.00     0.121 C 
HETATM   15  O9  UNL     1      18.440  10.605  41.139  1.00  0.00    -0.270 OA
BRANCH  12  16
HETATM   16  N5  UNL     1      17.560   8.180  38.664  1.00  0.00     0.021 N 
HETATM   17  N6  UNL     1      17.445   8.586  37.385  1.00  0.00    -0.189 N 
HETATM   18  N7  UNL     1      17.646   7.570  36.580  1.00  0.00    -0.212 N 
ATOM     19  H6  UNL     1      17.234   9.539  37.088  1.00  0.00     0.212 HD
HETATM   20  N8  UNL     1      17.890   6.501  37.301  1.00  0.00    -0.114 N 
ATOM     21  H7  UNL     1      17.618   7.606  35.561  1.00  0.00     0.210 HD
HETATM   22  C16 UNL     1      17.838   6.880  38.599  1.00  0.00     0.731 A 
ATOM     23  H8  UNL     1      18.084   5.563  36.949  1.00  0.00     0.207 HD
BRANCH  22  24
HETATM   24  N9  UNL     1      18.020   6.085  39.598  1.00  0.00    -0.230 N 
ATOM     25  H92 UNL     1      17.738   6.290  40.557  1.00  0.00     0.174 HD
ATOM     26  H91 UNL     1      18.469   5.169  39.570  1.00  0.00     0.174 HD
ENDBRANCH  22  24
ENDBRANCH  12  16
ENDBRANCH  10  12
ENDBRANCH   9  10
BRANCH   1  27
HETATM   27  C5  UNL     1      14.139   7.121  38.960  1.00  0.00     0.109 C 
BRANCH  27  28
HETATM   28  C4  UNL     1      13.979   6.167  40.072  1.00  0.00     0.195 C 
BRANCH  28  29
HETATM   29  C3  UNL     1      14.955   5.003  40.053  1.00  0.00     0.161 C 
BRANCH  29  30
HETATM   30  N1  UNL     1      15.295   4.664  41.405  1.00  0.00    -0.359 N 
HETATM   31  C2  UNL     1      16.005   5.534  42.249  1.00  0.00     0.213 C 
HETATM   32  C1  UNL     1      16.285   5.043  43.653  1.00  0.00     0.117 C 
HETATM   33  O1  UNL     1      16.422   6.675  41.940  1.00  0.00    -0.274 OA
ATOM     34  H1  UNL     1      15.009   3.754  41.769  1.00  0.00     0.162 HD
ENDBRANCH  29  30
ENDBRANCH  28  29
BRANCH  28  35
HETATM   35  O2  UNL     1      12.705   5.532  40.057  1.00  0.00    -0.387 OA
ATOM     36  H2  UNL     1      12.095   6.258  40.120  1.00  0.00     0.210 HD
ENDBRANCH  28  35
ENDBRANCH  27  28
BRANCH  27  37
HETATM   37  O3  UNL     1      15.059   6.757  38.028  1.00  0.00    -0.359 OA
ATOM     38  H3  UNL     1      14.742   6.764  37.132  1.00  0.00     0.217 HD
ENDBRANCH  27  37
ENDBRANCH   1  27
BRANCH   7  39
HETATM   39  O8  UNL     1      16.105  11.967  41.119  1.00  0.00    -0.357 OA
ATOM     40  H8  UNL     1      16.811  11.424  40.788  1.00  0.00     0.217 HD
ENDBRANCH   7  39
BRANCH   6  41
HETATM   41  O7  UNL     1      14.573  14.246  40.861  1.00  0.00    -0.356 OA
ATOM     42  H7  UNL     1      15.149  14.769  40.315  1.00  0.00     0.218 HD
ENDBRANCH   6  41
BRANCH   5  43
HETATM   43  N2  UNL     1      12.133  14.169  39.580  1.00  0.00    -0.033 NA
BRANCH  43  44
HETATM   44  O5  UNL     1      12.917  15.245  39.491  1.00  0.00    -0.284 OA
ATOM     45  H5  UNL     1      12.427  16.031  39.702  1.00  0.00     0.240 HD
ENDBRANCH  43  44
BRANCH  43  46
HETATM   46  O6  UNL     1      11.223  14.244  40.591  1.00  0.00    -0.284 OA
ATOM     47  H6  UNL     1      10.558  14.886  40.374  1.00  0.00     0.240 HD
ENDBRANCH  43  46
ENDBRANCH   5  43
TORSDOF 15
ENDMDL
MODEL 2
REMARK VINA RESULT: -1.775020995      3.000      7.457
REMARK  15 active torsions:
REMARK  status: ('A' for Active; 'I' for Inactive)
REMARK       I    between atoms: C2_2  and  N1_4 
REMARK    1  A    between atoms: N1_4  and  C3_6 
REMARK    2  A    between atoms: C3_6  and  C4_7 
REMARK    3  A    between atoms: C4_7  and  O2_8 
REMARK    4  A    between atoms: C4_7  and  C5_10 
REMARK    5  A    between atoms: C5_10  and  O3_11 
REMARK    6  A    between atoms: C5_10  and  C6_13 
REMARK    7  A    between atoms: C9_17  and  N2_18 
REMARK    8  A    between atoms: N2_18  and  O5_19 
REMARK    9  A    between atoms: N2_18  and  O6_21 
REMARK   10  A    between atoms: C10_23  and  O7_24 
REMARK   11  A    between atoms: C11_26  and  O8_27 
REMARK   12  A    between atoms: C13_30  and  N3_31 
REMARK   13  A    between atoms: N3_31  and  N4_33 
REMARK       I    between atoms: N4_33  and  C14_34 
REMARK   14  A    between atoms: N4_33  and  N5_37 
REMARK   15  A    between atoms: C16_44  and  N9_45 
ROOT
HETATM    1  C6  UNL     1      16.553  11.950  40.376  1.00  0.00     0.137 A 
HETATM    2  O4  UNL     1      17.569  11.135  40.276  1.00  0.00    -0.305 OA
HETATM    3  C7  UNL     1      17.237   9.894  40.146  1.00  0.00     0.093 A 
HETATM    4  C8  UNL     1      17.964   8.714  40.005  1.00  0.00     0.069 A 
HETATM    5  C9  UNL     1      17.384   7.477  39.876  1.00  0.00     0.104 A 
HETATM    6  C10 UNL     1      16.009   7.412  39.886  1.00  0.00     0.126 A 
HETATM    7  C11 UNL     1      15.271   8.585  40.028  1.00  0.00     0.116 A 
HETATM    8  C12 UNL     1      15.853   9.830  40.160  1.00  0.00     0.065 A 
HETATM    9  C13 UNL     1      15.418  11.130  40.307  1.00  0.00     0.102 A 
ENDROOT
BRANCH   9  10
HETATM   10  N3  UNL     1      14.061  11.536  40.408  1.00  0.00    -0.271 N 
ATOM     11  H3  UNL     1      13.571  11.419  41.294  1.00  0.00     0.189 HD
BRANCH  10  12
HETATM   12  N4  UNL     1      13.384  12.088  39.327  1.00  0.00    -0.123 N 
HETATM   13  C14 UNL     1      12.730  13.344  39.344  1.00  0.00     0.256 C 
HETATM   14  C15 UNL     1      12.100  13.870  38.128  1.00  0.00     0.121 C 
HETATM   15  O9  UNL     1      12.660  14.050  40.381  1.00  0.00    -0.270 OA
BRANCH  12  16
HETATM   16  N5  UNL     1      13.372  11.380  38.112  1.00  0.00     0.021 N 
HETATM   17  N6  UNL     1      13.976  11.775  36.975  1.00  0.00    -0.189 N 
HETATM   18  N7  UNL     1      13.754  10.893  36.029  1.00  0.00    -0.212 N 
ATOM     19  H6  UNL     1      14.523  12.628  36.866  1.00  0.00     0.212 HD
HETATM   20  N8  UNL     1      13.015   9.925  36.518  1.00  0.00    -0.114 N 
ATOM     21  H7  UNL     1      14.100  10.950  35.072  1.00  0.00     0.210 HD
HETATM   22  C16 UNL     1      12.777  10.228  37.816  1.00  0.00     0.731 A 
ATOM     23  H8  UNL     1      12.684   9.101  36.016  1.00  0.00     0.207 HD
BRANCH  22  24
HETATM   24  N9  UNL     1      12.072   9.502  38.616  1.00  0.00    -0.230 N 
ATOM     25  H92 UNL     1      11.473   9.872  39.353  1.00  0.00     0.174 HD
ATOM     26  H91 UNL     1      12.025   8.483  38.627  1.00  0.00     0.174 HD
ENDBRANCH  22  24
ENDBRANCH  12  16
ENDBRANCH  10  12
ENDBRANCH   9  10
BRANCH   1  27
HETATM   27  C5  UNL     1      16.565  13.420  40.518  1.00  0.00     0.109 C 
BRANCH  27  28
HETATM   28  C4  UNL     1      15.535  14.043  41.369  1.00  0.00     0.195 C 
BRANCH  28  29
HETATM   29  C3  UNL     1      15.548  15.561  41.368  1.00  0.00     0.161 C 
BRANCH  29  30
HETATM   30  N1  UNL     1      16.907  16.012  41.460  1.00  0.00    -0.359 N 
HETATM   31  C2  UNL     1      17.530  16.293  42.689  1.00  0.00     0.213 C 
HETATM   32  C1  UNL     1      18.971  16.752  42.631  1.00  0.00     0.117 C 
HETATM   33  O1  UNL     1      16.998  16.194  43.819  1.00  0.00    -0.274 OA
ATOM     34  H1  UNL     1      17.443  16.132  40.601  1.00  0.00     0.162 HD
ENDBRANCH  29  30
ENDBRANCH  28  29
BRANCH  28  35
HETATM   35  O2  UNL     1      15.700  13.710  42.743  1.00  0.00    -0.387 OA
ATOM     36  H2  UNL     1      15.605  12.765  42.755  1.00  0.00     0.210 HD
ENDBRANCH  28  35
ENDBRANCH  27  28
BRANCH  27  37
HETATM   37  O3  UNL     1      16.905  14.142  39.417  1.00  0.00    -0.359 OA
ATOM     38  H3  UNL     1      17.021  13.628  38.626  1.00  0.00     0.217 HD
ENDBRANCH  27  37
ENDBRANCH   1  27
BRANCH   7  39
HETATM   39  O8  UNL     1      13.907   8.449  40.033  1.00  0.00    -0.357 OA
ATOM     40  H8  UNL     1      13.564   7.619  39.724  1.00  0.00     0.217 HD
ENDBRANCH   7  39
BRANCH   6  41
HETATM   41  O7  UNL     1      15.423   6.162  39.754  1.00  0.00    -0.356 OA
ATOM     42  H7  UNL     1      15.104   5.739  40.543  1.00  0.00     0.218 HD
ENDBRANCH   6  41
BRANCH   5  43
HETATM   43  N2  UNL     1      18.177   6.290  39.713  1.00  0.00    -0.033 NA
BRANCH  43  44
HETATM   44  O5  UNL     1      18.144   5.877  38.445  1.00  0.00    -0.284 OA
ATOM     45  H5  UNL     1      18.864   6.255  37.954  1.00  0.00     0.240 HD
ENDBRANCH  43  44
BRANCH  43  46
HETATM   46  O6  UNL     1      17.768   5.342  40.602  1.00  0.00    -0.284 OA
ATOM     47  H6  UNL     1      18.187   4.513  40.399  1.00  0.00     0.240 HD
ENDBRANCH  43  46
ENDBRANCH   5  43
TORSDOF 15
ENDMDL
MODEL 3
REMARK VINA RESULT: -1.586272290      1.619      5.830
REMARK  15 active torsions:
REMARK  status: ('A' for Active; 'I' for Inactive)
REMARK       I    between atoms: C2_2  and  N1_4 
REMARK    1  A    between atoms: N1_4  and  C3_6 
REMARK    2  A    between atoms: C3_6  and  C4_7 
REMARK    3  A    between atoms: C4_7  and  O2_8 
REMARK    4  A    between atoms: C4_7  and  C5_10 
REMARK    5  A    between atoms: C5_10  and  O3_11 
REMARK    6  A    between atoms: C5_10  and  C6_13 
REMARK    7  A    between atoms: C9_17  and  N2_18 
REMARK    8  A    between atoms: N2_18  and  O5_19 
REMARK    9  A    between atoms: N2_18  and  O6_21 
REMARK   10  A    between atoms: C10_23  and  O7_24 
REMARK   11  A    between atoms: C11_26  and  O8_27 
REMARK   12  A    between atoms: C13_30  and  N3_31 
REMARK   13  A    between atoms: N3_31  and  N4_33 
REMARK       I    between atoms: N4_33  and  C14_34 
REMARK   14  A    between atoms: N4_33  and  N5_37 
REMARK   15  A    between atoms: C16_44  and  N9_45 
ROOT
HETATM    1  C6  UNL     1      13.979   9.745  38.720  1.00  0.00     0.137 A 
HETATM    2  O4  UNL     1      13.203   8.712  38.527  1.00  0.00    -0.305 OA
HETATM    3  C7  UNL     1      13.562   7.656  39.178  1.00  0.00     0.093 A 
HETATM    4  C8  UNL     1      13.047   6.366  39.277  1.00  0.00     0.069 A 
HETATM    5  C9  UNL     1      13.607   5.383  40.052  1.00  0.00     0.104 A 
HETATM    6  C10 UNL     1      14.739   5.701  40.769  1.00  0.00     0.126 A 
HETATM    7  C11 UNL     1      15.265   6.988  40.677  1.00  0.00     0.116 A 
HETATM    8  C12 UNL     1      14.703   7.978  39.895  1.00  0.00     0.065 A 
HETATM    9  C13 UNL     1      14.970   9.299  39.605  1.00  0.00     0.102 A 
ENDROOT
BRANCH   9  10
HETATM   10  N3  UNL     1      16.076  10.041  40.097  1.00  0.00    -0.271 N 
ATOM     11  H3  UNL     1      15.912  10.804  40.753  1.00  0.00     0.189 HD
BRANCH  10  12
HETATM   12  N4  UNL     1      17.378   9.753  39.706  1.00  0.00    -0.123 N 
HETATM   13  C14 UNL     1      18.537  10.339  40.273  1.00  0.00     0.256 C 
HETATM   14  C15 UNL     1      19.872   9.916  39.836  1.00  0.00     0.121 C 
HETATM   15  O9  UNL     1      18.474  11.231  41.156  1.00  0.00    -0.270 OA
BRANCH  12  16
HETATM   16  N5  UNL     1      17.579   8.784  38.708  1.00  0.00     0.021 N 
HETATM   17  N6  UNL     1      17.457   8.993  37.383  1.00  0.00    -0.189 N 
HETATM   18  N7  UNL     1      17.697   7.877  36.736  1.00  0.00    -0.212 N 
ATOM     19  H6  UNL     1      17.215   9.883  36.948  1.00  0.00     0.212 HD
HETATM   20  N8  UNL     1      17.973   6.935  37.607  1.00  0.00    -0.114 N 
ATOM     21  H7  UNL     1      17.672   7.761  35.724  1.00  0.00     0.210 HD
HETATM   22  C16 UNL     1      17.901   7.499  38.836  1.00  0.00     0.731 A 
ATOM     23  H8  UNL     1      18.200   5.963  37.398  1.00  0.00     0.207 HD
BRANCH  22  24
HETATM   24  N9  UNL     1      18.105   6.867  39.941  1.00  0.00    -0.230 N 
ATOM     25  H92 UNL     1      17.580   7.026  40.801  1.00  0.00     0.174 HD
ATOM     26  H91 UNL     1      18.808   6.146  40.106  1.00  0.00     0.174 HD
ENDBRANCH  22  24
ENDBRANCH  12  16
ENDBRANCH  10  12
ENDBRANCH   9  10
BRANCH   1  27
HETATM   27  C5  UNL     1      13.856  11.104  38.154  1.00  0.00     0.109 C 
BRANCH  27  28
HETATM   28  C4  UNL     1      13.311  12.168  39.017  1.00  0.00     0.195 C 
BRANCH  28  29
HETATM   29  C3  UNL     1      14.041  12.346  40.337  1.00  0.00     0.161 C 
BRANCH  29  30
HETATM   30  N1  UNL     1      14.918  13.477  40.231  1.00  0.00    -0.359 N 
HETATM   31  C2  UNL     1      15.622  13.995  41.331  1.00  0.00     0.213 C 
HETATM   32  C1  UNL     1      16.517  15.187  41.065  1.00  0.00     0.117 C 
HETATM   33  O1  UNL     1      15.575  13.556  42.503  1.00  0.00    -0.274 OA
ATOM     34  H1  UNL     1      15.035  13.922  39.320  1.00  0.00     0.162 HD
ENDBRANCH  29  30
ENDBRANCH  28  29
BRANCH  28  35
HETATM   35  O2  UNL     1      11.969  11.905  39.413  1.00  0.00    -0.387 OA
ATOM     36  H2  UNL     1      11.635  11.358  38.711  1.00  0.00     0.210 HD
ENDBRANCH  28  35
ENDBRANCH  27  28
BRANCH  27  37
HETATM   37  O3  UNL     1      13.499  11.196  36.845  1.00  0.00    -0.359 OA
ATOM     38  H3  UNL     1      14.227  11.262  36.238  1.00  0.00     0.217 HD
ENDBRANCH  27  37
ENDBRANCH   1  27
BRANCH   7  39
HETATM   39  O8  UNL     1      16.394   7.238  41.413  1.00  0.00    -0.357 OA
ATOM     40  H8  UNL     1      16.896   8.006  41.167  1.00  0.00     0.217 HD
ENDBRANCH   7  39
BRANCH   6  41
HETATM   41  O7  UNL     1      15.305   4.708  41.554  1.00  0.00    -0.356 OA
ATOM     42  H7  UNL     1      16.205   4.827  41.835  1.00  0.00     0.218 HD
ENDBRANCH   6  41
BRANCH   5  43
HETATM   43  N2  UNL     1      13.026   4.071  40.137  1.00  0.00    -0.033 NA
BRANCH  43  44
HETATM   44  O5  UNL     1      13.807   3.261  40.854  1.00  0.00    -0.284 OA
ATOM     45  H5  UNL     1      14.595   3.044  40.369  1.00  0.00     0.240 HD
ENDBRANCH  43  44
BRANCH  43  46
HETATM   46  O6  UNL     1      12.767   3.604  38.884  1.00  0.00    -0.284 OA
ATOM     47  H6  UNL     1      12.116   2.913  38.930  1.00  0.00     0.240 HD
ENDBRANCH  43  46
ENDBRANCH   5  43
TORSDOF 15
ENDMDL
MODEL 4
REMARK VINA RESULT: -0.990264431      1.217      1.626
REMARK  15 active torsions:
REMARK  status: ('A' for Active; 'I' for Inactive)
REMARK       I    between atoms: C2_2  and  N1_4 
REMARK    1  A    between atoms: N1_4  and  C3_6 
REMARK    2  A    between atoms: C3_6  and  C4_7 
REMARK    3  A    between atoms: C4_7  and  O2_8 
REMARK    4  A    between atoms: C4_7  and  C5_10 
REMARK    5  A    between atoms: C5_10  and  O3_11 
REMARK    6  A    between atoms: C5_10  and  C6_13 
REMARK    7  A    between atoms: C9_17  and  N2_18 
REMARK    8  A    between atoms: N2_18  and  O5_19 
REMARK    9  A    between atoms: N2_18  and  O6_21 
REMARK   10  A    between atoms: C10_23  and  O7_24 
REMARK   11  A    between atoms: C11_26  and  O8_27 
REMARK   12  A    between atoms: C13_30  and  N3_31 
REMARK   13  A    between atoms: N3_31  and  N4_33 
REMARK       I    between atoms: N4_33  and  C14_34 
REMARK   14  A    between atoms: N4_33  and  N5_37 
REMARK   15  A    between atoms: C16_44  and  N9_45 
ROOT
HETATM    1  C6  UNL     1      14.096   8.837  39.292  1.00  0.00     0.137 A 
HETATM    2  O4  UNL     1      13.140   9.676  38.997  1.00  0.00    -0.305 OA
HETATM    3  C7  UNL     1      13.346  10.879  39.423  1.00  0.00     0.093 A 
HETATM    4  C8  UNL     1      12.622  12.065  39.339  1.00  0.00     0.069 A 
HETATM    5  C9  UNL     1      13.049  13.253  39.876  1.00  0.00     0.104 A 
HETATM    6  C10 UNL     1      14.260  13.260  40.531  1.00  0.00     0.126 A 
HETATM    7  C11 UNL     1      14.993  12.079  40.623  1.00  0.00     0.116 A 
HETATM    8  C12 UNL     1      14.564  10.883  40.083  1.00  0.00     0.065 A 
HETATM    9  C13 UNL     1      15.040   9.591  40.003  1.00  0.00     0.102 A 
ENDROOT
BRANCH   9  10
HETATM   10  N3  UNL     1      16.251   9.124  40.579  1.00  0.00    -0.271 N 
ATOM     11  H3  UNL     1      16.250   8.799  41.545  1.00  0.00     0.189 HD
BRANCH  10  12
HETATM   12  N4  UNL     1      17.439   9.100  39.858  1.00  0.00    -0.123 N 
HETATM   13  C14 UNL     1      18.568   9.907  40.141  1.00  0.00     0.256 C 
HETATM   14  C15 UNL     1      19.802   9.757  39.360  1.00  0.00     0.121 C 
HETATM   15  O9  UNL     1      18.564  10.771  41.053  1.00  0.00    -0.270 OA
BRANCH  12  16
HETATM   16  N5  UNL     1      17.559   8.187  38.795  1.00  0.00     0.021 N 
HETATM   17  N6  UNL     1      17.446   8.493  37.488  1.00  0.00    -0.189 N 
HETATM   18  N7  UNL     1      17.596   7.407  36.768  1.00  0.00    -0.212 N 
ATOM     19  H6  UNL     1      17.271   9.426  37.116  1.00  0.00     0.212 HD
HETATM   20  N8  UNL     1      17.804   6.391  37.571  1.00  0.00    -0.114 N 
ATOM     21  H7  UNL     1      17.557   7.361  35.750  1.00  0.00     0.210 HD
HETATM   22  C16 UNL     1      17.781   6.876  38.835  1.00  0.00     0.731 A 
ATOM     23  H8  UNL     1      17.954   5.420  37.296  1.00  0.00     0.207 HD
BRANCH  22  24
HETATM   24  N9  UNL     1      17.943   6.158  39.894  1.00  0.00    -0.230 N 
ATOM     25  H92 UNL     1      18.511   5.312  39.936  1.00  0.00     0.174 HD
ATOM     26  H91 UNL     1      17.528   6.329  40.811  1.00  0.00     0.174 HD
ENDBRANCH  22  24
ENDBRANCH  12  16
ENDBRANCH  10  12
ENDBRANCH   9  10
BRANCH   1  27
HETATM   27  C5  UNL     1      14.197   7.403  38.951  1.00  0.00     0.109 C 
BRANCH  27  28
HETATM   28  C4  UNL     1      14.539   6.457  40.028  1.00  0.00     0.195 C 
BRANCH  28  29
HETATM   29  C3  UNL     1      13.693   5.196  40.055  1.00  0.00     0.161 C 
BRANCH  29  30
HETATM   30  N1  UNL     1      14.192   4.284  39.066  1.00  0.00    -0.359 N 
HETATM   31  C2  UNL     1      15.425   3.621  39.201  1.00  0.00     0.213 C 
HETATM   32  C1  UNL     1      15.817   2.682  38.081  1.00  0.00     0.117 C 
HETATM   33  O1  UNL     1      16.218   3.740  40.163  1.00  0.00    -0.274 OA
ATOM     34  H1  UNL     1      13.631   4.109  38.233  1.00  0.00     0.162 HD
ENDBRANCH  29  30
ENDBRANCH  28  29
BRANCH  28  35
HETATM   35  O2  UNL     1      14.339   7.019  41.321  1.00  0.00    -0.387 OA
ATOM     36  H2  UNL     1      15.223   7.139  41.649  1.00  0.00     0.210 HD
ENDBRANCH  28  35
ENDBRANCH  27  28
BRANCH  27  37
HETATM   37  O3  UNL     1      14.722   7.095  37.735  1.00  0.00    -0.359 OA
ATOM     38  H3  UNL     1      14.988   6.188  37.636  1.00  0.00     0.217 HD
ENDBRANCH  27  37
ENDBRANCH   1  27
BRANCH   7  39
HETATM   39  O8  UNL     1      16.189  12.154  41.288  1.00  0.00    -0.357 OA
ATOM     40  H8  UNL     1      16.831  11.487  41.079  1.00  0.00     0.217 HD
ENDBRANCH   7  39
BRANCH   6  41
HETATM   41  O7  UNL     1      14.693  14.462  41.073  1.00  0.00    -0.356 OA
ATOM     42  H7  UNL     1      15.625  14.642  41.058  1.00  0.00     0.218 HD
ENDBRANCH   6  41
BRANCH   5  43
HETATM   43  N2  UNL     1      12.275  14.457  39.747  1.00  0.00    -0.033 NA
BRANCH  43  44
HETATM   44  O5  UNL     1      11.121  14.343  40.407  1.00  0.00    -0.284 OA
ATOM     45  H5  UNL     1      10.427  14.796  39.943  1.00  0.00     0.240 HD
ENDBRANCH  43  44
BRANCH  43  46
HETATM   46  O6  UNL     1      12.117  14.760  38.428  1.00  0.00    -0.284 OA
ATOM     47  H6  UNL     1      11.927  13.968  37.940  1.00  0.00     0.240 HD
ENDBRANCH  43  46
ENDBRANCH   5  43
TORSDOF 15
ENDMDL
MODEL 5
REMARK VINA RESULT: -0.411696125      1.599      2.404
REMARK  15 active torsions:
REMARK  status: ('A' for Active; 'I' for Inactive)
REMARK       I    between atoms: C2_2  and  N1_4 
REMARK    1  A    between atoms: N1_4  and  C3_6 
REMARK    2  A    between atoms: C3_6  and  C4_7 
REMARK    3  A    between atoms: C4_7  and  O2_8 
REMARK    4  A    between atoms: C4_7  and  C5_10 
REMARK    5  A    between atoms: C5_10  and  O3_11 
REMARK    6  A    between atoms: C5_10  and  C6_13 
REMARK    7  A    between atoms: C9_17  and  N2_18 
REMARK    8  A    between atoms: N2_18  and  O5_19 
REMARK    9  A    between atoms: N2_18  and  O6_21 
REMARK   10  A    between atoms: C10_23  and  O7_24 
REMARK   11  A    between atoms: C11_26  and  O8_27 
REMARK   12  A    between atoms: C13_30  and  N3_31 
REMARK   13  A    between atoms: N3_31  and  N4_33 
REMARK       I    between atoms: N4_33  and  C14_34 
REMARK   14  A    between atoms: N4_33  and  N5_37 
REMARK   15  A    between atoms: C16_44  and  N9_45 
ROOT
HETATM    1  C6  UNL     1      14.447   8.699  39.242  1.00  0.00     0.137 A 
HETATM    2  O4  UNL     1      13.444   9.496  39.497  1.00  0.00    -0.305 OA
HETATM    3  C7  UNL     1      13.795  10.700  39.805  1.00  0.00     0.093 A 
HETATM    4  C8  UNL     1      13.086  11.852  40.139  1.00  0.00     0.069 A 
HETATM    5  C9  UNL     1      13.684  13.051  40.433  1.00  0.00     0.104 A 
HETATM    6  C10 UNL     1      15.060  13.107  40.391  1.00  0.00     0.126 A 
HETATM    7  C11 UNL     1      15.779  11.961  40.061  1.00  0.00     0.116 A 
HETATM    8  C12 UNL     1      15.179  10.753  39.766  1.00  0.00     0.065 A 
HETATM    9  C13 UNL     1      15.594   9.487  39.411  1.00  0.00     0.102 A 
ENDROOT
BRANCH   9  10
HETATM   10  N3  UNL     1      16.945   9.071  39.284  1.00  0.00    -0.271 N 
ATOM     11  H3  UNL     1      17.677   9.776  39.195  1.00  0.00     0.189 HD
BRANCH  10  12
HETATM   12  N4  UNL     1      17.297   7.726  39.278  1.00  0.00    -0.123 N 
HETATM   13  C14 UNL     1      17.396   6.916  40.435  1.00  0.00     0.256 C 
HETATM   14  C15 UNL     1      17.709   5.487  40.316  1.00  0.00     0.121 C 
HETATM   15  O9  UNL     1      17.227   7.375  41.592  1.00  0.00    -0.270 OA
BRANCH  12  16
HETATM   16  N5  UNL     1      17.533   7.102  38.041  1.00  0.00     0.021 N 
HETATM   17  N6  UNL     1      17.615   5.772  37.842  1.00  0.00    -0.189 N 
HETATM   18  N7  UNL     1      17.860   5.530  36.576  1.00  0.00    -0.212 N 
ATOM     19  H6  UNL     1      17.504   5.062  38.565  1.00  0.00     0.212 HD
HETATM   20  N8  UNL     1      17.941   6.672  35.935  1.00  0.00    -0.114 N 
ATOM     21  H7  UNL     1      17.968   4.606  36.159  1.00  0.00     0.210 HD
HETATM   22  C16 UNL     1      17.738   7.652  36.847  1.00  0.00     0.731 A 
ATOM     23  H8  UNL     1      18.123   6.798  34.939  1.00  0.00     0.207 HD
BRANCH  22  24
HETATM   24  N9  UNL     1      17.754   8.913  36.577  1.00  0.00    -0.230 N 
ATOM     25  H92 UNL     1      18.032   9.307  35.678  1.00  0.00     0.174 HD
ATOM     26  H91 UNL     1      17.507   9.672  37.213  1.00  0.00     0.174 HD
ENDBRANCH  22  24
ENDBRANCH  12  16
ENDBRANCH  10  12
ENDBRANCH   9  10
BRANCH   1  27
HETATM   27  C5  UNL     1      14.411   7.277  38.844  1.00  0.00     0.109 C 
BRANCH  27  28
HETATM   28  C4  UNL     1      14.584   6.259  39.896  1.00  0.00     0.195 C 
BRANCH  28  29
HETATM   29  C3  UNL     1      13.732   5.014  39.717  1.00  0.00     0.161 C 
BRANCH  29  30
HETATM   30  N1  UNL     1      14.591   3.864  39.719  1.00  0.00    -0.359 N 
HETATM   31  C2  UNL     1      15.355   3.487  38.602  1.00  0.00     0.213 C 
HETATM   32  C1  UNL     1      16.221   2.255  38.754  1.00  0.00     0.117 C 
HETATM   33  O1  UNL     1      15.383   4.082  37.499  1.00  0.00    -0.274 OA
ATOM     34  H1  UNL     1      14.649   3.297  40.566  1.00  0.00     0.162 HD
ENDBRANCH  29  30
ENDBRANCH  28  29
BRANCH  28  35
HETATM   35  O2  UNL     1      14.201   6.741  41.180  1.00  0.00    -0.387 OA
ATOM     36  H2  UNL     1      14.804   7.458  41.336  1.00  0.00     0.210 HD
ENDBRANCH  28  35
ENDBRANCH  27  28
BRANCH  27  37
HETATM   37  O3  UNL     1      14.972   6.958  37.648  1.00  0.00    -0.359 OA
ATOM     38  H3  UNL     1      15.846   7.306  37.513  1.00  0.00     0.217 HD
ENDBRANCH  27  37
ENDBRANCH   1  27
BRANCH   7  39
HETATM   39  O8  UNL     1      17.144  12.084  40.039  1.00  0.00    -0.357 OA
ATOM     40  H8  UNL     1      17.492  12.956  40.188  1.00  0.00     0.217 HD
ENDBRANCH   7  39
BRANCH   6  41
HETATM   41  O7  UNL     1      15.664  14.320  40.687  1.00  0.00    -0.356 OA
ATOM     42  H7  UNL     1      15.129  15.103  40.638  1.00  0.00     0.218 HD
ENDBRANCH   6  41
BRANCH   5  43
HETATM   43  N2  UNL     1      12.909  14.218  40.753  1.00  0.00    -0.033 NA
BRANCH  43  44
HETATM   44  O5  UNL     1      11.640  14.053  40.377  1.00  0.00    -0.284 OA
ATOM     45  H5  UNL     1      11.121  13.720  41.099  1.00  0.00     0.240 HD
ENDBRANCH  43  44
BRANCH  43  46
HETATM   46  O6  UNL     1      13.496  15.321  40.209  1.00  0.00    -0.284 OA
ATOM     47  H6  UNL     1      13.136  16.103  40.608  1.00  0.00     0.240 HD
ENDBRANCH  43  46
ENDBRANCH   5  43
TORSDOF 15
ENDMDL
