MODEL 1
REMARK VINA RESULT: -5.255981079      0.000      0.000
REMARK  12 active torsions:
REMARK  status: ('A' for Active; 'I' for Inactive)
REMARK    1  A    between atoms: N3_7  and  C4_8 
REMARK    2  A    between atoms: N5_12  and  C6_14 
REMARK    3  A    between atoms: C6_14  and  C7_15 
REMARK    4  A    between atoms: C6_14  and  C8_24 
REMARK    5  A    between atoms: C8_24  and  O1_25 
REMARK    6  A    between atoms: C8_24  and  O2_27 
REMARK    7  A    between atoms: C10_33  and  N11_34 
REMARK    8  A    between atoms: N12_36  and  N13_38 
REMARK       I    between atoms: N13_38  and  C11_40 
REMARK       I    between atoms: C11_40  and  N15_45 
REMARK    9  A    between atoms: N14_41  and  O4_43 
REMARK   10  A    between atoms: N15_45  and  N16_47 
REMARK   11  A    between atoms: C12_49  and  C13_50 
REMARK   12  A    between atoms: C13_50  and  O5_51 
ROOT
HETATM    1  C4  UNL     1       7.533   5.356  45.812  1.00  0.00     0.159 A 
HETATM    2  N4  UNL     1       7.208   6.522  45.181  1.00  0.00    -0.174 N 
ATOM      3  H4  UNL     1       7.451   7.409  45.622  1.00  0.00     0.186 HD
HETATM    4  C5  UNL     1       6.585   6.532  44.009  1.00  0.00     0.683 A 
HETATM    5  N5  UNL     1       6.280   7.613  43.440  1.00  0.00    -0.209 N 
ATOM      6  H5  UNL     1       5.806   7.471  42.547  1.00  0.00     0.178 HD
HETATM    7  N10 UNL     1       6.277   5.321  43.450  1.00  0.00    -0.154 N 
ATOM      8  H10 UNL     1       5.799   5.311  42.549  1.00  0.00     0.187 HD
HETATM    9  C9  UNL     1       6.572   4.153  44.028  1.00  0.00     0.291 A 
HETATM   10  O3  UNL     1       6.278   3.049  43.493  1.00  0.00    -0.265 OA
HETATM   11  C10 UNL     1       7.223   4.142  45.253  1.00  0.00     0.163 A 
ENDROOT
BRANCH  11  12
HETATM   12  N11 UNL     1       7.542   2.893  45.868  1.00  0.00    -0.277 N 
HETATM   13  N12 UNL     1       7.589   1.811  45.205  1.00  0.00    -0.228 N 
ATOM     14  H12 UNL     1       7.401   1.787  44.203  1.00  0.00     0.209 HD
ATOM     15  H11 UNL     1       7.738   2.870  46.868  1.00  0.00     0.189 HD
BRANCH  13  16
HETATM   16  N13 UNL     1       7.913   0.652  45.923  1.00  0.00    -0.115 N 
HETATM   17  C11 UNL     1       8.149  -0.592  45.307  1.00  0.00     0.732 C 
HETATM   18  N14 UNL     1       9.255  -0.793  44.689  1.00  0.00    -0.096 N 
HETATM   19  N15 UNL     1       7.208  -1.659  45.323  1.00  0.00    -0.130 N 
ATOM     20  H14 UNL     1       9.440  -1.689  44.237  1.00  0.00     0.213 HD
ATOM     21  H15 UNL     1       6.422  -1.594  44.677  1.00  0.00     0.205 HD
ATOM     22  H13 UNL     1       7.980   0.712  46.939  1.00  0.00     0.207 HD
BRANCH  18  23
HETATM   23  O4  UNL     1      10.183   0.212  44.644  1.00  0.00    -0.276 OA
ATOM     24  H4  UNL     1      10.764   0.269  43.895  1.00  0.00     0.245 HD
ENDBRANCH  18  23
BRANCH  19  25
HETATM   25  N16 UNL     1       7.262  -2.773  46.133  1.00  0.00    -0.299 N 
HETATM   26  C12 UNL     1       7.068  -2.776  47.396  1.00  0.00     0.106 C 
ATOM     27  H16 UNL     1       7.475  -3.667  45.689  1.00  0.00     0.186 HD
BRANCH  26  28
HETATM   28  C13 UNL     1       6.751  -1.537  48.155  1.00  0.00     0.210 C 
BRANCH  28  29
HETATM   29  O5  UNL     1       7.895  -1.003  48.711  1.00  0.00    -0.396 OA
ATOM     30  H5  UNL     1       7.761  -0.816  49.633  1.00  0.00     0.209 HD
ENDBRANCH  28  29
ENDBRANCH  26  28
ENDBRANCH  19  25
ENDBRANCH  13  16
ENDBRANCH  11  12
BRANCH   1  31
HETATM   31  N3  UNL     1       8.197   5.365  47.059  1.00  0.00    -0.303 N 
HETATM   32  C1  UNL     1       9.514   4.925  47.346  1.00  0.00     0.192 C 
HETATM   33  N1  UNL     1      10.334   4.067  46.557  1.00  0.00    -0.063 NA
HETATM   34  N2  UNL     1       9.894   5.411  48.453  1.00  0.00    -0.363 N 
HETATM   35  C2  UNL     1       8.910   6.245  49.069  1.00  0.00     0.142 C 
ATOM     36  H2  UNL     1      10.810   5.226  48.863  1.00  0.00     0.162 HD
HETATM   37  C3  UNL     1       7.643   5.845  48.302  1.00  0.00     0.153 C 
ENDBRANCH   1  31
BRANCH   5  38
HETATM   38  C6  UNL     1       6.446   8.966  43.759  1.00  0.00     0.224 C 
BRANCH  38  39
HETATM   39  C7  UNL     1       6.957   9.834  42.659  1.00  0.00     0.141 A 
HETATM   40  N6  UNL     1       8.238  10.118  42.383  1.00  0.00    -0.270 N 
HETATM   41  N7  UNL     1       8.246  10.914  41.327  1.00  0.00    -0.227 N 
ATOM     42  H6  UNL     1       9.054   9.781  42.892  1.00  0.00     0.190 HD
HETATM   43  N8  UNL     1       7.026  11.142  40.929  1.00  0.00    -0.227 N 
ATOM     44  H7  UNL     1       9.084  11.295  40.889  1.00  0.00     0.210 HD
HETATM   45  N9  UNL     1       6.223  10.495  41.725  1.00  0.00    -0.270 N 
ATOM     46  H8  UNL     1       6.749  11.723  40.137  1.00  0.00     0.210 HD
ATOM     47  H9  UNL     1       5.205  10.486  41.658  1.00  0.00     0.190 HD
ENDBRANCH  38  39
BRANCH  38  48
HETATM   48  C8  UNL     1       7.306   9.220  44.982  1.00  0.00     0.284 C 
BRANCH  48  49
HETATM   49  O1  UNL     1       8.606   8.786  44.725  1.00  0.00    -0.369 OA
ATOM     50  H1  UNL     1       9.160   9.004  45.465  1.00  0.00     0.212 HD
ENDBRANCH  48  49
BRANCH  48  51
HETATM   51  O2  UNL     1       7.320  10.604  45.172  1.00  0.00    -0.369 OA
ATOM     52  H2  UNL     1       8.177  10.905  44.892  1.00  0.00     0.212 HD
ENDBRANCH  48  51
ENDBRANCH  38  48
ENDBRANCH   5  38
TORSDOF 12
ENDMDL
MODEL 2
REMARK VINA RESULT: -3.658221336     10.269     12.496
REMARK  12 active torsions:
REMARK  status: ('A' for Active; 'I' for Inactive)
REMARK    1  A    between atoms: N3_7  and  C4_8 
REMARK    2  A    between atoms: N5_12  and  C6_14 
REMARK    3  A    between atoms: C6_14  and  C7_15 
REMARK    4  A    between atoms: C6_14  and  C8_24 
REMARK    5  A    between atoms: C8_24  and  O1_25 
REMARK    6  A    between atoms: C8_24  and  O2_27 
REMARK    7  A    between atoms: C10_33  and  N11_34 
REMARK    8  A    between atoms: N12_36  and  N13_38 
REMARK       I    between atoms: N13_38  and  C11_40 
REMARK       I    between atoms: C11_40  and  N15_45 
REMARK    9  A    between atoms: N14_41  and  O4_43 
REMARK   10  A    between atoms: N15_45  and  N16_47 
REMARK   11  A    between atoms: C12_49  and  C13_50 
REMARK   12  A    between atoms: C13_50  and  O5_51 
ROOT
HETATM    1  C4  UNL     1      15.755  10.172  39.264  1.00  0.00     0.159 A 
HETATM    2  N4  UNL     1      15.815  11.462  39.706  1.00  0.00    -0.174 N 
ATOM      3  H4  UNL     1      15.022  12.082  39.540  1.00  0.00     0.186 HD
HETATM    4  C5  UNL     1      16.879  11.933  40.346  1.00  0.00     0.683 A 
HETATM    5  N5  UNL     1      16.930  13.128  40.740  1.00  0.00    -0.209 N 
ATOM      6  H5  UNL     1      17.804  13.351  41.216  1.00  0.00     0.178 HD
HETATM    7  N10 UNL     1      17.922  11.071  40.550  1.00  0.00    -0.154 N 
ATOM      8  H10 UNL     1      18.747  11.415  41.042  1.00  0.00     0.187 HD
HETATM    9  C9  UNL     1      17.912   9.800  40.136  1.00  0.00     0.291 A 
HETATM   10  O3  UNL     1      18.886   9.023  40.336  1.00  0.00    -0.265 OA
HETATM   11  C10 UNL     1      16.800   9.308  39.467  1.00  0.00     0.163 A 
ENDROOT
BRANCH  11  12
HETATM   12  N11 UNL     1      16.789   7.949  39.029  1.00  0.00    -0.277 N 
HETATM   13  N12 UNL     1      17.211   7.610  37.881  1.00  0.00    -0.228 N 
ATOM     14  H12 UNL     1      17.579   8.294  37.220  1.00  0.00     0.209 HD
ATOM     15  H11 UNL     1      16.431   7.230  39.657  1.00  0.00     0.189 HD
BRANCH  13  16
HETATM   16  N13 UNL     1      17.146   6.245  37.570  1.00  0.00    -0.115 N 
HETATM   17  C11 UNL     1      18.285   5.420  37.489  1.00  0.00     0.732 C 
HETATM   18  N14 UNL     1      18.869   5.039  38.567  1.00  0.00    -0.096 N 
HETATM   19  N15 UNL     1      18.843   4.983  36.256  1.00  0.00    -0.130 N 
ATOM     20  H14 UNL     1      19.695   4.443  38.524  1.00  0.00     0.213 HD
ATOM     21  H15 UNL     1      19.408   5.656  35.739  1.00  0.00     0.205 HD
ATOM     22  H13 UNL     1      16.231   5.828  37.394  1.00  0.00     0.207 HD
BRANCH  18  23
HETATM   23  O4  UNL     1      18.367   5.445  39.773  1.00  0.00    -0.276 OA
ATOM     24  H4  UNL     1      18.732   6.218  40.188  1.00  0.00     0.245 HD
ENDBRANCH  18  23
BRANCH  19  25
HETATM   25  N16 UNL     1      18.689   3.733  35.696  1.00  0.00    -0.299 N 
HETATM   26  C12 UNL     1      17.721   2.933  35.935  1.00  0.00     0.106 C 
ATOM     27  H16 UNL     1      19.405   3.421  35.039  1.00  0.00     0.186 HD
BRANCH  26  28
HETATM   28  C13 UNL     1      16.619   3.276  36.873  1.00  0.00     0.210 C 
BRANCH  28  29
HETATM   29  O5  UNL     1      16.764   2.593  38.062  1.00  0.00    -0.396 OA
ATOM     30  H5  UNL     1      16.232   1.806  38.061  1.00  0.00     0.209 HD
ENDBRANCH  28  29
ENDBRANCH  26  28
ENDBRANCH  19  25
ENDBRANCH  13  16
ENDBRANCH  11  12
BRANCH   1  31
HETATM   31  N3  UNL     1      14.614   9.689  38.585  1.00  0.00    -0.303 N 
HETATM   32  C1  UNL     1      13.733   8.655  38.992  1.00  0.00     0.192 C 
HETATM   33  N1  UNL     1      13.973   7.644  39.967  1.00  0.00    -0.063 NA
HETATM   34  N2  UNL     1      12.647   8.741  38.345  1.00  0.00    -0.363 N 
HETATM   35  C2  UNL     1      12.627   9.832  37.421  1.00  0.00     0.142 C 
ATOM     36  H2  UNL     1      11.866   8.096  38.470  1.00  0.00     0.162 HD
HETATM   37  C3  UNL     1      14.118  10.180  37.323  1.00  0.00     0.153 C 
ENDBRANCH   1  31
BRANCH   5  38
HETATM   38  C6  UNL     1      16.054  14.218  40.670  1.00  0.00     0.224 C 
BRANCH  38  39
HETATM   39  C7  UNL     1      16.410  15.392  41.518  1.00  0.00     0.141 A 
HETATM   40  N6  UNL     1      16.067  16.671  41.311  1.00  0.00    -0.270 N 
HETATM   41  N7  UNL     1      16.582  17.382  42.300  1.00  0.00    -0.227 N 
ATOM     42  H6  UNL     1      15.511  17.030  40.535  1.00  0.00     0.190 HD
HETATM   43  N8  UNL     1      17.233  16.604  43.118  1.00  0.00    -0.227 N 
ATOM     44  H7  UNL     1      16.484  18.391  42.407  1.00  0.00     0.210 HD
HETATM   45  N9  UNL     1      17.143  15.387  42.662  1.00  0.00    -0.270 N 
ATOM     46  H8  UNL     1      17.725  16.895  43.963  1.00  0.00     0.210 HD
ATOM     47  H9  UNL     1      17.557  14.561  43.096  1.00  0.00     0.190 HD
ENDBRANCH  38  39
BRANCH  38  48
HETATM   48  C8  UNL     1      14.603  13.874  40.948  1.00  0.00     0.284 C 
BRANCH  48  49
HETATM   49  O1  UNL     1      14.409  13.786  42.326  1.00  0.00    -0.369 OA
ATOM     50  H1  UNL     1      13.481  13.851  42.515  1.00  0.00     0.212 HD
ENDBRANCH  48  49
BRANCH  48  51
HETATM   51  O2  UNL     1      13.844  14.938  40.451  1.00  0.00    -0.369 OA
ATOM     52  H2  UNL     1      13.692  15.523  41.184  1.00  0.00     0.212 HD
ENDBRANCH  48  51
ENDBRANCH  38  48
ENDBRANCH   5  38
TORSDOF 12
ENDMDL
MODEL 3
REMARK VINA RESULT: -3.243867126     10.492     14.569
REMARK  12 active torsions:
REMARK  status: ('A' for Active; 'I' for Inactive)
REMARK    1  A    between atoms: N3_7  and  C4_8 
REMARK    2  A    between atoms: N5_12  and  C6_14 
REMARK    3  A    between atoms: C6_14  and  C7_15 
REMARK    4  A    between atoms: C6_14  and  C8_24 
REMARK    5  A    between atoms: C8_24  and  O1_25 
REMARK    6  A    between atoms: C8_24  and  O2_27 
REMARK    7  A    between atoms: C10_33  and  N11_34 
REMARK    8  A    between atoms: N12_36  and  N13_38 
REMARK       I    between atoms: N13_38  and  C11_40 
REMARK       I    between atoms: C11_40  and  N15_45 
REMARK    9  A    between atoms: N14_41  and  O4_43 
REMARK   10  A    between atoms: N15_45  and  N16_47 
REMARK   11  A    between atoms: C12_49  and  C13_50 
REMARK   12  A    between atoms: C13_50  and  O5_51 
ROOT
HETATM    1  C4  UNL     1      15.752  10.108  39.308  1.00  0.00     0.159 A 
HETATM    2  N4  UNL     1      16.147   8.870  38.889  1.00  0.00    -0.174 N 
ATOM      3  H4  UNL     1      15.513   8.315  38.314  1.00  0.00     0.186 HD
HETATM    4  C5  UNL     1      17.334   8.369  39.209  1.00  0.00     0.683 A 
HETATM    5  N5  UNL     1      17.685   7.222  38.827  1.00  0.00    -0.209 N 
ATOM      6  H5  UNL     1      18.620   6.966  39.145  1.00  0.00     0.178 HD
HETATM    7  N10 UNL     1      18.157   9.145  39.981  1.00  0.00    -0.154 N 
ATOM      8  H10 UNL     1      19.073   8.776  40.235  1.00  0.00     0.187 HD
HETATM    9  C9  UNL     1      17.816  10.362  40.417  1.00  0.00     0.291 A 
HETATM   10  O3  UNL     1      18.592  11.058  41.128  1.00  0.00    -0.265 OA
HETATM   11  C10 UNL     1      16.575  10.885  40.083  1.00  0.00     0.163 A 
ENDROOT
BRANCH  11  12
HETATM   12  N11 UNL     1      16.215  12.187  40.546  1.00  0.00    -0.277 N 
HETATM   13  N12 UNL     1      15.584  12.361  41.634  1.00  0.00    -0.228 N 
ATOM     14  H12 UNL     1      15.307  11.578  42.226  1.00  0.00     0.209 HD
ATOM     15  H11 UNL     1      16.471  12.999  39.986  1.00  0.00     0.189 HD
BRANCH  13  16
HETATM   16  N13 UNL     1      15.288  13.687  41.978  1.00  0.00    -0.115 N 
HETATM   17  C11 UNL     1      15.082  14.701  41.022  1.00  0.00     0.732 C 
HETATM   18  N14 UNL     1      13.982  14.737  40.363  1.00  0.00    -0.096 N 
HETATM   19  N15 UNL     1      16.049  15.704  40.732  1.00  0.00    -0.130 N 
ATOM     20  H14 UNL     1      13.820  15.465  39.667  1.00  0.00     0.213 HD
ATOM     21  H15 UNL     1      16.834  15.434  40.141  1.00  0.00     0.205 HD
ATOM     22  H13 UNL     1      15.217  13.930  42.967  1.00  0.00     0.207 HD
BRANCH  18  23
HETATM   23  O4  UNL     1      13.030  13.785  40.607  1.00  0.00    -0.276 OA
ATOM     24  H4  UNL     1      12.383  13.598  39.937  1.00  0.00     0.245 HD
ENDBRANCH  18  23
BRANCH  19  25
HETATM   25  N16 UNL     1      16.021  17.007  41.179  1.00  0.00    -0.299 N 
HETATM   26  C12 UNL     1      16.643  17.448  42.205  1.00  0.00     0.106 C 
ATOM     27  H16 UNL     1      15.459  17.674  40.648  1.00  0.00     0.186 HD
BRANCH  26  28
HETATM   28  C13 UNL     1      17.493  16.573  43.056  1.00  0.00     0.210 C 
BRANCH  28  29
HETATM   29  O5  UNL     1      16.725  15.617  43.686  1.00  0.00    -0.396 OA
ATOM     30  H5  UNL     1      17.202  14.798  43.755  1.00  0.00     0.209 HD
ENDBRANCH  28  29
ENDBRANCH  26  28
ENDBRANCH  19  25
ENDBRANCH  13  16
ENDBRANCH  11  12
BRANCH   1  31
HETATM   31  N3  UNL     1      14.486  10.624  38.957  1.00  0.00    -0.303 N 
HETATM   32  C1  UNL     1      13.411  10.953  39.822  1.00  0.00     0.192 C 
HETATM   33  N1  UNL     1      13.216  10.524  41.166  1.00  0.00    -0.063 NA
HETATM   34  N2  UNL     1      12.596  11.714  39.219  1.00  0.00    -0.363 N 
HETATM   35  C2  UNL     1      12.994  12.015  37.879  1.00  0.00     0.142 C 
ATOM     36  H2  UNL     1      11.743  12.075  39.646  1.00  0.00     0.162 HD
HETATM   37  C3  UNL     1      14.045  10.929  37.618  1.00  0.00     0.153 C 
ENDBRANCH   1  31
BRANCH   5  38
HETATM   38  C6  UNL     1      17.077   6.219  38.062  1.00  0.00     0.224 C 
BRANCH  38  39
HETATM   39  C7  UNL     1      17.832   5.776  36.854  1.00  0.00     0.141 A 
HETATM   40  N6  UNL     1      18.012   6.465  35.718  1.00  0.00    -0.270 N 
HETATM   41  N7  UNL     1      18.743   5.712  34.913  1.00  0.00    -0.227 N 
ATOM     42  H6  UNL     1      17.652   7.396  35.512  1.00  0.00     0.190 HD
HETATM   43  N8  UNL     1      19.030   4.581  35.496  1.00  0.00    -0.227 N 
ATOM     44  H7  UNL     1      19.039   5.977  33.975  1.00  0.00     0.210 HD
HETATM   45  N9  UNL     1      18.485   4.597  36.679  1.00  0.00    -0.270 N 
ATOM     46  H8  UNL     1      19.581   3.821  35.097  1.00  0.00     0.210 HD
ATOM     47  H9  UNL     1      18.540   3.844  37.365  1.00  0.00     0.190 HD
ENDBRANCH  38  39
BRANCH  38  48
HETATM   48  C8  UNL     1      15.659   6.536  37.627  1.00  0.00     0.284 C 
BRANCH  48  49
HETATM   49  O1  UNL     1      15.339   5.763  36.512  1.00  0.00    -0.369 OA
ATOM     50  H1  UNL     1      15.590   4.862  36.674  1.00  0.00     0.212 HD
ENDBRANCH  48  49
BRANCH  48  51
HETATM   51  O2  UNL     1      14.829   6.163  38.689  1.00  0.00    -0.369 OA
ATOM     52  H2  UNL     1      14.200   6.866  38.796  1.00  0.00     0.212 HD
ENDBRANCH  48  51
ENDBRANCH  38  48
ENDBRANCH   5  38
TORSDOF 12
ENDMDL
MODEL 4
REMARK VINA RESULT: -2.944697690      9.254     11.666
REMARK  12 active torsions:
REMARK  status: ('A' for Active; 'I' for Inactive)
REMARK    1  A    between atoms: N3_7  and  C4_8 
REMARK    2  A    between atoms: N5_12  and  C6_14 
REMARK    3  A    between atoms: C6_14  and  C7_15 
REMARK    4  A    between atoms: C6_14  and  C8_24 
REMARK    5  A    between atoms: C8_24  and  O1_25 
REMARK    6  A    between atoms: C8_24  and  O2_27 
REMARK    7  A    between atoms: C10_33  and  N11_34 
REMARK    8  A    between atoms: N12_36  and  N13_38 
REMARK       I    between atoms: N13_38  and  C11_40 
REMARK       I    between atoms: C11_40  and  N15_45 
REMARK    9  A    between atoms: N14_41  and  O4_43 
REMARK   10  A    between atoms: N15_45  and  N16_47 
REMARK   11  A    between atoms: C12_49  and  C13_50 
REMARK   12  A    between atoms: C13_50  and  O5_51 
ROOT
HETATM    1  C4  UNL     1      15.297  10.029  39.191  1.00  0.00     0.159 A 
HETATM    2  N4  UNL     1      15.583  11.275  39.670  1.00  0.00    -0.174 N 
ATOM      3  H4  UNL     1      14.904  12.025  39.538  1.00  0.00     0.186 HD
HETATM    4  C5  UNL     1      16.720  11.537  40.302  1.00  0.00     0.683 A 
HETATM    5  N5  UNL     1      16.979  12.692  40.730  1.00  0.00    -0.209 N 
ATOM      6  H5  UNL     1      17.886  12.749  41.195  1.00  0.00     0.178 HD
HETATM    7  N10 UNL     1      17.605  10.505  40.459  1.00  0.00    -0.154 N 
ATOM      8  H10 UNL     1      18.483  10.688  40.944  1.00  0.00     0.187 HD
HETATM    9  C9  UNL     1      17.373   9.268  40.008  1.00  0.00     0.291 A 
HETATM   10  O3  UNL     1      18.203   8.332  40.165  1.00  0.00    -0.265 OA
HETATM   11  C10 UNL     1      16.184   8.994  39.346  1.00  0.00     0.163 A 
ENDROOT
BRANCH  11  12
HETATM   12  N11 UNL     1      15.935   7.671  38.869  1.00  0.00    -0.277 N 
HETATM   13  N12 UNL     1      15.038   6.931  39.380  1.00  0.00    -0.228 N 
ATOM     14  H12 UNL     1      14.456   7.249  40.154  1.00  0.00     0.209 HD
ATOM     15  H11 UNL     1      16.493   7.312  38.095  1.00  0.00     0.189 HD
BRANCH  13  16
HETATM   16  N13 UNL     1      14.892   5.653  38.823  1.00  0.00    -0.115 N 
HETATM   17  C11 UNL     1      15.064   4.468  39.565  1.00  0.00     0.732 C 
HETATM   18  N14 UNL     1      14.151   4.098  40.388  1.00  0.00    -0.096 N 
HETATM   19  N15 UNL     1      16.218   3.644  39.457  1.00  0.00    -0.130 N 
ATOM     20  H14 UNL     1      14.262   3.243  40.932  1.00  0.00     0.213 HD
ATOM     21  H15 UNL     1      17.058   3.958  39.942  1.00  0.00     0.205 HD
ATOM     22  H13 UNL     1      14.650   5.577  37.834  1.00  0.00     0.207 HD
BRANCH  18  23
HETATM   23  O4  UNL     1      13.029   4.869  40.525  1.00  0.00    -0.276 OA
ATOM     24  H4  UNL     1      12.634   4.960  41.384  1.00  0.00     0.245 HD
ENDBRANCH  18  23
BRANCH  19  25
HETATM   25  N16 UNL     1      16.304   2.459  38.758  1.00  0.00    -0.299 N 
HETATM   26  C12 UNL     1      16.710   2.343  37.552  1.00  0.00     0.106 C 
ATOM     27  H16 UNL     1      16.022   1.606  39.242  1.00  0.00     0.186 HD
BRANCH  26  28
HETATM   28  C13 UNL     1      17.148   3.513  36.745  1.00  0.00     0.210 C 
BRANCH  28  29
HETATM   29  O5  UNL     1      17.902   3.103  35.666  1.00  0.00    -0.396 OA
ATOM     30  H5  UNL     1      18.158   2.193  35.765  1.00  0.00     0.209 HD
ENDBRANCH  28  29
ENDBRANCH  26  28
ENDBRANCH  19  25
ENDBRANCH  13  16
ENDBRANCH  11  12
BRANCH   1  31
HETATM   31  N3  UNL     1      14.081   9.769  38.521  1.00  0.00    -0.303 N 
HETATM   32  C1  UNL     1      12.781  10.212  38.875  1.00  0.00     0.192 C 
HETATM   33  N1  UNL     1      12.347  10.706  40.139  1.00  0.00    -0.063 NA
HETATM   34  N2  UNL     1      12.008  10.105  37.876  1.00  0.00    -0.363 N 
HETATM   35  C2  UNL     1      12.659   9.589  36.713  1.00  0.00     0.142 C 
ATOM     36  H2  UNL     1      11.021  10.362  37.900  1.00  0.00     0.162 HD
HETATM   37  C3  UNL     1      13.937   8.990  37.315  1.00  0.00     0.153 C 
ENDBRANCH   1  31
BRANCH   5  38
HETATM   38  C6  UNL     1      16.300  13.917  40.710  1.00  0.00     0.224 C 
BRANCH  38  39
HETATM   39  C7  UNL     1      16.504  14.791  41.902  1.00  0.00     0.141 A 
HETATM   40  N6  UNL     1      16.075  14.567  43.151  1.00  0.00    -0.270 N 
HETATM   41  N7  UNL     1      16.477  15.584  43.894  1.00  0.00    -0.227 N 
ATOM     42  H6  UNL     1      15.538  13.760  43.471  1.00  0.00     0.190 HD
HETATM   43  N8  UNL     1      17.140  16.437  43.165  1.00  0.00    -0.227 N 
ATOM     44  H7  UNL     1      16.295  15.686  44.892  1.00  0.00     0.210 HD
HETATM   45  N9  UNL     1      17.170  15.976  41.947  1.00  0.00    -0.270 N 
ATOM     46  H8  UNL     1      17.560  17.308  43.489  1.00  0.00     0.210 HD
ATOM     47  H9  UNL     1      17.620  16.431  41.153  1.00  0.00     0.190 HD
ENDBRANCH  38  39
BRANCH  38  48
HETATM   48  C8  UNL     1      14.806  13.800  40.478  1.00  0.00     0.284 C 
BRANCH  48  49
HETATM   49  O1  UNL     1      14.254  12.971  41.452  1.00  0.00    -0.369 OA
ATOM     50  H1  UNL     1      14.952  12.597  41.976  1.00  0.00     0.212 HD
ENDBRANCH  48  49
BRANCH  48  51
HETATM   51  O2  UNL     1      14.283  15.087  40.629  1.00  0.00    -0.369 OA
ATOM     52  H2  UNL     1      14.580  15.588  39.879  1.00  0.00     0.212 HD
ENDBRANCH  48  51
ENDBRANCH  38  48
ENDBRANCH   5  38
TORSDOF 12
ENDMDL
MODEL 5
REMARK VINA RESULT: -2.874593491     10.101     14.315
REMARK  12 active torsions:
REMARK  status: ('A' for Active; 'I' for Inactive)
REMARK    1  A    between atoms: N3_7  and  C4_8 
REMARK    2  A    between atoms: N5_12  and  C6_14 
REMARK    3  A    between atoms: C6_14  and  C7_15 
REMARK    4  A    between atoms: C6_14  and  C8_24 
REMARK    5  A    between atoms: C8_24  and  O1_25 
REMARK    6  A    between atoms: C8_24  and  O2_27 
REMARK    7  A    between atoms: C10_33  and  N11_34 
REMARK    8  A    between atoms: N12_36  and  N13_38 
REMARK       I    between atoms: N13_38  and  C11_40 
REMARK       I    between atoms: C11_40  and  N15_45 
REMARK    9  A    between atoms: N14_41  and  O4_43 
REMARK   10  A    between atoms: N15_45  and  N16_47 
REMARK   11  A    between atoms: C12_49  and  C13_50 
REMARK   12  A    between atoms: C13_50  and  O5_51 
ROOT
HETATM    1  C4  UNL     1      15.535  10.165  38.998  1.00  0.00     0.159 A 
HETATM    2  N4  UNL     1      15.820   8.944  38.458  1.00  0.00    -0.174 N 
ATOM      3  H4  UNL     1      15.115   8.477  37.886  1.00  0.00     0.186 HD
HETATM    4  C5  UNL     1      16.989   8.348  38.656  1.00  0.00     0.683 A 
HETATM    5  N5  UNL     1      17.238   7.216  38.163  1.00  0.00    -0.209 N 
ATOM      6  H5  UNL     1      18.173   6.879  38.396  1.00  0.00     0.178 HD
HETATM    7  N10 UNL     1      17.908   9.006  39.428  1.00  0.00    -0.154 N 
ATOM      8  H10 UNL     1      18.812   8.563  39.590  1.00  0.00     0.187 HD
HETATM    9  C9  UNL     1      17.677  10.202  39.980  1.00  0.00     0.291 A 
HETATM   10  O3  UNL     1      18.540  10.789  40.688  1.00  0.00    -0.265 OA
HETATM   11  C10 UNL     1      16.455  10.825  39.772  1.00  0.00     0.163 A 
ENDROOT
BRANCH  11  12
HETATM   12  N11 UNL     1      16.211  12.104  40.358  1.00  0.00    -0.277 N 
HETATM   13  N12 UNL     1      15.594  12.231  41.462  1.00  0.00    -0.228 N 
ATOM     14  H12 UNL     1      15.247  11.423  41.978  1.00  0.00     0.209 HD
ATOM     15  H11 UNL     1      16.541  12.940  39.877  1.00  0.00     0.189 HD
BRANCH  13  16
HETATM   16  N13 UNL     1      15.417  13.539  41.931  1.00  0.00    -0.115 N 
HETATM   17  C11 UNL     1      15.148  14.630  41.082  1.00  0.00     0.732 C 
HETATM   18  N14 UNL     1      13.977  14.765  40.576  1.00  0.00    -0.096 N 
HETATM   19  N15 UNL     1      16.124  15.607  40.738  1.00  0.00    -0.130 N 
ATOM     20  H14 UNL     1      13.768  15.550  39.958  1.00  0.00     0.213 HD
ATOM     21  H15 UNL     1      16.812  15.346  40.032  1.00  0.00     0.205 HD
ATOM     22  H13 UNL     1      15.486  13.710  42.935  1.00  0.00     0.207 HD
BRANCH  18  23
HETATM   23  O4  UNL     1      13.013  13.842  40.876  1.00  0.00    -0.276 OA
ATOM     24  H4  UNL     1      12.224  13.811  40.348  1.00  0.00     0.245 HD
ENDBRANCH  18  23
BRANCH  19  25
HETATM   25  N16 UNL     1      16.224  16.873  41.273  1.00  0.00    -0.299 N 
HETATM   26  C12 UNL     1      16.820  17.167  42.365  1.00  0.00     0.106 C 
ATOM     27  H16 UNL     1      15.789  17.637  40.755  1.00  0.00     0.186 HD
BRANCH  26  28
HETATM   28  C13 UNL     1      17.492  16.140  43.205  1.00  0.00     0.210 C 
BRANCH  28  29
HETATM   29  O5  UNL     1      16.561  15.411  43.916  1.00  0.00    -0.396 OA
ATOM     30  H5  UNL     1      16.940  15.086  44.725  1.00  0.00     0.209 HD
ENDBRANCH  28  29
ENDBRANCH  26  28
ENDBRANCH  19  25
ENDBRANCH  13  16
ENDBRANCH  11  12
BRANCH   1  31
HETATM   31  N3  UNL     1      14.286  10.785  38.775  1.00  0.00    -0.303 N 
HETATM   32  C1  UNL     1      13.282  11.087  39.730  1.00  0.00     0.192 C 
HETATM   33  N1  UNL     1      13.135  10.539  41.037  1.00  0.00    -0.063 NA
HETATM   34  N2  UNL     1      12.485  11.949  39.254  1.00  0.00    -0.363 N 
HETATM   35  C2  UNL     1      12.826  12.358  37.927  1.00  0.00     0.142 C 
ATOM     36  H2  UNL     1      11.680  12.313  39.764  1.00  0.00     0.162 HD
HETATM   37  C3  UNL     1      13.792  11.246  37.500  1.00  0.00     0.153 C 
ENDBRANCH   1  31
BRANCH   5  38
HETATM   38  C6  UNL     1      16.518   6.318  37.367  1.00  0.00     0.224 C 
BRANCH  38  39
HETATM   39  C7  UNL     1      15.586   5.409  38.094  1.00  0.00     0.141 A 
HETATM   40  N6  UNL     1      15.379   4.106  37.856  1.00  0.00    -0.270 N 
HETATM   41  N7  UNL     1      14.482   3.684  38.732  1.00  0.00    -0.227 N 
ATOM     42  H6  UNL     1      15.829   3.544  37.133  1.00  0.00     0.190 HD
HETATM   43  N8  UNL     1      14.119   4.665  39.510  1.00  0.00    -0.227 N 
ATOM     44  H7  UNL     1      14.127   2.730  38.790  1.00  0.00     0.210 HD
HETATM   45  N9  UNL     1      14.778   5.726  39.140  1.00  0.00    -0.270 N 
ATOM     46  H8  UNL     1      13.441   4.611  40.270  1.00  0.00     0.210 HD
ATOM     47  H9  UNL     1      14.699   6.649  39.568  1.00  0.00     0.190 HD
ENDBRANCH  38  39
BRANCH  38  48
HETATM   48  C8  UNL     1      17.377   5.462  36.456  1.00  0.00     0.284 C 
BRANCH  48  49
HETATM   49  O1  UNL     1      18.015   6.280  35.525  1.00  0.00    -0.369 OA
ATOM     50  H1  UNL     1      17.705   7.172  35.630  1.00  0.00     0.212 HD
ENDBRANCH  48  49
BRANCH  48  51
HETATM   51  O2  UNL     1      18.343   4.865  37.272  1.00  0.00    -0.369 OA
ATOM     52  H2  UNL     1      18.880   5.571  37.612  1.00  0.00     0.212 HD
ENDBRANCH  48  51
ENDBRANCH  38  48
ENDBRANCH   5  38
TORSDOF 12
ENDMDL
