MODEL 1
REMARK VINA RESULT: -5.774375815      0.000      0.000
REMARK  14 active torsions:
REMARK  status: ('A' for Active; 'I' for Inactive)
REMARK    1  A    between atoms: C2_2  and  O1_3 
REMARK    2  A    between atoms: C2_2  and  C12_38 
REMARK    3  A    between atoms: O1_3  and  C3_4 
REMARK    4  A    between atoms: C3_4  and  N1_5 
REMARK    5  A    between atoms: C4_6  and  O2_7 
REMARK    6  A    between atoms: N3_13  and  N4_14 
REMARK    7  A    between atoms: N4_14  and  C7_16 
REMARK    8  A    between atoms: C8_19  and  N6_20 
REMARK    9  A    between atoms: C12_38  and  O3_39 
REMARK   10  A    between atoms: C12_38  and  O4_41 
REMARK   11  A    between atoms: C12_38  and  C13_43 
REMARK   12  A    between atoms: C13_43  and  O5_44 
REMARK   13  A    between atoms: C13_43  and  C14_46 
REMARK       I    between atoms: C14_46  and  N12_48 
REMARK   14  A    between atoms: N12_48  and  C15_50 
ROOT
HETATM    1  N1  UNL     1      14.386   9.697  39.221  1.00  0.00    -0.138 N 
HETATM    2  C4  UNL     1      13.195  10.375  39.263  1.00  0.00     0.191 A 
HETATM    3  C5  UNL     1      13.258  11.713  39.574  1.00  0.00     0.132 A 
HETATM    4  N2  UNL     1      12.292  12.642  39.695  1.00  0.00    -0.344 N 
ATOM      5  H2  UNL     1      11.293  12.484  39.563  1.00  0.00     0.167 HD
HETATM    6  C6  UNL     1      12.871  13.821  40.020  1.00  0.00     0.210 A 
HETATM    7  N3  UNL     1      14.203  13.666  40.112  1.00  0.00    -0.218 N 
HETATM    8  C10 UNL     1      14.439  12.367  39.838  1.00  0.00     0.175 A 
HETATM    9  N10 UNL     1      15.568  11.672  39.788  1.00  0.00    -0.172 N 
ATOM     10  H10 UNL     1      16.459  12.132  39.979  1.00  0.00     0.186 HD
HETATM   11  C11 UNL     1      15.539  10.335  39.479  1.00  0.00     0.683 A 
HETATM   12  N11 UNL     1      16.663   9.692  39.454  1.00  0.00    -0.234 N 
ATOM     13 1H11 UNL     1      17.540  10.177  39.650  1.00  0.00     0.174 HD
ATOM     14 2H11 UNL     1      16.642   8.699  39.224  1.00  0.00     0.174 HD
ENDROOT
BRANCH   1  15
HETATM   15  C3  UNL     1      14.332   8.286  38.894  1.00  0.00     0.327 C 
BRANCH  15  16
HETATM   16  O1  UNL     1      14.103   7.539  40.055  1.00  0.00    -0.330 OA
BRANCH  16  17
HETATM   17  C2  UNL     1      14.713   6.314  40.319  1.00  0.00     0.108 C 
HETATM   18  C1  UNL     1      14.017   5.241  40.080  1.00  0.00     0.052 C 
BRANCH  17  19
HETATM   19  C12 UNL     1      16.066   6.289  40.838  1.00  0.00     0.267 C 
BRANCH  19  20
HETATM   20  O3  UNL     1      16.491   4.934  40.833  1.00  0.00    -0.355 OA
ATOM     21  H3  UNL     1      15.778   4.417  41.187  1.00  0.00     0.214 HD
ENDBRANCH  19  20
BRANCH  19  22
HETATM   22  O4  UNL     1      16.094   6.773  42.164  1.00  0.00    -0.355 OA
ATOM     23  H4  UNL     1      15.521   6.256  42.718  1.00  0.00     0.214 HD
ENDBRANCH  19  22
BRANCH  19  24
HETATM   24  C13 UNL     1      17.112   7.034  40.076  1.00  0.00     0.181 C 
BRANCH  24  25
HETATM   25  O5  UNL     1      18.001   7.685  40.888  1.00  0.00    -0.355 OA
ATOM     26  H5  UNL     1      18.433   8.413  40.455  1.00  0.00     0.217 HD
ENDBRANCH  24  25
BRANCH  24  27
HETATM   27  C14 UNL     1      17.647   6.340  38.911  1.00  0.00     0.276 C 
HETATM   28  O6  UNL     1      18.531   5.461  39.113  1.00  0.00    -0.266 OA
HETATM   29  N12 UNL     1      17.230   6.599  37.607  1.00  0.00    -0.356 N 
ATOM     30  H12 UNL     1      16.517   7.305  37.428  1.00  0.00     0.162 HD
BRANCH  29  31
HETATM   31  C15 UNL     1      17.817   5.857  36.503  1.00  0.00     0.118 C 
HETATM   32  C16 UNL     1      17.236   4.461  36.406  1.00  0.00     0.026 C 
ENDBRANCH  29  31
ENDBRANCH  24  27
ENDBRANCH  19  24
ENDBRANCH  17  19
ENDBRANCH  16  17
ENDBRANCH  15  16
ENDBRANCH   1  15
BRANCH   2  33
HETATM   33  O2  UNL     1      11.995   9.749  39.004  1.00  0.00    -0.344 OA
ATOM     34  H2  UNL     1      11.647   9.681  38.123  1.00  0.00     0.219 HD
ENDBRANCH   2  33
BRANCH   7  35
HETATM   35  N4  UNL     1      15.083  14.697  40.433  1.00  0.00    -0.122 N 
ATOM     36  H4  UNL     1      15.332  15.340  39.681  1.00  0.00     0.206 HD
BRANCH  35  37
HETATM   37  C7  UNL     1      15.601  14.913  41.560  1.00  0.00     0.726 A 
HETATM   38  N5  UNL     1      16.454  15.931  41.734  1.00  0.00    -0.020 N 
HETATM   39  C8  UNL     1      17.034  16.204  42.923  1.00  0.00     0.705 A 
ATOM     40  H5  UNL     1      16.676  16.525  40.935  1.00  0.00     0.203 HD
HETATM   41  N7  UNL     1      16.744  15.427  43.964  1.00  0.00    -0.022 N 
HETATM   42  C9  UNL     1      15.890  14.400  43.814  1.00  0.00     0.705 A 
ATOM     43  H7  UNL     1      17.168  15.611  44.873  1.00  0.00     0.203 HD
HETATM   44  N8  UNL     1      15.618  13.658  44.822  1.00  0.00    -0.234 N 
HETATM   45  N9  UNL     1      15.307  14.130  42.607  1.00  0.00    -0.020 N 
ATOM     46  H82 UNL     1      16.053  13.859  45.723  1.00  0.00     0.174 HD
ATOM     47  H81 UNL     1      14.971  12.879  44.708  1.00  0.00     0.174 HD
ATOM     48  H9  UNL     1      14.661  13.348  42.505  1.00  0.00     0.203 HD
BRANCH  39  49
HETATM   49  N6  UNL     1      17.848  17.200  43.023  1.00  0.00    -0.234 N 
ATOM     50  H62 UNL     1      18.281  17.625  42.204  1.00  0.00     0.174 HD
ATOM     51  H61 UNL     1      18.070  17.580  43.943  1.00  0.00     0.174 HD
ENDBRANCH  39  49
ENDBRANCH  35  37
ENDBRANCH   7  35
TORSDOF 14
ENDMDL
MODEL 2
REMARK VINA RESULT: -5.636349119      0.251      1.382
REMARK  14 active torsions:
REMARK  status: ('A' for Active; 'I' for Inactive)
REMARK    1  A    between atoms: C2_2  and  O1_3 
REMARK    2  A    between atoms: C2_2  and  C12_38 
REMARK    3  A    between atoms: O1_3  and  C3_4 
REMARK    4  A    between atoms: C3_4  and  N1_5 
REMARK    5  A    between atoms: C4_6  and  O2_7 
REMARK    6  A    between atoms: N3_13  and  N4_14 
REMARK    7  A    between atoms: N4_14  and  C7_16 
REMARK    8  A    between atoms: C8_19  and  N6_20 
REMARK    9  A    between atoms: C12_38  and  O3_39 
REMARK   10  A    between atoms: C12_38  and  O4_41 
REMARK   11  A    between atoms: C12_38  and  C13_43 
REMARK   12  A    between atoms: C13_43  and  O5_44 
REMARK   13  A    between atoms: C13_43  and  C14_46 
REMARK       I    between atoms: C14_46  and  N12_48 
REMARK   14  A    between atoms: N12_48  and  C15_50 
ROOT
HETATM    1  N1  UNL     1      14.532   9.629  39.215  1.00  0.00    -0.138 N 
HETATM    2  C4  UNL     1      13.341  10.305  39.266  1.00  0.00     0.191 A 
HETATM    3  C5  UNL     1      13.405  11.644  39.568  1.00  0.00     0.132 A 
HETATM    4  N2  UNL     1      12.439  12.573  39.693  1.00  0.00    -0.344 N 
ATOM      5  H2  UNL     1      11.439  12.413  39.574  1.00  0.00     0.167 HD
HETATM    6  C6  UNL     1      13.020  13.756  40.004  1.00  0.00     0.210 A 
HETATM    7  N3  UNL     1      14.353  13.603  40.082  1.00  0.00    -0.218 N 
HETATM    8  C10 UNL     1      14.588  12.302  39.813  1.00  0.00     0.175 A 
HETATM    9  N10 UNL     1      15.718  11.609  39.755  1.00  0.00    -0.172 N 
ATOM     10  H10 UNL     1      16.610  12.072  39.932  1.00  0.00     0.186 HD
HETATM   11  C11 UNL     1      15.687  10.270  39.456  1.00  0.00     0.683 A 
HETATM   12  N11 UNL     1      16.812   9.629  39.421  1.00  0.00    -0.234 N 
ATOM     13 1H11 UNL     1      17.690  10.116  39.604  1.00  0.00     0.174 HD
ATOM     14 2H11 UNL     1      16.790   8.634  39.199  1.00  0.00     0.174 HD
ENDROOT
BRANCH   1  15
HETATM   15  C3  UNL     1      14.477   8.216  38.898  1.00  0.00     0.327 C 
BRANCH  15  16
HETATM   16  O1  UNL     1      14.222   7.479  40.060  1.00  0.00    -0.330 OA
BRANCH  16  17
HETATM   17  C2  UNL     1      14.787   6.234  40.327  1.00  0.00     0.108 C 
HETATM   18  C1  UNL     1      14.058   5.185  40.079  1.00  0.00     0.052 C 
BRANCH  17  19
HETATM   19  C12 UNL     1      16.135   6.162  40.858  1.00  0.00     0.267 C 
BRANCH  19  20
HETATM   20  O3  UNL     1      16.487   4.788  40.921  1.00  0.00    -0.355 OA
ATOM     21  H3  UNL     1      16.590   4.485  40.028  1.00  0.00     0.214 HD
ENDBRANCH  19  20
BRANCH  19  22
HETATM   22  O4  UNL     1      16.181   6.708  42.159  1.00  0.00    -0.355 OA
ATOM     23  H4  UNL     1      15.373   6.529  42.623  1.00  0.00     0.214 HD
ENDBRANCH  19  22
BRANCH  19  24
HETATM   24  C13 UNL     1      17.223   6.813  40.069  1.00  0.00     0.181 C 
BRANCH  24  25
HETATM   25  O5  UNL     1      18.062   7.569  40.841  1.00  0.00    -0.355 OA
ATOM     26  H5  UNL     1      18.808   7.905  40.357  1.00  0.00     0.217 HD
ENDBRANCH  24  25
BRANCH  24  27
HETATM   27  C14 UNL     1      17.825   5.980  39.035  1.00  0.00     0.276 C 
HETATM   28  O6  UNL     1      18.688   5.133  39.400  1.00  0.00    -0.266 OA
HETATM   29  N12 UNL     1      17.495   6.076  37.685  1.00  0.00    -0.356 N 
ATOM     30  H12 UNL     1      16.800   6.755  37.375  1.00  0.00     0.162 HD
BRANCH  29  31
HETATM   31  C15 UNL     1      18.145   5.204  36.721  1.00  0.00     0.118 C 
HETATM   32  C16 UNL     1      17.293   3.989  36.413  1.00  0.00     0.026 C 
ENDBRANCH  29  31
ENDBRANCH  24  27
ENDBRANCH  19  24
ENDBRANCH  17  19
ENDBRANCH  16  17
ENDBRANCH  15  16
ENDBRANCH   1  15
BRANCH   2  33
HETATM   33  O2  UNL     1      12.139   9.675  39.025  1.00  0.00    -0.344 OA
ATOM     34  H2  UNL     1      12.096   8.817  38.621  1.00  0.00     0.219 HD
ENDBRANCH   2  33
BRANCH   7  35
HETATM   35  N4  UNL     1      15.234  14.638  40.385  1.00  0.00    -0.122 N 
ATOM     36  H4  UNL     1      15.532  15.231  39.610  1.00  0.00     0.206 HD
BRANCH  35  37
HETATM   37  C7  UNL     1      15.700  14.912  41.522  1.00  0.00     0.726 A 
HETATM   38  N5  UNL     1      15.418  14.140  42.580  1.00  0.00    -0.020 N 
HETATM   39  C8  UNL     1      15.895  14.393  43.817  1.00  0.00     0.705 A 
ATOM     40  H5  UNL     1      14.817  13.326  42.445  1.00  0.00     0.203 HD
HETATM   41  N7  UNL     1      16.677  15.455  43.992  1.00  0.00    -0.022 N 
HETATM   42  C9  UNL     1      16.974  16.245  42.946  1.00  0.00     0.705 A 
ATOM     43  H7  UNL     1      17.051  15.669  44.917  1.00  0.00     0.203 HD
HETATM   44  N8  UNL     1      17.729  17.265  43.125  1.00  0.00    -0.234 N 
HETATM   45  N9  UNL     1      16.488  15.982  41.696  1.00  0.00    -0.020 N 
ATOM     46  H82 UNL     1      18.091  17.461  44.058  1.00  0.00     0.174 HD
ATOM     47  H81 UNL     1      17.954  17.864  42.331  1.00  0.00     0.174 HD
ATOM     48  H9  UNL     1      16.721  16.588  40.910  1.00  0.00     0.203 HD
BRANCH  39  49
HETATM   49  N6  UNL     1      15.585  13.609  44.794  1.00  0.00    -0.234 N 
ATOM     50  H62 UNL     1      15.050  12.753  44.647  1.00  0.00     0.174 HD
ATOM     51  H61 UNL     1      15.878  13.843  45.742  1.00  0.00     0.174 HD
ENDBRANCH  39  49
ENDBRANCH  35  37
ENDBRANCH   7  35
TORSDOF 14
ENDMDL
MODEL 3
REMARK VINA RESULT: -5.523030673      1.434      2.554
REMARK  14 active torsions:
REMARK  status: ('A' for Active; 'I' for Inactive)
REMARK    1  A    between atoms: C2_2  and  O1_3 
REMARK    2  A    between atoms: C2_2  and  C12_38 
REMARK    3  A    between atoms: O1_3  and  C3_4 
REMARK    4  A    between atoms: C3_4  and  N1_5 
REMARK    5  A    between atoms: C4_6  and  O2_7 
REMARK    6  A    between atoms: N3_13  and  N4_14 
REMARK    7  A    between atoms: N4_14  and  C7_16 
REMARK    8  A    between atoms: C8_19  and  N6_20 
REMARK    9  A    between atoms: C12_38  and  O3_39 
REMARK   10  A    between atoms: C12_38  and  O4_41 
REMARK   11  A    between atoms: C12_38  and  C13_43 
REMARK   12  A    between atoms: C13_43  and  O5_44 
REMARK   13  A    between atoms: C13_43  and  C14_46 
REMARK       I    between atoms: C14_46  and  N12_48 
REMARK   14  A    between atoms: N12_48  and  C15_50 
ROOT
HETATM    1  N1  UNL     1      15.798   9.367  39.440  1.00  0.00    -0.138 N 
HETATM    2  C4  UNL     1      14.465   9.656  39.303  1.00  0.00     0.191 A 
HETATM    3  C5  UNL     1      14.089  10.956  39.548  1.00  0.00     0.132 A 
HETATM    4  N2  UNL     1      12.883  11.553  39.503  1.00  0.00    -0.344 N 
ATOM      5  H2  UNL     1      12.001  11.101  39.263  1.00  0.00     0.167 HD
HETATM    6  C6  UNL     1      13.040  12.857  39.831  1.00  0.00     0.210 A 
HETATM    7  N3  UNL     1      14.335  13.110  40.089  1.00  0.00    -0.218 N 
HETATM    8  C10 UNL     1      14.979  11.938  39.914  1.00  0.00     0.175 A 
HETATM    9  N10 UNL     1      16.259  11.614  40.035  1.00  0.00    -0.172 N 
ATOM     10  H10 UNL     1      16.941  12.324  40.305  1.00  0.00     0.186 HD
HETATM   11  C11 UNL     1      16.667  10.325  39.798  1.00  0.00     0.683 A 
HETATM   12  N11 UNL     1      17.925  10.050  39.940  1.00  0.00    -0.234 N 
ATOM     13 1H11 UNL     1      18.586  10.778  40.212  1.00  0.00     0.174 HD
ATOM     14 2H11 UNL     1      18.228   9.093  39.763  1.00  0.00     0.174 HD
ENDROOT
BRANCH   1  15
HETATM   15  C3  UNL     1      16.207   8.000  39.184  1.00  0.00     0.327 C 
BRANCH  15  16
HETATM   16  O1  UNL     1      16.484   7.355  40.395  1.00  0.00    -0.330 OA
BRANCH  16  17
HETATM   17  C2  UNL     1      15.743   6.282  40.887  1.00  0.00     0.108 C 
HETATM   18  C1  UNL     1      16.091   5.802  42.045  1.00  0.00     0.052 C 
BRANCH  17  19
HETATM   19  C12 UNL     1      14.642   5.758  40.103  1.00  0.00     0.267 C 
BRANCH  19  20
HETATM   20  O3  UNL     1      14.846   6.177  38.762  1.00  0.00    -0.355 OA
ATOM     21  H3  UNL     1      15.784   6.260  38.636  1.00  0.00     0.214 HD
ENDBRANCH  19  20
BRANCH  19  22
HETATM   22  O4  UNL     1      13.415   6.283  40.565  1.00  0.00    -0.355 OA
ATOM     23  H4  UNL     1      12.702   6.002  40.005  1.00  0.00     0.214 HD
ENDBRANCH  19  22
BRANCH  19  24
HETATM   24  C13 UNL     1      14.486   4.275  40.034  1.00  0.00     0.181 C 
BRANCH  24  25
HETATM   25  O5  UNL     1      13.185   3.881  39.878  1.00  0.00    -0.355 OA
ATOM     26  H5  UNL     1      12.597   4.289  40.503  1.00  0.00     0.217 HD
ENDBRANCH  24  25
BRANCH  24  27
HETATM   27  C14 UNL     1      15.501   3.578  39.252  1.00  0.00     0.276 C 
HETATM   28  O6  UNL     1      16.439   3.017  39.886  1.00  0.00    -0.266 OA
HETATM   29  N12 UNL     1      15.479   3.504  37.862  1.00  0.00    -0.356 N 
ATOM     30  H12 UNL     1      14.728   3.952  37.337  1.00  0.00     0.162 HD
BRANCH  29  31
HETATM   31  C15 UNL     1      16.533   2.787  37.163  1.00  0.00     0.118 C 
HETATM   32  C16 UNL     1      17.405   3.731  36.361  1.00  0.00     0.026 C 
ENDBRANCH  29  31
ENDBRANCH  24  27
ENDBRANCH  19  24
ENDBRANCH  17  19
ENDBRANCH  16  17
ENDBRANCH  15  16
ENDBRANCH   1  15
BRANCH   2  33
HETATM   33  O2  UNL     1      13.548   8.695  38.938  1.00  0.00    -0.344 OA
ATOM     34  H2  UNL     1      12.701   8.924  38.576  1.00  0.00     0.219 HD
ENDBRANCH   2  33
BRANCH   7  35
HETATM   35  N4  UNL     1      14.821  14.363  40.455  1.00  0.00    -0.122 N 
ATOM     36  H4  UNL     1      14.683  15.124  39.789  1.00  0.00     0.206 HD
BRANCH  35  37
HETATM   37  C7  UNL     1      15.415  14.649  41.528  1.00  0.00     0.726 A 
HETATM   38  N5  UNL     1      15.160  13.966  42.652  1.00  0.00    -0.020 N 
HETATM   39  C8  UNL     1      15.771  14.234  43.825  1.00  0.00     0.705 A 
ATOM     40  H5  UNL     1      14.474  13.210  42.620  1.00  0.00     0.203 HD
HETATM   41  N7  UNL     1      16.665  15.220  43.865  1.00  0.00    -0.022 N 
HETATM   42  C9  UNL     1      16.937  15.921  42.751  1.00  0.00     0.705 A 
ATOM     43  H7  UNL     1      17.141  15.443  44.739  1.00  0.00     0.203 HD
HETATM   44  N8  UNL     1      17.798  16.867  42.800  1.00  0.00    -0.234 N 
HETATM   45  N9  UNL     1      16.313  15.642  41.566  1.00  0.00    -0.020 N 
ATOM     46  H82 UNL     1      18.263  17.075  43.684  1.00  0.00     0.174 HD
ATOM     47  H81 UNL     1      18.004  17.399  41.954  1.00  0.00     0.174 HD
ATOM     48  H9  UNL     1      16.528  16.180  40.727  1.00  0.00     0.203 HD
BRANCH  39  49
HETATM   49  N6  UNL     1      15.481  13.537  44.872  1.00  0.00    -0.234 N 
ATOM     50  H62 UNL     1      16.108  12.816  45.228  1.00  0.00     0.174 HD
ATOM     51  H61 UNL     1      14.602  13.705  45.362  1.00  0.00     0.174 HD
ENDBRANCH  39  49
ENDBRANCH  35  37
ENDBRANCH   7  35
TORSDOF 14
ENDMDL
MODEL 4
REMARK VINA RESULT: -5.500805636      1.432      2.167
REMARK  14 active torsions:
REMARK  status: ('A' for Active; 'I' for Inactive)
REMARK    1  A    between atoms: C2_2  and  O1_3 
REMARK    2  A    between atoms: C2_2  and  C12_38 
REMARK    3  A    between atoms: O1_3  and  C3_4 
REMARK    4  A    between atoms: C3_4  and  N1_5 
REMARK    5  A    between atoms: C4_6  and  O2_7 
REMARK    6  A    between atoms: N3_13  and  N4_14 
REMARK    7  A    between atoms: N4_14  and  C7_16 
REMARK    8  A    between atoms: C8_19  and  N6_20 
REMARK    9  A    between atoms: C12_38  and  O3_39 
REMARK   10  A    between atoms: C12_38  and  O4_41 
REMARK   11  A    between atoms: C12_38  and  C13_43 
REMARK   12  A    between atoms: C13_43  and  O5_44 
REMARK   13  A    between atoms: C13_43  and  C14_46 
REMARK       I    between atoms: C14_46  and  N12_48 
REMARK   14  A    between atoms: N12_48  and  C15_50 
ROOT
HETATM    1  N1  UNL     1      15.840   9.319  39.412  1.00  0.00    -0.138 N 
HETATM    2  C4  UNL     1      14.509   9.614  39.271  1.00  0.00     0.191 A 
HETATM    3  C5  UNL     1      14.137  10.913  39.523  1.00  0.00     0.132 A 
HETATM    4  N2  UNL     1      12.933  11.516  39.477  1.00  0.00    -0.344 N 
ATOM      5  H2  UNL     1      12.051  11.069  39.230  1.00  0.00     0.167 HD
HETATM    6  C6  UNL     1      13.094  12.817  39.815  1.00  0.00     0.210 A 
HETATM    7  N3  UNL     1      14.389  13.063  40.080  1.00  0.00    -0.218 N 
HETATM    8  C10 UNL     1      15.029  11.890  39.900  1.00  0.00     0.175 A 
HETATM    9  N10 UNL     1      16.308  11.560  40.025  1.00  0.00    -0.172 N 
ATOM     10  H10 UNL     1      16.991  12.265  40.303  1.00  0.00     0.186 HD
HETATM   11  C11 UNL     1      16.712  10.272  39.780  1.00  0.00     0.683 A 
HETATM   12  N11 UNL     1      17.968   9.991  39.926  1.00  0.00    -0.234 N 
ATOM     13 1H11 UNL     1      18.630  10.715  40.206  1.00  0.00     0.174 HD
ATOM     14 2H11 UNL     1      18.268   9.033  39.744  1.00  0.00     0.174 HD
ENDROOT
BRANCH   1  15
HETATM   15  C3  UNL     1      16.245   7.952  39.149  1.00  0.00     0.327 C 
BRANCH  15  16
HETATM   16  O1  UNL     1      16.528   7.302  40.355  1.00  0.00    -0.330 OA
BRANCH  16  17
HETATM   17  C2  UNL     1      15.750   6.271  40.880  1.00  0.00     0.108 C 
HETATM   18  C1  UNL     1      16.066   5.832  42.062  1.00  0.00     0.052 C 
BRANCH  17  19
HETATM   19  C12 UNL     1      14.646   5.746  40.101  1.00  0.00     0.267 C 
BRANCH  19  20
HETATM   20  O3  UNL     1      14.836   6.178  38.762  1.00  0.00    -0.355 OA
ATOM     21  H3  UNL     1      13.976   6.349  38.399  1.00  0.00     0.214 HD
ENDBRANCH  19  20
BRANCH  19  22
HETATM   22  O4  UNL     1      13.419   6.258  40.577  1.00  0.00    -0.355 OA
ATOM     23  H4  UNL     1      12.691   5.818  40.156  1.00  0.00     0.214 HD
ENDBRANCH  19  22
BRANCH  19  24
HETATM   24  C13 UNL     1      14.501   4.262  40.021  1.00  0.00     0.181 C 
BRANCH  24  25
HETATM   25  O5  UNL     1      13.203   3.860  39.861  1.00  0.00    -0.355 OA
ATOM     26  H5  UNL     1      12.604   4.298  40.455  1.00  0.00     0.217 HD
ENDBRANCH  24  25
BRANCH  24  27
HETATM   27  C14 UNL     1      15.521   3.579  39.233  1.00  0.00     0.276 C 
HETATM   28  O6  UNL     1      16.421   2.956  39.863  1.00  0.00    -0.266 OA
HETATM   29  N12 UNL     1      15.543   3.582  37.840  1.00  0.00    -0.356 N 
ATOM     30  H12 UNL     1      14.822   4.080  37.318  1.00  0.00     0.162 HD
BRANCH  29  31
HETATM   31  C15 UNL     1      16.598   2.872  37.136  1.00  0.00     0.118 C 
HETATM   32  C16 UNL     1      17.414   3.812  36.273  1.00  0.00     0.026 C 
ENDBRANCH  29  31
ENDBRANCH  24  27
ENDBRANCH  19  24
ENDBRANCH  17  19
ENDBRANCH  16  17
ENDBRANCH  15  16
ENDBRANCH   1  15
BRANCH   2  33
HETATM   33  O2  UNL     1      13.590   8.659  38.895  1.00  0.00    -0.344 OA
ATOM     34  H2  UNL     1      12.685   8.696  39.181  1.00  0.00     0.219 HD
ENDBRANCH   2  33
BRANCH   7  35
HETATM   35  N4  UNL     1      14.878  14.312  40.457  1.00  0.00    -0.122 N 
ATOM     36  H4  UNL     1      14.779  15.069  39.780  1.00  0.00     0.206 HD
BRANCH  35  37
HETATM   37  C7  UNL     1      15.429  14.598  41.552  1.00  0.00     0.726 A 
HETATM   38  N5  UNL     1      16.333  15.585  41.623  1.00  0.00    -0.020 N 
HETATM   39  C8  UNL     1      16.950  15.929  42.774  1.00  0.00     0.705 A 
ATOM     40  H5  UNL     1      16.565  16.098  40.772  1.00  0.00     0.203 HD
HETATM   41  N7  UNL     1      16.647  15.259  43.883  1.00  0.00    -0.022 N 
HETATM   42  C9  UNL     1      15.744  14.264  43.836  1.00  0.00     0.705 A 
ATOM     43  H7  UNL     1      17.098  15.499  44.765  1.00  0.00     0.203 HD
HETATM   44  N8  UNL     1      15.459  13.625  44.909  1.00  0.00    -0.234 N 
HETATM   45  N9  UNL     1      15.123  13.922  42.667  1.00  0.00    -0.020 N 
ATOM     46  H82 UNL     1      15.922  13.881  45.781  1.00  0.00     0.174 HD
ATOM     47  H81 UNL     1      14.774  12.871  44.874  1.00  0.00     0.174 HD
ATOM     48  H9  UNL     1      14.439  13.166  42.644  1.00  0.00     0.203 HD
BRANCH  39  49
HETATM   49  N6  UNL     1      17.811  16.890  42.774  1.00  0.00    -0.234 N 
ATOM     50  H62 UNL     1      18.695  16.820  42.270  1.00  0.00     0.174 HD
ATOM     51  H61 UNL     1      17.611  17.747  43.290  1.00  0.00     0.174 HD
ENDBRANCH  39  49
ENDBRANCH  35  37
ENDBRANCH   7  35
TORSDOF 14
ENDMDL
MODEL 5
REMARK VINA RESULT: -5.431911299      1.031      1.902
REMARK  14 active torsions:
REMARK  status: ('A' for Active; 'I' for Inactive)
REMARK    1  A    between atoms: C2_2  and  O1_3 
REMARK    2  A    between atoms: C2_2  and  C12_38 
REMARK    3  A    between atoms: O1_3  and  C3_4 
REMARK    4  A    between atoms: C3_4  and  N1_5 
REMARK    5  A    between atoms: C4_6  and  O2_7 
REMARK    6  A    between atoms: N3_13  and  N4_14 
REMARK    7  A    between atoms: N4_14  and  C7_16 
REMARK    8  A    between atoms: C8_19  and  N6_20 
REMARK    9  A    between atoms: C12_38  and  O3_39 
REMARK   10  A    between atoms: C12_38  and  O4_41 
REMARK   11  A    between atoms: C12_38  and  C13_43 
REMARK   12  A    between atoms: C13_43  and  O5_44 
REMARK   13  A    between atoms: C13_43  and  C14_46 
REMARK       I    between atoms: C14_46  and  N12_48 
REMARK   14  A    between atoms: N12_48  and  C15_50 
ROOT
HETATM    1  N1  UNL     1      14.615  10.097  39.447  1.00  0.00    -0.138 N 
HETATM    2  C4  UNL     1      13.368  10.657  39.348  1.00  0.00     0.191 A 
HETATM    3  C5  UNL     1      13.273  12.001  39.619  1.00  0.00     0.132 A 
HETATM    4  N2  UNL     1      12.215  12.835  39.611  1.00  0.00    -0.344 N 
ATOM      5  H2  UNL     1      11.255  12.578  39.388  1.00  0.00     0.167 HD
HETATM    6  C6  UNL     1      12.646  14.073  39.952  1.00  0.00     0.210 A 
HETATM    7  N3  UNL     1      13.970  14.049  40.180  1.00  0.00    -0.218 N 
HETATM    8  C10 UNL     1      14.354  12.773  39.974  1.00  0.00     0.175 A 
HETATM    9  N10 UNL     1      15.543  12.190  40.059  1.00  0.00    -0.172 N 
ATOM     10  H10 UNL     1      16.362  12.739  40.321  1.00  0.00     0.186 HD
HETATM   11  C11 UNL     1      15.671  10.849  39.795  1.00  0.00     0.683 A 
HETATM   12  N11 UNL     1      16.848  10.319  39.902  1.00  0.00    -0.234 N 
ATOM     13 1H11 UNL     1      17.651  10.890  40.166  1.00  0.00     0.174 HD
ATOM     14 2H11 UNL     1      16.943   9.323  39.705  1.00  0.00     0.174 HD
ENDROOT
BRANCH   1  15
HETATM   15  C3  UNL     1      14.728   8.680  39.164  1.00  0.00     0.327 C 
BRANCH  15  16
HETATM   16  O1  UNL     1      14.995   7.981  40.347  1.00  0.00    -0.330 OA
BRANCH  16  17
HETATM   17  C2  UNL     1      16.041   7.071  40.488  1.00  0.00     0.108 C 
HETATM   18  C1  UNL     1      15.837   6.048  41.265  1.00  0.00     0.052 C 
BRANCH  17  19
HETATM   19  C12 UNL     1      17.285   7.299  39.777  1.00  0.00     0.267 C 
BRANCH  19  20
HETATM   20  O3  UNL     1      17.990   6.067  39.763  1.00  0.00    -0.355 OA
ATOM     21  H3  UNL     1      18.788   6.197  40.261  1.00  0.00     0.214 HD
ENDBRANCH  19  20
BRANCH  19  22
HETATM   22  O4  UNL     1      18.065   8.266  40.448  1.00  0.00    -0.355 OA
ATOM     23  H4  UNL     1      18.290   7.964  41.320  1.00  0.00     0.214 HD
ENDBRANCH  19  22
BRANCH  19  24
HETATM   24  C13 UNL     1      17.197   7.721  38.348  1.00  0.00     0.181 C 
BRANCH  24  25
HETATM   25  O5  UNL     1      18.110   8.684  38.018  1.00  0.00    -0.355 OA
ATOM     26  H5  UNL     1      18.866   8.691  38.594  1.00  0.00     0.217 HD
ENDBRANCH  24  25
BRANCH  24  27
HETATM   27  C14 UNL     1      16.981   6.640  37.392  1.00  0.00     0.276 C 
HETATM   28  O6  UNL     1      15.892   6.005  37.470  1.00  0.00    -0.266 OA
HETATM   29  N12 UNL     1      17.907   6.286  36.414  1.00  0.00    -0.356 N 
ATOM     30  H12 UNL     1      18.790   6.791  36.339  1.00  0.00     0.162 HD
BRANCH  29  31
HETATM   31  C15 UNL     1      17.608   5.195  35.502  1.00  0.00     0.118 C 
HETATM   32  C16 UNL     1      18.095   3.869  36.050  1.00  0.00     0.026 C 
ENDBRANCH  29  31
ENDBRANCH  24  27
ENDBRANCH  19  24
ENDBRANCH  17  19
ENDBRANCH  16  17
ENDBRANCH  15  16
ENDBRANCH   1  15
BRANCH   2  33
HETATM   33  O2  UNL     1      12.264   9.911  38.994  1.00  0.00    -0.344 OA
ATOM     34  H2  UNL     1      11.971   9.174  39.515  1.00  0.00     0.219 HD
ENDBRANCH   2  33
BRANCH   7  35
HETATM   35  N4  UNL     1      14.712  15.169  40.550  1.00  0.00    -0.122 N 
ATOM     36  H4  UNL     1      14.684  15.969  39.917  1.00  0.00     0.206 HD
BRANCH  35  37
HETATM   37  C7  UNL     1      15.413  15.290  41.588  1.00  0.00     0.726 A 
HETATM   38  N5  UNL     1      15.220  14.482  42.640  1.00  0.00    -0.020 N 
HETATM   39  C8  UNL     1      15.947  14.572  43.774  1.00  0.00     0.705 A 
ATOM     40  H5  UNL     1      14.492  13.769  42.581  1.00  0.00     0.203 HD
HETATM   41  N7  UNL     1      16.894  15.504  43.849  1.00  0.00    -0.022 N 
HETATM   42  C9  UNL     1      17.107  16.326  42.807  1.00  0.00     0.705 A 
ATOM     43  H7  UNL     1      17.458  15.593  44.694  1.00  0.00     0.203 HD
HETATM   44  N8  UNL     1      18.022  17.219  42.889  1.00  0.00    -0.234 N 
HETATM   45  N9  UNL     1      16.367  16.228  41.662  1.00  0.00    -0.020 N 
ATOM     46  H82 UNL     1      18.574  17.292  43.744  1.00  0.00     0.174 HD
ATOM     47  H81 UNL     1      18.182  17.843  42.099  1.00  0.00     0.174 HD
ATOM     48  H9  UNL     1      16.537  16.857  40.878  1.00  0.00     0.203 HD
BRANCH  39  49
HETATM   49  N6  UNL     1      15.710  13.763  44.751  1.00  0.00    -0.234 N 
ATOM     50  H62 UNL     1      16.422  13.537  45.446  1.00  0.00     0.174 HD
ATOM     51  H61 UNL     1      14.790  13.332  44.838  1.00  0.00     0.174 HD
ENDBRANCH  39  49
ENDBRANCH  35  37
ENDBRANCH   7  35
TORSDOF 14
ENDMDL
