MODEL 1
REMARK VINA RESULT: -0.688163824      0.000      0.000
REMARK  11 active torsions:
REMARK  status: ('A' for Active; 'I' for Inactive)
REMARK       I    between atoms: N1_2  and  C2_4 
REMARK    1  A    between atoms: C2_4  and  C3_6 
REMARK    2  A    between atoms: C4_8  and  C5_9 
REMARK    3  A    between atoms: C5_9  and  N2_10 
REMARK    4  A    between atoms: C5_9  and  N7_24 
REMARK    5  A    between atoms: N2_10  and  C6_12 
REMARK    6  A    between atoms: C9_20  and  N6_21 
REMARK    7  A    between atoms: N9_30  and  C12_31 
REMARK    8  A    between atoms: C12_31  and  O4_32 
REMARK    9  A    between atoms: C14_35  and  N10_36 
REMARK       I    between atoms: N10_36  and  C15_38 
REMARK       I    between atoms: C15_38  and  N11_39 
REMARK       I    between atoms: C15_38  and  N12_43 
REMARK   10  A    between atoms: C16_47  and  N13_48 
REMARK   11  A    between atoms: N13_48  and  O5_50 
ROOT
HETATM    1  C3  UNL     1      17.435  10.440  39.937  1.00  0.00     0.174 A 
HETATM    2  O2  UNL     1      17.504   9.162  39.624  1.00  0.00    -0.299 OA
HETATM    3  C4  UNL     1      16.508   8.505  39.062  1.00  0.00     0.124 A 
HETATM    4  C13 UNL     1      15.332   9.215  38.791  1.00  0.00     0.073 A 
HETATM    5  C14 UNL     1      15.208  10.547  39.096  1.00  0.00     0.065 A 
HETATM    6  C16 UNL     1      16.274  11.186  39.681  1.00  0.00     0.120 A 
ENDROOT
BRANCH   3   7
HETATM    7  C5  UNL     1      16.666   7.084  38.754  1.00  0.00     0.163 C 
BRANCH   7   8
HETATM    8  N2  UNL     1      16.275   6.597  37.486  1.00  0.00    -0.333 N 
ATOM      9  H2  UNL     1      15.400   6.935  37.085  1.00  0.00     0.168 HD
BRANCH   8  10
HETATM   10  C6  UNL     1      17.058   5.637  36.727  1.00  0.00     0.119 A 
HETATM   11  C7  UNL     1      16.877   4.296  36.754  1.00  0.00     0.148 A 
HETATM   12  N3  UNL     1      15.915   3.711  37.608  1.00  0.00    -0.080 NA
HETATM   13  N4  UNL     1      17.610   3.446  36.006  1.00  0.00    -0.339 N 
HETATM   14  C8  UNL     1      18.547   3.932  35.211  1.00  0.00     0.183 A 
ATOM     15  H4  UNL     1      17.444   2.442  36.054  1.00  0.00     0.167 HD
HETATM   16  N5  UNL     1      18.762   5.275  35.154  1.00  0.00    -0.337 N 
HETATM   17  C9  UNL     1      18.055   6.139  35.880  1.00  0.00     0.130 A 
ATOM     18  H5  UNL     1      19.490   5.630  34.535  1.00  0.00     0.168 HD
BRANCH  17  19
HETATM   19  N6  UNL     1      18.265   7.390  35.818  1.00  0.00    -0.384 N 
ATOM     20  H62 UNL     1      17.515   8.050  35.611  1.00  0.00     0.157 HD
ATOM     21  H61 UNL     1      19.203   7.758  35.978  1.00  0.00     0.157 HD
ENDBRANCH  17  19
ENDBRANCH   8  10
ENDBRANCH   7   8
BRANCH   7  22
HETATM   22  N7  UNL     1      16.307   6.333  39.914  1.00  0.00    -0.224 N 
HETATM   23  C10 UNL     1      17.152   6.166  40.973  1.00  0.00     0.213 A 
HETATM   24  N8  UNL     1      16.589   5.462  41.932  1.00  0.00    -0.302 N 
HETATM   25  C11 UNL     1      15.365   5.160  41.507  1.00  0.00     0.344 A 
ATOM     26  H8  UNL     1      17.007   5.200  42.824  1.00  0.00     0.171 HD
HETATM   27  O3  UNL     1      14.519   4.491  42.153  1.00  0.00    -0.245 OA
HETATM   28  N9  UNL     1      15.218   5.712  40.253  1.00  0.00    -0.209 N 
BRANCH  28  29
HETATM   29  C12 UNL     1      13.977   5.560  39.555  1.00  0.00     0.319 C 
BRANCH  29  30
HETATM   30  O4  UNL     1      13.675   4.210  39.250  1.00  0.00    -0.380 OA
ATOM     31  H4  UNL     1      12.744   4.055  39.135  1.00  0.00     0.211 HD
ENDBRANCH  29  30
ENDBRANCH  28  29
ENDBRANCH   7  22
ENDBRANCH   3   7
BRANCH   1  32
HETATM   32  C2  UNL     1      18.595  11.065  40.555  1.00  0.00     0.277 C 
HETATM   33  N1  UNL     1      19.868  10.508  40.388  1.00  0.00    -0.359 N 
HETATM   34  C1  UNL     1      21.046  11.105  40.990  1.00  0.00     0.149 C 
ATOM     35  H1  UNL     1      19.970   9.661  39.829  1.00  0.00     0.162 HD
HETATM   36  O1  UNL     1      18.425  12.105  41.235  1.00  0.00    -0.265 OA
ENDBRANCH   1  32
BRANCH   5  37
HETATM   37  N10 UNL     1      14.140  11.210  38.856  1.00  0.00    -0.339 N 
HETATM   38  C15 UNL     1      13.111  11.523  39.795  1.00  0.00     0.480 C 
HETATM   39  N11 UNL     1      12.025  10.545  39.774  1.00  0.00    -0.033 N 
HETATM   40  N12 UNL     1      12.520  12.792  39.410  1.00  0.00    -0.033 N 
ATOM     41 3H11 UNL     1      11.644  10.437  38.834  1.00  0.00     0.278 HD
ATOM     42 2H11 UNL     1      12.378   9.599  39.917  1.00  0.00     0.278 HD
ATOM     43 1H11 UNL     1      11.290  10.769  40.445  1.00  0.00     0.278 HD
ATOM     44 3H12 UNL     1      13.211  13.537  39.320  1.00  0.00     0.278 HD
ATOM     45 2H12 UNL     1      12.188  12.795  38.446  1.00  0.00     0.278 HD
ATOM     46 1H12 UNL     1      11.785  13.016  40.081  1.00  0.00     0.278 HD
ATOM     47  H10 UNL     1      14.012  11.548  37.902  1.00  0.00     0.163 HD
ENDBRANCH   5  37
BRANCH   6  48
HETATM   48  N13 UNL     1      16.242  12.565  40.036  1.00  0.00    -0.264 N 
ATOM     49  H13 UNL     1      16.624  13.266  39.400  1.00  0.00     0.194 HD
BRANCH  48  50
HETATM   50  O5  UNL     1      15.746  12.912  41.122  1.00  0.00    -0.289 OA
ATOM     51  H5  UNL     1      16.035  13.716  41.537  1.00  0.00     0.244 HD
ENDBRANCH  48  50
ENDBRANCH   6  48
TORSDOF 11
ENDMDL
MODEL 2
REMARK VINA RESULT: -0.565163426      1.088      3.525
REMARK  11 active torsions:
REMARK  status: ('A' for Active; 'I' for Inactive)
REMARK       I    between atoms: N1_2  and  C2_4 
REMARK    1  A    between atoms: C2_4  and  C3_6 
REMARK    2  A    between atoms: C4_8  and  C5_9 
REMARK    3  A    between atoms: C5_9  and  N2_10 
REMARK    4  A    between atoms: C5_9  and  N7_24 
REMARK    5  A    between atoms: N2_10  and  C6_12 
REMARK    6  A    between atoms: C9_20  and  N6_21 
REMARK    7  A    between atoms: N9_30  and  C12_31 
REMARK    8  A    between atoms: C12_31  and  O4_32 
REMARK    9  A    between atoms: C14_35  and  N10_36 
REMARK       I    between atoms: N10_36  and  C15_38 
REMARK       I    between atoms: C15_38  and  N11_39 
REMARK       I    between atoms: C15_38  and  N12_43 
REMARK   10  A    between atoms: C16_47  and  N13_48 
REMARK   11  A    between atoms: N13_48  and  O5_50 
ROOT
HETATM    1  C3  UNL     1      15.396  10.367  39.876  1.00  0.00     0.174 A 
HETATM    2  O2  UNL     1      15.491   9.109  39.496  1.00  0.00    -0.299 OA
HETATM    3  C4  UNL     1      16.642   8.471  39.404  1.00  0.00     0.124 A 
HETATM    4  C13 UNL     1      17.806   9.180  39.730  1.00  0.00     0.073 A 
HETATM    5  C14 UNL     1      17.762  10.491  40.132  1.00  0.00     0.065 A 
HETATM    6  C16 UNL     1      16.538  11.110  40.212  1.00  0.00     0.120 A 
ENDROOT
BRANCH   3   7
HETATM    7  C5  UNL     1      16.659   7.076  38.967  1.00  0.00     0.163 C 
BRANCH   7   8
HETATM    8  N2  UNL     1      16.278   6.754  37.644  1.00  0.00    -0.333 N 
ATOM      9  H2  UNL     1      15.401   7.133  37.286  1.00  0.00     0.168 HD
BRANCH   8  10
HETATM   10  C6  UNL     1      17.074   5.910  36.771  1.00  0.00     0.119 A 
HETATM   11  C7  UNL     1      16.939   4.569  36.655  1.00  0.00     0.148 A 
HETATM   12  N3  UNL     1      16.017   3.861  37.458  1.00  0.00    -0.080 NA
HETATM   13  N4  UNL     1      17.683   3.832  35.805  1.00  0.00    -0.339 N 
HETATM   14  C8  UNL     1      18.584   4.434  35.049  1.00  0.00     0.183 A 
ATOM     15  H4  UNL     1      17.552   2.822  35.747  1.00  0.00     0.167 HD
HETATM   16  N5  UNL     1      18.753   5.781  35.135  1.00  0.00    -0.337 N 
HETATM   17  C9  UNL     1      18.035   6.536  35.963  1.00  0.00     0.130 A 
ATOM     18  H5  UNL     1      19.454   6.228  34.544  1.00  0.00     0.168 HD
BRANCH  17  19
HETATM   19  N6  UNL     1      18.201   7.794  36.034  1.00  0.00    -0.384 N 
ATOM     20  H62 UNL     1      17.691   8.365  36.707  1.00  0.00     0.157 HD
ATOM     21  H61 UNL     1      18.859   8.257  35.407  1.00  0.00     0.157 HD
ENDBRANCH  17  19
ENDBRANCH   8  10
ENDBRANCH   7   8
BRANCH   7  22
HETATM   22  N7  UNL     1      16.165   6.267  40.034  1.00  0.00    -0.224 N 
HETATM   23  C10 UNL     1      16.844   6.102  41.207  1.00  0.00     0.213 A 
HETATM   24  N8  UNL     1      16.177   5.338  42.046  1.00  0.00    -0.302 N 
HETATM   25  C11 UNL     1      15.051   4.994  41.427  1.00  0.00     0.344 A 
ATOM     26  H8  UNL     1      16.466   5.064  42.985  1.00  0.00     0.171 HD
HETATM   27  O3  UNL     1      14.151   4.263  41.914  1.00  0.00    -0.245 OA
HETATM   28  N9  UNL     1      15.070   5.583  40.182  1.00  0.00    -0.209 N 
BRANCH  28  29
HETATM   29  C12 UNL     1      13.962   5.399  39.295  1.00  0.00     0.319 C 
BRANCH  29  30
HETATM   30  O4  UNL     1      13.531   4.051  39.221  1.00  0.00    -0.380 OA
ATOM     31  H4  UNL     1      12.981   3.878  38.465  1.00  0.00     0.211 HD
ENDBRANCH  29  30
ENDBRANCH  28  29
ENDBRANCH   7  22
ENDBRANCH   3   7
BRANCH   1  32
HETATM   32  C2  UNL     1      14.074  10.972  39.943  1.00  0.00     0.277 C 
HETATM   33  N1  UNL     1      13.825  12.190  39.299  1.00  0.00    -0.359 N 
HETATM   34  C1  UNL     1      12.519  12.822  39.344  1.00  0.00     0.149 C 
ATOM     35  H1  UNL     1      14.580  12.645  38.786  1.00  0.00     0.162 HD
HETATM   36  O1  UNL     1      13.175  10.381  40.584  1.00  0.00    -0.265 OA
ENDBRANCH   1  32
BRANCH   5  37
HETATM   37  N10 UNL     1      18.816  11.152  40.434  1.00  0.00    -0.339 N 
HETATM   38  C15 UNL     1      20.022  10.615  40.977  1.00  0.00     0.480 C 
HETATM   39  N11 UNL     1      20.052  10.683  42.436  1.00  0.00    -0.033 N 
HETATM   40  N12 UNL     1      21.128  11.431  40.511  1.00  0.00    -0.033 N 
ATOM     41 3H11 UNL     1      19.894  11.636  42.764  1.00  0.00     0.278 HD
ATOM     42 2H11 UNL     1      19.233  10.232  42.843  1.00  0.00     0.278 HD
ATOM     43 1H11 UNL     1      20.914  10.300  42.824  1.00  0.00     0.278 HD
ATOM     44 3H12 UNL     1      21.157  11.514  39.494  1.00  0.00     0.278 HD
ATOM     45 2H12 UNL     1      21.006  12.421  40.725  1.00  0.00     0.278 HD
ATOM     46 1H12 UNL     1      21.991  11.048  40.898  1.00  0.00     0.278 HD
ATOM     47  H10 UNL     1      18.792  12.158  40.270  1.00  0.00     0.163 HD
ENDBRANCH   5  37
BRANCH   6  48
HETATM   48  N13 UNL     1      16.390  12.467  40.618  1.00  0.00    -0.264 N 
ATOM     49  H13 UNL     1      16.083  12.688  41.565  1.00  0.00     0.194 HD
BRANCH  48  50
HETATM   50  O5  UNL     1      16.636  13.383  39.813  1.00  0.00    -0.289 OA
ATOM     51  H5  UNL     1      17.291  14.036  40.028  1.00  0.00     0.244 HD
ENDBRANCH  48  50
ENDBRANCH   6  48
TORSDOF 11
ENDMDL
MODEL 3
REMARK VINA RESULT: -0.525625470      0.874      1.526
REMARK  11 active torsions:
REMARK  status: ('A' for Active; 'I' for Inactive)
REMARK       I    between atoms: N1_2  and  C2_4 
REMARK    1  A    between atoms: C2_4  and  C3_6 
REMARK    2  A    between atoms: C4_8  and  C5_9 
REMARK    3  A    between atoms: C5_9  and  N2_10 
REMARK    4  A    between atoms: C5_9  and  N7_24 
REMARK    5  A    between atoms: N2_10  and  C6_12 
REMARK    6  A    between atoms: C9_20  and  N6_21 
REMARK    7  A    between atoms: N9_30  and  C12_31 
REMARK    8  A    between atoms: C12_31  and  O4_32 
REMARK    9  A    between atoms: C14_35  and  N10_36 
REMARK       I    between atoms: N10_36  and  C15_38 
REMARK       I    between atoms: C15_38  and  N11_39 
REMARK       I    between atoms: C15_38  and  N12_43 
REMARK   10  A    between atoms: C16_47  and  N13_48 
REMARK   11  A    between atoms: N13_48  and  O5_50 
ROOT
HETATM    1  C3  UNL     1      17.745  10.157  40.179  1.00  0.00     0.174 A 
HETATM    2  O2  UNL     1      17.607   8.933  39.713  1.00  0.00    -0.299 OA
HETATM    3  C4  UNL     1      16.505   8.508  39.125  1.00  0.00     0.124 A 
HETATM    4  C13 UNL     1      15.445   9.415  38.999  1.00  0.00     0.073 A 
HETATM    5  C14 UNL     1      15.538  10.702  39.467  1.00  0.00     0.065 A 
HETATM    6  C16 UNL     1      16.707  11.095  40.071  1.00  0.00     0.120 A 
ENDROOT
BRANCH   3   7
HETATM    7  C5  UNL     1      16.433   7.131  38.641  1.00  0.00     0.163 C 
BRANCH   7   8
HETATM    8  N2  UNL     1      16.382   6.880  37.252  1.00  0.00    -0.333 N 
ATOM      9  H2  UNL     1      15.793   7.477  36.672  1.00  0.00     0.168 HD
BRANCH   8  10
HETATM   10  C6  UNL     1      17.129   5.812  36.609  1.00  0.00     0.119 A 
HETATM   11  C7  UNL     1      16.843   4.494  36.715  1.00  0.00     0.148 A 
HETATM   12  N3  UNL     1      15.792   4.044  37.545  1.00  0.00    -0.080 NA
HETATM   13  N4  UNL     1      17.549   3.541  36.072  1.00  0.00    -0.339 N 
HETATM   14  C8  UNL     1      18.564   3.898  35.306  1.00  0.00     0.183 A 
ATOM     15  H4  UNL     1      17.303   2.557  36.178  1.00  0.00     0.167 HD
HETATM   16  N5  UNL     1      18.886   5.213  35.172  1.00  0.00    -0.337 N 
HETATM   17  C9  UNL     1      18.209   6.177  35.792  1.00  0.00     0.130 A 
ATOM     18  H5  UNL     1      19.673   5.468  34.576  1.00  0.00     0.168 HD
BRANCH  17  19
HETATM   19  N6  UNL     1      18.519   7.402  35.659  1.00  0.00    -0.384 N 
ATOM     20  H62 UNL     1      18.827   7.965  36.451  1.00  0.00     0.157 HD
ATOM     21  H61 UNL     1      18.462   7.845  34.742  1.00  0.00     0.157 HD
ENDBRANCH  17  19
ENDBRANCH   8  10
ENDBRANCH   7   8
BRANCH   7  22
HETATM   22  N7  UNL     1      15.552   6.403  39.498  1.00  0.00    -0.224 N 
HETATM   23  C10 UNL     1      14.222   6.252  39.227  1.00  0.00     0.213 A 
HETATM   24  N8  UNL     1      13.625   5.520  40.144  1.00  0.00    -0.302 N 
HETATM   25  C11 UNL     1      14.562   5.184  41.027  1.00  0.00     0.344 A 
ATOM     26  H8  UNL     1      12.639   5.261  40.173  1.00  0.00     0.171 HD
HETATM   27  O3  UNL     1      14.373   4.482  42.052  1.00  0.00    -0.245 OA
HETATM   28  N9  UNL     1      15.746   5.746  40.601  1.00  0.00    -0.209 N 
BRANCH  28  29
HETATM   29  C12 UNL     1      16.942   5.529  41.356  1.00  0.00     0.319 C 
BRANCH  29  30
HETATM   30  O4  UNL     1      16.730   5.581  42.757  1.00  0.00    -0.380 OA
ATOM     31  H4  UNL     1      16.769   4.726  43.170  1.00  0.00     0.211 HD
ENDBRANCH  29  30
ENDBRANCH  28  29
ENDBRANCH   7  22
ENDBRANCH   3   7
BRANCH   1  32
HETATM   32  C2  UNL     1      19.006  10.519  40.811  1.00  0.00     0.277 C 
HETATM   33  N1  UNL     1      20.152  10.720  40.031  1.00  0.00    -0.359 N 
HETATM   34  C1  UNL     1      21.425  11.082  40.628  1.00  0.00     0.149 C 
ATOM     35  H1  UNL     1      20.091  10.608  39.020  1.00  0.00     0.162 HD
HETATM   36  O1  UNL     1      19.038  10.646  42.057  1.00  0.00    -0.265 OA
ENDBRANCH   1  32
BRANCH   5  37
HETATM   37  N10 UNL     1      14.578  11.542  39.360  1.00  0.00    -0.339 N 
HETATM   38  C15 UNL     1      13.316  11.307  38.735  1.00  0.00     0.480 C 
HETATM   39  N11 UNL     1      13.303  11.727  37.335  1.00  0.00    -0.033 N 
HETATM   40  N12 UNL     1      12.320  12.118  39.411  1.00  0.00    -0.033 N 
ATOM     41 3H11 UNL     1      13.583  12.703  37.241  1.00  0.00     0.278 HD
ATOM     42 2H11 UNL     1      14.060  11.289  36.811  1.00  0.00     0.278 HD
ATOM     43 1H11 UNL     1      12.401  11.559  36.889  1.00  0.00     0.278 HD
ATOM     44 3H12 UNL     1      12.298  11.956  40.418  1.00  0.00     0.278 HD
ATOM     45 2H12 UNL     1      12.569  13.107  39.436  1.00  0.00     0.278 HD
ATOM     46 1H12 UNL     1      11.419  11.950  38.965  1.00  0.00     0.278 HD
ATOM     47  H10 UNL     1      14.729  12.468  39.759  1.00  0.00     0.163 HD
ENDBRANCH   5  37
BRANCH   6  48
HETATM   48  N13 UNL     1      16.899  12.408  40.589  1.00  0.00    -0.264 N 
ATOM     49  H13 UNL     1      17.746  12.929  40.363  1.00  0.00     0.194 HD
BRANCH  48  50
HETATM   50  O5  UNL     1      16.030  12.917  41.319  1.00  0.00    -0.289 OA
ATOM     51  H5  UNL     1      16.177  12.978  42.256  1.00  0.00     0.244 HD
ENDBRANCH  48  50
ENDBRANCH   6  48
TORSDOF 11
ENDMDL
MODEL 4
REMARK VINA RESULT: 0.004866282      2.217      3.791
REMARK  11 active torsions:
REMARK  status: ('A' for Active; 'I' for Inactive)
REMARK       I    between atoms: N1_2  and  C2_4 
REMARK    1  A    between atoms: C2_4  and  C3_6 
REMARK    2  A    between atoms: C4_8  and  C5_9 
REMARK    3  A    between atoms: C5_9  and  N2_10 
REMARK    4  A    between atoms: C5_9  and  N7_24 
REMARK    5  A    between atoms: N2_10  and  C6_12 
REMARK    6  A    between atoms: C9_20  and  N6_21 
REMARK    7  A    between atoms: N9_30  and  C12_31 
REMARK    8  A    between atoms: C12_31  and  O4_32 
REMARK    9  A    between atoms: C14_35  and  N10_36 
REMARK       I    between atoms: N10_36  and  C15_38 
REMARK       I    between atoms: C15_38  and  N11_39 
REMARK       I    between atoms: C15_38  and  N12_43 
REMARK   10  A    between atoms: C16_47  and  N13_48 
REMARK   11  A    between atoms: N13_48  and  O5_50 
ROOT
HETATM    1  C3  UNL     1      14.275  10.157  38.514  1.00  0.00     0.174 A 
HETATM    2  O2  UNL     1      14.972   9.103  38.887  1.00  0.00    -0.299 OA
HETATM    3  C4  UNL     1      15.984   9.173  39.730  1.00  0.00     0.124 A 
HETATM    4  C13 UNL     1      16.317  10.433  40.242  1.00  0.00     0.073 A 
HETATM    5  C14 UNL     1      15.623  11.562  39.886  1.00  0.00     0.065 A 
HETATM    6  C16 UNL     1      14.577  11.436  39.005  1.00  0.00     0.120 A 
ENDROOT
BRANCH   3   7
HETATM    7  C5  UNL     1      16.709   7.955  40.086  1.00  0.00     0.163 C 
BRANCH   7   8
HETATM    8  N2  UNL     1      17.924   7.648  39.431  1.00  0.00    -0.333 N 
ATOM      9  H2  UNL     1      18.781   8.085  39.769  1.00  0.00     0.168 HD
BRANCH   8  10
HETATM   10  C6  UNL     1      18.010   6.741  38.299  1.00  0.00     0.119 A 
HETATM   11  C7  UNL     1      18.362   5.437  38.377  1.00  0.00     0.148 A 
HETATM   12  N3  UNL     1      18.748   4.862  39.608  1.00  0.00    -0.080 NA
HETATM   13  N4  UNL     1      18.397   4.626  37.299  1.00  0.00    -0.339 N 
HETATM   14  C8  UNL     1      18.077   5.115  36.115  1.00  0.00     0.183 A 
ATOM     15  H4  UNL     1      18.668   3.648  37.399  1.00  0.00     0.167 HD
HETATM   16  N5  UNL     1      17.717   6.421  35.992  1.00  0.00    -0.337 N 
HETATM   17  C9  UNL     1      17.673   7.247  37.036  1.00  0.00     0.130 A 
ATOM     18  H5  UNL     1      17.474   6.780  35.069  1.00  0.00     0.168 HD
BRANCH  17  19
HETATM   19  N6  UNL     1      17.335   8.465  36.909  1.00  0.00    -0.384 N 
ATOM     20  H62 UNL     1      17.004   9.014  37.702  1.00  0.00     0.157 HD
ATOM     21  H61 UNL     1      17.392   8.917  35.996  1.00  0.00     0.157 HD
ENDBRANCH  17  19
ENDBRANCH   8  10
ENDBRANCH   7   8
BRANCH   7  22
HETATM   22  N7  UNL     1      15.757   6.908  40.280  1.00  0.00    -0.224 N 
HETATM   23  C10 UNL     1      14.622   6.798  39.530  1.00  0.00     0.213 A 
HETATM   24  N8  UNL     1      13.918   5.741  39.875  1.00  0.00    -0.302 N 
HETATM   25  C11 UNL     1      14.589   5.147  40.858  1.00  0.00     0.344 A 
ATOM     26  H8  UNL     1      13.034   5.437  39.468  1.00  0.00     0.171 HD
HETATM   27  O3  UNL     1      14.228   4.098  41.450  1.00  0.00    -0.245 OA
HETATM   28  N9  UNL     1      15.724   5.892  41.089  1.00  0.00    -0.209 N 
BRANCH  28  29
HETATM   29  C12 UNL     1      16.654   5.472  42.093  1.00  0.00     0.319 C 
BRANCH  29  30
HETATM   30  O4  UNL     1      16.030   5.140  43.321  1.00  0.00    -0.380 OA
ATOM     31  H4  UNL     1      16.599   4.654  43.907  1.00  0.00     0.211 HD
ENDBRANCH  29  30
ENDBRANCH  28  29
ENDBRANCH   7  22
ENDBRANCH   3   7
BRANCH   1  32
HETATM   32  C2  UNL     1      13.177   9.965  37.577  1.00  0.00     0.277 C 
HETATM   33  N1  UNL     1      13.437   9.822  36.208  1.00  0.00    -0.359 N 
HETATM   34  C1  UNL     1      12.367   9.629  35.247  1.00  0.00     0.149 C 
ATOM     35  H1  UNL     1      14.401   9.855  35.880  1.00  0.00     0.162 HD
HETATM   36  O1  UNL     1      12.006   9.932  38.023  1.00  0.00    -0.265 OA
ENDBRANCH   1  32
BRANCH   5  37
HETATM   37  N10 UNL     1      15.916  12.721  40.346  1.00  0.00    -0.339 N 
HETATM   38  C15 UNL     1      15.302  13.365  41.462  1.00  0.00     0.480 C 
HETATM   39  N11 UNL     1      14.207  14.246  41.062  1.00  0.00    -0.033 N 
HETATM   40  N12 UNL     1      16.296  14.216  42.093  1.00  0.00    -0.033 N 
ATOM     41 3H11 UNL     1      14.516  14.927  40.369  1.00  0.00     0.278 HD
ATOM     42 2H11 UNL     1      13.517  13.745  40.502  1.00  0.00     0.278 HD
ATOM     43 1H11 UNL     1      13.769  14.706  41.861  1.00  0.00     0.278 HD
ATOM     44 3H12 UNL     1      17.144  13.709  42.347  1.00  0.00     0.278 HD
ATOM     45 2H12 UNL     1      16.720  14.875  41.441  1.00  0.00     0.278 HD
ATOM     46 1H12 UNL     1      15.858  14.676  42.891  1.00  0.00     0.278 HD
ATOM     47  H10 UNL     1      16.657  13.232  39.868  1.00  0.00     0.163 HD
ENDBRANCH   5  37
BRANCH   6  48
HETATM   48  N13 UNL     1      13.798  12.548  38.575  1.00  0.00    -0.264 N 
ATOM     49  H13 UNL     1      14.115  13.124  37.795  1.00  0.00     0.194 HD
BRANCH  48  50
HETATM   50  O5  UNL     1      12.730  12.814  39.154  1.00  0.00    -0.289 OA
ATOM     51  H5  UNL     1      12.448  13.718  39.233  1.00  0.00     0.244 HD
ENDBRANCH  48  50
ENDBRANCH   6  48
TORSDOF 11
ENDMDL
MODEL 5
REMARK VINA RESULT: 0.533955612      2.218      3.583
REMARK  11 active torsions:
REMARK  status: ('A' for Active; 'I' for Inactive)
REMARK       I    between atoms: N1_2  and  C2_4 
REMARK    1  A    between atoms: C2_4  and  C3_6 
REMARK    2  A    between atoms: C4_8  and  C5_9 
REMARK    3  A    between atoms: C5_9  and  N2_10 
REMARK    4  A    between atoms: C5_9  and  N7_24 
REMARK    5  A    between atoms: N2_10  and  C6_12 
REMARK    6  A    between atoms: C9_20  and  N6_21 
REMARK    7  A    between atoms: N9_30  and  C12_31 
REMARK    8  A    between atoms: C12_31  and  O4_32 
REMARK    9  A    between atoms: C14_35  and  N10_36 
REMARK       I    between atoms: N10_36  and  C15_38 
REMARK       I    between atoms: C15_38  and  N11_39 
REMARK       I    between atoms: C15_38  and  N12_43 
REMARK   10  A    between atoms: C16_47  and  N13_48 
REMARK   11  A    between atoms: N13_48  and  O5_50 
ROOT
HETATM    1  C3  UNL     1      14.480  10.184  38.753  1.00  0.00     0.174 A 
HETATM    2  O2  UNL     1      15.259   9.172  39.074  1.00  0.00    -0.299 OA
HETATM    3  C4  UNL     1      16.313   9.296  39.858  1.00  0.00     0.124 A 
HETATM    4  C13 UNL     1      16.599  10.571  40.363  1.00  0.00     0.073 A 
HETATM    5  C14 UNL     1      15.820  11.659  40.060  1.00  0.00     0.065 A 
HETATM    6  C16 UNL     1      14.733  11.476  39.239  1.00  0.00     0.120 A 
ENDROOT
BRANCH   3   7
HETATM    7  C5  UNL     1      17.129   8.122  40.159  1.00  0.00     0.163 C 
BRANCH   7   8
HETATM    8  N2  UNL     1      18.213   7.790  39.315  1.00  0.00    -0.333 N 
ATOM      9  H2  UNL     1      19.103   8.267  39.457  1.00  0.00     0.168 HD
BRANCH   8  10
HETATM   10  C6  UNL     1      18.121   6.803  38.253  1.00  0.00     0.119 A 
HETATM   11  C7  UNL     1      18.361   5.479  38.403  1.00  0.00     0.148 A 
HETATM   12  N3  UNL     1      18.798   4.957  39.641  1.00  0.00    -0.080 NA
HETATM   13  N4  UNL     1      18.231   4.595  37.392  1.00  0.00    -0.339 N 
HETATM   14  C8  UNL     1      17.855   5.029  36.202  1.00  0.00     0.183 A 
ATOM     15  H4  UNL     1      18.422   3.606  37.545  1.00  0.00     0.167 HD
HETATM   16  N5  UNL     1      17.604   6.352  36.008  1.00  0.00    -0.337 N 
HETATM   17  C9  UNL     1      17.723   7.249  36.985  1.00  0.00     0.130 A 
ATOM     18  H5  UNL     1      17.315   6.667  35.082  1.00  0.00     0.168 HD
BRANCH  17  19
HETATM   19  N6  UNL     1      17.486   8.481  36.792  1.00  0.00    -0.384 N 
ATOM     20  H62 UNL     1      16.721   8.792  36.193  1.00  0.00     0.157 HD
ATOM     21  H61 UNL     1      18.067   9.189  37.241  1.00  0.00     0.157 HD
ENDBRANCH  17  19
ENDBRANCH   8  10
ENDBRANCH   7   8
BRANCH   7  22
HETATM   22  N7  UNL     1      16.262   7.075  40.598  1.00  0.00    -0.224 N 
HETATM   23  C10 UNL     1      16.489   6.363  41.741  1.00  0.00     0.213 A 
HETATM   24  N8  UNL     1      15.541   5.475  41.949  1.00  0.00    -0.302 N 
HETATM   25  C11 UNL     1      14.682   5.597  40.941  1.00  0.00     0.344 A 
ATOM     26  H8  UNL     1      15.477   4.822  42.730  1.00  0.00     0.171 HD
HETATM   27  O3  UNL     1      13.638   4.912  40.792  1.00  0.00    -0.245 OA
HETATM   28  N9  UNL     1      15.155   6.596  40.118  1.00  0.00    -0.209 N 
BRANCH  28  29
HETATM   29  C12 UNL     1      14.412   6.960  38.950  1.00  0.00     0.319 C 
BRANCH  29  30
HETATM   30  O4  UNL     1      15.110   6.699  37.745  1.00  0.00    -0.380 OA
ATOM     31  H4  UNL     1      15.885   7.240  37.641  1.00  0.00     0.211 HD
ENDBRANCH  29  30
ENDBRANCH  28  29
ENDBRANCH   7  22
ENDBRANCH   3   7
BRANCH   1  32
HETATM   32  C2  UNL     1      13.343   9.933  37.879  1.00  0.00     0.277 C 
HETATM   33  N1  UNL     1      13.532   9.800  36.498  1.00  0.00    -0.359 N 
HETATM   34  C1  UNL     1      12.422   9.549  35.598  1.00  0.00     0.149 C 
ATOM     35  H1  UNL     1      14.474   9.882  36.116  1.00  0.00     0.162 HD
HETATM   36  O1  UNL     1      12.202   9.839  38.390  1.00  0.00    -0.265 OA
ENDBRANCH   1  32
BRANCH   5  37
HETATM   37  N10 UNL     1      16.068  12.830  40.513  1.00  0.00    -0.339 N 
HETATM   38  C15 UNL     1      15.361  13.497  41.558  1.00  0.00     0.480 C 
HETATM   39  N11 UNL     1      14.300  14.362  41.046  1.00  0.00    -0.033 N 
HETATM   40  N12 UNL     1      16.295  14.368  42.249  1.00  0.00    -0.033 N 
ATOM     41 3H11 UNL     1      14.664  15.028  40.365  1.00  0.00     0.278 HD
ATOM     42 2H11 UNL     1      13.662  13.844  40.443  1.00  0.00     0.278 HD
ATOM     43 1H11 UNL     1      13.795  14.839  41.793  1.00  0.00     0.278 HD
ATOM     44 3H12 UNL     1      17.120  13.873  42.586  1.00  0.00     0.278 HD
ATOM     45 2H12 UNL     1      16.770  15.014  41.620  1.00  0.00     0.278 HD
ATOM     46 1H12 UNL     1      15.790  14.845  42.996  1.00  0.00     0.278 HD
ATOM     47  H10 UNL     1      16.846  13.333  40.088  1.00  0.00     0.163 HD
ENDBRANCH   5  37
BRANCH   6  48
HETATM   48  N13 UNL     1      13.865  12.542  38.867  1.00  0.00    -0.264 N 
ATOM     49  H13 UNL     1      14.165  13.228  38.174  1.00  0.00     0.194 HD
BRANCH  48  50
HETATM   50  O5  UNL     1      12.740  12.633  39.389  1.00  0.00    -0.289 OA
ATOM     51  H5  UNL     1      12.587  12.258  40.248  1.00  0.00     0.244 HD
ENDBRANCH  48  50
ENDBRANCH   6  48
TORSDOF 11
ENDMDL
