MODEL 1
REMARK VINA RESULT: -4.582471420      0.000      0.000
REMARK  15 active torsions:
REMARK  status: ('A' for Active; 'I' for Inactive)
REMARK    1  A    between atoms: N1_1  and  C1_4 
REMARK    2  A    between atoms: C3_8  and  C4_9 
REMARK    3  A    between atoms: C4_9  and  O1_10 
REMARK    4  A    between atoms: C4_9  and  C5_12 
REMARK    5  A    between atoms: N5_16  and  C6_17 
REMARK    6  A    between atoms: C6_17  and  C7_18 
REMARK    7  A    between atoms: C10_27  and  N9_28 
REMARK    8  A    between atoms: N10_31  and  C11_32 
REMARK    9  A    between atoms: C11_32  and  C12_33 
REMARK   10  A    between atoms: C12_33  and  C13_34 
REMARK   11  A    between atoms: C13_34  and  O2_35 
REMARK   12  A    between atoms: C13_34  and  C14_37 
REMARK   13  A    between atoms: C14_37  and  N11_38 
REMARK   14  A    between atoms: C15_42  and  N12_43 
REMARK   15  A    between atoms: C16_50  and  N15_51 
ROOT
HETATM    1  C7  UNL     1       7.248   4.200  45.734  1.00  0.00     0.118 C 
HETATM    2  N6  UNL     1       7.174   5.261  44.887  1.00  0.00    -0.286 N 
ATOM      3  H6  UNL     1       6.444   5.208  44.176  1.00  0.00     0.188 HD
HETATM    4  N7  UNL     1       7.932   6.370  44.859  1.00  0.00    -0.281 N 
ATOM      5  H7  UNL     1       8.279   6.698  43.958  1.00  0.00     0.188 HD
HETATM    6  C8  UNL     1       8.262   7.080  45.979  1.00  0.00     0.169 A 
HETATM    7  C9  UNL     1       8.379   6.589  47.264  1.00  0.00     0.138 A 
HETATM    8  N8  UNL     1       8.715   7.614  48.059  1.00  0.00    -0.184 N 
ATOM      9  H8  UNL     1       8.877   7.577  49.066  1.00  0.00     0.184 HD
HETATM   10  C10 UNL     1       8.799   8.696  47.279  1.00  0.00     0.680 A 
HETATM   11  N10 UNL     1       8.527   8.401  46.007  1.00  0.00    -0.165 N 
HETATM   12  C15 UNL     1       8.194   5.276  47.710  1.00  0.00     0.132 C 
HETATM   13  N13 UNL     1       7.965   4.223  46.895  1.00  0.00    -0.328 N 
ATOM     14  H13 UNL     1       8.379   3.336  47.182  1.00  0.00     0.169 HD
ENDROOT
BRANCH   1  15
HETATM   15  C6  UNL     1       6.511   2.976  45.368  1.00  0.00     0.245 C 
BRANCH  15  16
HETATM   16  N5  UNL     1       7.467   1.921  45.084  1.00  0.00    -0.209 N 
HETATM   17  N4  UNL     1       8.781   2.032  44.972  1.00  0.00    -0.003 NA
HETATM   18  N3  UNL     1       9.278   0.814  44.707  1.00  0.00    -0.268 N 
HETATM   19  C5  UNL     1       8.270  -0.074  44.651  1.00  0.00     0.144 A 
ATOM     20  H3  UNL     1      10.265   0.596  44.569  1.00  0.00     0.185 HD
HETATM   21  N14 UNL     1       7.151   0.639  44.890  1.00  0.00    -0.270 N 
ATOM     22  H14 UNL     1       6.206   0.256  44.918  1.00  0.00     0.190 HD
BRANCH  19  23
HETATM   23  C4  UNL     1       8.398  -1.533  44.380  1.00  0.00     0.226 C 
BRANCH  23  24
HETATM   24  C3  UNL     1       8.613  -1.830  42.954  1.00  0.00     0.038 A 
HETATM   25  C2  UNL     1       7.682  -1.492  41.997  1.00  0.00     0.120 A 
HETATM   26  N2  UNL     1       7.902  -1.775  40.692  1.00  0.00    -0.201 N 
HETATM   27  C1  UNL     1       9.023  -2.391  40.282  1.00  0.00     0.677 A 
ATOM     28  H2  UNL     1       7.198  -1.514  40.002  1.00  0.00     0.183 HD
HETATM   29  N16 UNL     1       9.950  -2.733  41.195  1.00  0.00    -0.177 N 
HETATM   30  C16 UNL     1       9.752  -2.459  42.510  1.00  0.00     0.125 A 
ATOM     31  H16 UNL     1      10.806  -3.201  40.898  1.00  0.00     0.185 HD
BRANCH  27  32
HETATM   32  N1  UNL     1       9.207  -2.650  39.026  1.00  0.00    -0.234 N 
ATOM     33  H12 UNL     1       8.861  -3.519  38.619  1.00  0.00     0.174 HD
ATOM     34  H11 UNL     1       9.700  -1.987  38.429  1.00  0.00     0.174 HD
ENDBRANCH  27  32
BRANCH  30  35
HETATM   35  N15 UNL     1      10.647  -2.791  43.382  1.00  0.00    -0.384 N 
ATOM     36 2H15 UNL     1      10.387  -2.909  44.361  1.00  0.00     0.157 HD
ATOM     37 1H15 UNL     1      11.606  -2.926  43.061  1.00  0.00     0.157 HD
ENDBRANCH  30  35
ENDBRANCH  23  24
BRANCH  23  38
HETATM   38  O1  UNL     1       7.204  -2.147  44.819  1.00  0.00    -0.383 OA
ATOM     39  H1  UNL     1       6.458  -1.635  44.531  1.00  0.00     0.211 HD
ENDBRANCH  23  38
ENDBRANCH  19  23
ENDBRANCH  15  16
ENDBRANCH   1  15
BRANCH  12  40
HETATM   40  N12 UNL     1       8.257   5.135  48.968  1.00  0.00    -0.383 N 
ATOM     41 2H12 UNL     1       9.146   5.190  49.465  1.00  0.00     0.157 HD
ATOM     42 1H12 UNL     1       7.358   4.965  49.419  1.00  0.00     0.157 HD
ENDBRANCH  12  40
BRANCH  11  43
HETATM   43  C11 UNL     1       8.500   9.256  44.828  1.00  0.00     0.152 C 
BRANCH  43  44
HETATM   44  C12 UNL     1       7.058   9.633  44.485  1.00  0.00     0.054 C 
BRANCH  44  45
HETATM   45  C13 UNL     1       6.786   9.362  43.014  1.00  0.00     0.145 C 
BRANCH  45  46
HETATM   46  O2  UNL     1       7.728   8.474  42.507  1.00  0.00    -0.394 OA
ATOM     47  H2  UNL     1       8.606   8.800  42.669  1.00  0.00     0.210 HD
ENDBRANCH  45  46
BRANCH  45  48
HETATM   48  C14 UNL     1       6.783  10.669  42.244  1.00  0.00     0.261 C 
BRANCH  48  49
HETATM   49  N11 UNL     1       7.690  10.620  41.132  1.00  0.00    -0.077 N 
ATOM     50 3H11 UNL     1       7.388   9.943  40.432  1.00  0.00     0.274 HD
ATOM     51 2H11 UNL     1       7.633  11.466  40.566  1.00  0.00     0.274 HD
ATOM     52 1H11 UNL     1       8.645  10.439  41.442  1.00  0.00     0.274 HD
ENDBRANCH  48  49
ENDBRANCH  45  48
ENDBRANCH  44  45
ENDBRANCH  43  44
ENDBRANCH  11  43
BRANCH  10  53
HETATM   53  N9  UNL     1       9.102   9.862  47.715  1.00  0.00    -0.234 N 
ATOM     54  H92 UNL     1       9.954  10.371  47.479  1.00  0.00     0.174 HD
ATOM     55  H91 UNL     1       8.512  10.398  48.350  1.00  0.00     0.174 HD
ENDBRANCH  10  53
TORSDOF 15
ENDMDL
MODEL 2
REMARK VINA RESULT: -3.236660530      2.630      3.142
REMARK  15 active torsions:
REMARK  status: ('A' for Active; 'I' for Inactive)
REMARK    1  A    between atoms: N1_1  and  C1_4 
REMARK    2  A    between atoms: C3_8  and  C4_9 
REMARK    3  A    between atoms: C4_9  and  O1_10 
REMARK    4  A    between atoms: C4_9  and  C5_12 
REMARK    5  A    between atoms: N5_16  and  C6_17 
REMARK    6  A    between atoms: C6_17  and  C7_18 
REMARK    7  A    between atoms: C10_27  and  N9_28 
REMARK    8  A    between atoms: N10_31  and  C11_32 
REMARK    9  A    between atoms: C11_32  and  C12_33 
REMARK   10  A    between atoms: C12_33  and  C13_34 
REMARK   11  A    between atoms: C13_34  and  O2_35 
REMARK   12  A    between atoms: C13_34  and  C14_37 
REMARK   13  A    between atoms: C14_37  and  N11_38 
REMARK   14  A    between atoms: C15_42  and  N12_43 
REMARK   15  A    between atoms: C16_50  and  N15_51 
ROOT
HETATM    1  C7  UNL     1       6.937   5.297  45.065  1.00  0.00     0.118 C 
HETATM    2  N6  UNL     1       7.116   6.329  44.199  1.00  0.00    -0.286 N 
ATOM      3  H6  UNL     1       6.682   6.217  43.283  1.00  0.00     0.188 HD
HETATM    4  N7  UNL     1       7.789   7.478  44.386  1.00  0.00    -0.281 N 
ATOM      5  H7  UNL     1       8.413   7.801  43.647  1.00  0.00     0.188 HD
HETATM    6  C8  UNL     1       7.678   8.234  45.518  1.00  0.00     0.169 A 
HETATM    7  C9  UNL     1       7.362   7.784  46.785  1.00  0.00     0.138 A 
HETATM    8  N8  UNL     1       7.357   8.848  47.602  1.00  0.00    -0.184 N 
ATOM      9  H8  UNL     1       7.160   8.846  48.602  1.00  0.00     0.184 HD
HETATM   10  C10 UNL     1       7.659   9.912  46.852  1.00  0.00     0.680 A 
HETATM   11  N10 UNL     1       7.860   9.568  45.579  1.00  0.00    -0.165 N 
HETATM   12  C15 UNL     1       7.090   6.476  47.197  1.00  0.00     0.132 C 
HETATM   13  N13 UNL     1       7.204   5.390  46.400  1.00  0.00    -0.328 N 
ATOM     14  H13 UNL     1       7.530   4.536  46.852  1.00  0.00     0.169 HD
ENDROOT
BRANCH   1  15
HETATM   15  C6  UNL     1       6.427   4.025  44.521  1.00  0.00     0.245 C 
BRANCH  15  16
HETATM   16  N5  UNL     1       6.779   2.950  45.432  1.00  0.00    -0.209 N 
HETATM   17  N4  UNL     1       7.343   3.057  46.624  1.00  0.00    -0.003 NA
HETATM   18  N3  UNL     1       7.491   1.820  47.124  1.00  0.00    -0.268 N 
HETATM   19  C5  UNL     1       7.016   0.925  46.240  1.00  0.00     0.144 A 
ATOM     20  H3  UNL     1       7.899   1.594  48.031  1.00  0.00     0.185 HD
HETATM   21  N14 UNL     1       6.578   1.653  45.193  1.00  0.00    -0.270 N 
ATOM     22  H14 UNL     1       6.156   1.270  44.347  1.00  0.00     0.190 HD
BRANCH  19  23
HETATM   23  C4  UNL     1       6.996  -0.554  46.412  1.00  0.00     0.226 C 
BRANCH  23  24
HETATM   24  C3  UNL     1       8.343  -1.149  46.391  1.00  0.00     0.038 A 
HETATM   25  C2  UNL     1       9.292  -0.754  45.473  1.00  0.00     0.120 A 
HETATM   26  N2  UNL     1      10.524  -1.315  45.474  1.00  0.00    -0.201 N 
HETATM   27  C1  UNL     1      10.866  -2.269  46.356  1.00  0.00     0.677 A 
ATOM     28  H2  UNL     1      11.210  -1.006  44.786  1.00  0.00     0.183 HD
HETATM   29  N16 UNL     1       9.959  -2.673  47.263  1.00  0.00    -0.177 N 
HETATM   30  C16 UNL     1       8.717  -2.125  47.284  1.00  0.00     0.125 A 
ATOM     31  H16 UNL     1      10.205  -3.396  47.939  1.00  0.00     0.185 HD
BRANCH  27  32
HETATM   32  N1  UNL     1      12.052  -2.788  46.332  1.00  0.00    -0.234 N 
ATOM     33  H12 UNL     1      12.231  -3.653  45.823  1.00  0.00     0.174 HD
ATOM     34  H11 UNL     1      12.823  -2.337  46.824  1.00  0.00     0.174 HD
ENDBRANCH  27  32
BRANCH  30  35
HETATM   35  N15 UNL     1       7.850  -2.519  48.157  1.00  0.00    -0.384 N 
ATOM     36 2H15 UNL     1       6.872  -2.632  47.891  1.00  0.00     0.157 HD
ATOM     37 1H15 UNL     1       8.173  -2.707  49.106  1.00  0.00     0.157 HD
ENDBRANCH  30  35
ENDBRANCH  23  24
BRANCH  23  38
HETATM   38  O1  UNL     1       6.223  -1.088  45.357  1.00  0.00    -0.383 OA
ATOM     39  H1  UNL     1       6.530  -0.739  44.529  1.00  0.00     0.211 HD
ENDBRANCH  23  38
ENDBRANCH  19  23
ENDBRANCH  15  16
ENDBRANCH   1  15
BRANCH  12  40
HETATM   40  N12 UNL     1       6.718   6.371  48.404  1.00  0.00    -0.383 N 
ATOM     41 2H12 UNL     1       7.316   6.675  49.172  1.00  0.00     0.157 HD
ATOM     42 1H12 UNL     1       5.791   5.965  48.526  1.00  0.00     0.157 HD
ENDBRANCH  12  40
BRANCH  11  43
HETATM   43  C11 UNL     1       8.207  10.389  44.427  1.00  0.00     0.152 C 
BRANCH  43  44
HETATM   44  C12 UNL     1       6.938  10.914  43.753  1.00  0.00     0.054 C 
BRANCH  44  45
HETATM   45  C13 UNL     1       7.052  10.770  42.244  1.00  0.00     0.145 C 
BRANCH  45  46
HETATM   46  O2  UNL     1       8.389  10.697  41.869  1.00  0.00    -0.394 OA
ATOM     47  H2  UNL     1       8.885  11.392  42.286  1.00  0.00     0.210 HD
ENDBRANCH  45  46
BRANCH  45  48
HETATM   48  C14 UNL     1       6.346  11.928  41.564  1.00  0.00     0.261 C 
BRANCH  48  49
HETATM   49  N11 UNL     1       6.301  11.745  40.140  1.00  0.00    -0.077 N 
ATOM     50 3H11 UNL     1       5.709  10.955  39.883  1.00  0.00     0.274 HD
ATOM     51 2H11 UNL     1       5.775  12.490  39.684  1.00  0.00     0.274 HD
ATOM     52 1H11 UNL     1       7.239  11.654  39.749  1.00  0.00     0.274 HD
ENDBRANCH  48  49
ENDBRANCH  45  48
ENDBRANCH  44  45
ENDBRANCH  43  44
ENDBRANCH  11  43
BRANCH  10  53
HETATM   53  N9  UNL     1       7.742  11.103  47.314  1.00  0.00    -0.234 N 
ATOM     54  H92 UNL     1       8.516  11.745  47.142  1.00  0.00     0.174 HD
ATOM     55  H91 UNL     1       7.031  11.528  47.908  1.00  0.00     0.174 HD
ENDBRANCH  10  53
TORSDOF 15
ENDMDL
MODEL 3
REMARK VINA RESULT: -2.100685611      2.520      4.802
REMARK  15 active torsions:
REMARK  status: ('A' for Active; 'I' for Inactive)
REMARK    1  A    between atoms: N1_1  and  C1_4 
REMARK    2  A    between atoms: C3_8  and  C4_9 
REMARK    3  A    between atoms: C4_9  and  O1_10 
REMARK    4  A    between atoms: C4_9  and  C5_12 
REMARK    5  A    between atoms: N5_16  and  C6_17 
REMARK    6  A    between atoms: C6_17  and  C7_18 
REMARK    7  A    between atoms: C10_27  and  N9_28 
REMARK    8  A    between atoms: N10_31  and  C11_32 
REMARK    9  A    between atoms: C11_32  and  C12_33 
REMARK   10  A    between atoms: C12_33  and  C13_34 
REMARK   11  A    between atoms: C13_34  and  O2_35 
REMARK   12  A    between atoms: C13_34  and  C14_37 
REMARK   13  A    between atoms: C14_37  and  N11_38 
REMARK   14  A    between atoms: C15_42  and  N12_43 
REMARK   15  A    between atoms: C16_50  and  N15_51 
ROOT
HETATM    1  C7  UNL     1       7.082   7.068  44.035  1.00  0.00     0.118 C 
HETATM    2  N6  UNL     1       7.363   6.520  45.247  1.00  0.00    -0.286 N 
ATOM      3  H6  UNL     1       7.571   5.521  45.242  1.00  0.00     0.188 HD
HETATM    4  N7  UNL     1       7.404   7.116  46.451  1.00  0.00    -0.281 N 
ATOM      5  H7  UNL     1       6.956   6.648  47.239  1.00  0.00     0.188 HD
HETATM    6  C8  UNL     1       8.015   8.317  46.671  1.00  0.00     0.169 A 
HETATM    7  C9  UNL     1       8.195   9.334  45.754  1.00  0.00     0.138 A 
HETATM    8  N8  UNL     1       8.838  10.331  46.377  1.00  0.00    -0.184 N 
ATOM      9  H8  UNL     1       9.118  11.223  45.970  1.00  0.00     0.184 HD
HETATM   10  C10 UNL     1       9.044   9.931  47.635  1.00  0.00     0.680 A 
HETATM   11  N10 UNL     1       8.553   8.708  47.843  1.00  0.00    -0.165 N 
HETATM   12  C15 UNL     1       7.799   9.370  44.413  1.00  0.00     0.132 C 
HETATM   13  N13 UNL     1       7.053   8.414  43.816  1.00  0.00    -0.328 N 
ATOM     14  H13 UNL     1       6.388   8.739  43.114  1.00  0.00     0.169 HD
ENDROOT
BRANCH   1  15
HETATM   15  C6  UNL     1       6.799   6.150  42.915  1.00  0.00     0.245 C 
BRANCH  15  16
HETATM   16  N5  UNL     1       7.058   4.789  43.348  1.00  0.00    -0.209 N 
HETATM   17  N4  UNL     1       7.855   4.393  44.328  1.00  0.00    -0.003 NA
HETATM   18  N3  UNL     1       7.800   3.052  44.389  1.00  0.00    -0.268 N 
HETATM   19  C5  UNL     1       6.961   2.599  43.441  1.00  0.00     0.144 A 
ATOM     20  H3  UNL     1       8.314   2.470  45.051  1.00  0.00     0.185 HD
HETATM   21  N14 UNL     1       6.511   3.700  42.805  1.00  0.00    -0.270 N 
ATOM     22  H14 UNL     1       5.852   3.700  42.027  1.00  0.00     0.190 HD
BRANCH  19  23
HETATM   23  C4  UNL     1       6.623   1.174  43.176  1.00  0.00     0.226 C 
BRANCH  23  24
HETATM   24  C3  UNL     1       7.267   0.250  44.126  1.00  0.00     0.038 A 
HETATM   25  C2  UNL     1       7.927  -0.881  43.698  1.00  0.00     0.120 A 
HETATM   26  N2  UNL     1       8.511  -1.715  44.590  1.00  0.00    -0.201 N 
HETATM   27  C1  UNL     1       8.470  -1.478  45.912  1.00  0.00     0.677 A 
ATOM     28  H2  UNL     1       8.996  -2.545  44.250  1.00  0.00     0.183 HD
HETATM   29  N16 UNL     1       7.832  -0.381  46.357  1.00  0.00    -0.177 N 
HETATM   30  C16 UNL     1       7.239   0.472  45.482  1.00  0.00     0.125 A 
ATOM     31  H16 UNL     1       7.793  -0.188  47.358  1.00  0.00     0.185 HD
BRANCH  27  32
HETATM   32  N1  UNL     1       9.038  -2.293  46.742  1.00  0.00    -0.234 N 
ATOM     33  H12 UNL     1       9.050  -3.297  46.559  1.00  0.00     0.174 HD
ATOM     34  H11 UNL     1       9.480  -1.942  47.591  1.00  0.00     0.174 HD
ENDBRANCH  27  32
BRANCH  30  35
HETATM   35  N15 UNL     1       6.627   1.523  45.917  1.00  0.00    -0.384 N 
ATOM     36 2H15 UNL     1       5.877   1.431  46.602  1.00  0.00     0.157 HD
ATOM     37 1H15 UNL     1       6.915   2.433  45.556  1.00  0.00     0.157 HD
ENDBRANCH  30  35
ENDBRANCH  23  24
BRANCH  23  38
HETATM   38  O1  UNL     1       7.052   0.879  41.862  1.00  0.00    -0.383 OA
ATOM     39  H1  UNL     1       6.898   1.628  41.300  1.00  0.00     0.211 HD
ENDBRANCH  23  38
ENDBRANCH  19  23
ENDBRANCH  15  16
ENDBRANCH   1  15
BRANCH  12  40
HETATM   40  N12 UNL     1       8.197  10.390  43.775  1.00  0.00    -0.383 N 
ATOM     41 2H12 UNL     1       8.151  10.431  42.756  1.00  0.00     0.157 HD
ATOM     42 1H12 UNL     1       8.558  11.142  44.362  1.00  0.00     0.157 HD
ENDBRANCH  12  40
BRANCH  11  43
HETATM   43  C11 UNL     1       8.551   7.889  49.047  1.00  0.00     0.152 C 
BRANCH  43  44
HETATM   44  C12 UNL     1       9.835   7.061  49.123  1.00  0.00     0.054 C 
BRANCH  44  45
HETATM   45  C13 UNL     1       9.569   5.643  48.645  1.00  0.00     0.145 C 
BRANCH  45  46
HETATM   46  O2  UNL     1       9.689   5.572  47.261  1.00  0.00    -0.394 OA
ATOM     47  H2  UNL     1       9.755   4.666  46.984  1.00  0.00     0.210 HD
ENDBRANCH  45  46
BRANCH  45  48
HETATM   48  C14 UNL     1       8.194   5.196  49.108  1.00  0.00     0.261 C 
BRANCH  48  49
HETATM   49  N11 UNL     1       7.592   4.301  48.160  1.00  0.00    -0.077 N 
ATOM     50 3H11 UNL     1       7.382   3.396  48.582  1.00  0.00     0.274 HD
ATOM     51 2H11 UNL     1       6.642   4.588  47.925  1.00  0.00     0.274 HD
ATOM     52 1H11 UNL     1       8.172   4.201  47.326  1.00  0.00     0.274 HD
ENDBRANCH  48  49
ENDBRANCH  45  48
ENDBRANCH  44  45
ENDBRANCH  43  44
ENDBRANCH  11  43
BRANCH  10  53
HETATM   53  N9  UNL     1       9.639  10.645  48.517  1.00  0.00    -0.234 N 
ATOM     54  H92 UNL     1       9.831  11.642  48.430  1.00  0.00     0.174 HD
ATOM     55  H91 UNL     1       9.983  10.275  49.403  1.00  0.00     0.174 HD
ENDBRANCH  10  53
TORSDOF 15
ENDMDL
MODEL 4
REMARK VINA RESULT: -1.906769681      3.784      5.487
REMARK  15 active torsions:
REMARK  status: ('A' for Active; 'I' for Inactive)
REMARK    1  A    between atoms: N1_1  and  C1_4 
REMARK    2  A    between atoms: C3_8  and  C4_9 
REMARK    3  A    between atoms: C4_9  and  O1_10 
REMARK    4  A    between atoms: C4_9  and  C5_12 
REMARK    5  A    between atoms: N5_16  and  C6_17 
REMARK    6  A    between atoms: C6_17  and  C7_18 
REMARK    7  A    between atoms: C10_27  and  N9_28 
REMARK    8  A    between atoms: N10_31  and  C11_32 
REMARK    9  A    between atoms: C11_32  and  C12_33 
REMARK   10  A    between atoms: C12_33  and  C13_34 
REMARK   11  A    between atoms: C13_34  and  O2_35 
REMARK   12  A    between atoms: C13_34  and  C14_37 
REMARK   13  A    between atoms: C14_37  and  N11_38 
REMARK   14  A    between atoms: C15_42  and  N12_43 
REMARK   15  A    between atoms: C16_50  and  N15_51 
ROOT
HETATM    1  C7  UNL     1       6.492   3.491  40.373  1.00  0.00     0.118 C 
HETATM    2  N6  UNL     1       6.291   4.819  40.587  1.00  0.00    -0.286 N 
ATOM      3  H6  UNL     1       5.765   5.309  39.863  1.00  0.00     0.188 HD
HETATM    4  N7  UNL     1       6.692   5.574  41.624  1.00  0.00    -0.281 N 
ATOM      5  H7  UNL     1       7.106   6.486  41.429  1.00  0.00     0.188 HD
HETATM    6  C8  UNL     1       6.574   5.180  42.926  1.00  0.00     0.169 A 
HETATM    7  C9  UNL     1       6.565   3.883  43.400  1.00  0.00     0.138 A 
HETATM    8  N8  UNL     1       6.429   3.940  44.733  1.00  0.00    -0.184 N 
ATOM      9  H8  UNL     1       6.389   3.149  45.375  1.00  0.00     0.184 HD
HETATM   10  C10 UNL     1       6.357   5.235  45.057  1.00  0.00     0.680 A 
HETATM   11  N10 UNL     1       6.442   6.013  43.978  1.00  0.00    -0.165 N 
HETATM   12  C15 UNL     1       6.675   2.694  42.672  1.00  0.00     0.132 C 
HETATM   13  N13 UNL     1       6.924   2.637  41.345  1.00  0.00    -0.328 N 
ATOM     14  H13 UNL     1       7.506   1.861  41.031  1.00  0.00     0.169 HD
ENDROOT
BRANCH   1  15
HETATM   15  C6  UNL     1       6.223   2.966  39.021  1.00  0.00     0.245 C 
BRANCH  15  16
HETATM   16  N5  UNL     1       7.397   2.253  38.553  1.00  0.00    -0.209 N 
HETATM   17  N4  UNL     1       8.505   2.770  38.046  1.00  0.00    -0.003 NA
HETATM   18  N3  UNL     1       9.334   1.758  37.745  1.00  0.00    -0.268 N 
HETATM   19  C5  UNL     1       8.745   0.592  38.065  1.00  0.00     0.144 A 
ATOM     20  H3  UNL     1      10.265   1.856  37.338  1.00  0.00     0.185 HD
HETATM   21  N14 UNL     1       7.538   0.926  38.566  1.00  0.00    -0.270 N 
ATOM     22  H14 UNL     1       6.840   0.265  38.905  1.00  0.00     0.190 HD
BRANCH  19  23
HETATM   23  C4  UNL     1       9.330  -0.766  37.888  1.00  0.00     0.226 C 
BRANCH  23  24
HETATM   24  C3  UNL     1       9.119  -1.305  36.533  1.00  0.00     0.038 A 
HETATM   25  C2  UNL     1       7.857  -1.589  36.058  1.00  0.00     0.120 A 
HETATM   26  N2  UNL     1       7.688  -2.084  34.809  1.00  0.00    -0.201 N 
HETATM   27  C1  UNL     1       8.730  -2.316  33.994  1.00  0.00     0.677 A 
ATOM     28  H2  UNL     1       6.744  -2.285  34.479  1.00  0.00     0.183 HD
HETATM   29  N16 UNL     1       9.973  -2.047  34.432  1.00  0.00    -0.177 N 
HETATM   30  C16 UNL     1      10.168  -1.550  35.680  1.00  0.00     0.125 A 
ATOM     31  H16 UNL     1      10.773  -2.219  33.823  1.00  0.00     0.185 HD
BRANCH  27  32
HETATM   32  N1  UNL     1       8.538  -2.790  32.804  1.00  0.00    -0.234 N 
ATOM     33  H12 UNL     1       8.479  -3.796  32.648  1.00  0.00     0.174 HD
ATOM     34  H11 UNL     1       8.443  -2.161  32.007  1.00  0.00     0.174 HD
ENDBRANCH  27  32
BRANCH  30  35
HETATM   35  N15 UNL     1      11.365  -1.295  36.095  1.00  0.00    -0.384 N 
ATOM     36 2H15 UNL     1      11.534  -0.500  36.712  1.00  0.00     0.157 HD
ATOM     37 1H15 UNL     1      12.122  -1.905  35.787  1.00  0.00     0.157 HD
ENDBRANCH  30  35
ENDBRANCH  23  24
BRANCH  23  38
HETATM   38  O1  UNL     1       8.717  -1.614  38.837  1.00  0.00    -0.383 OA
ATOM     39  H1  UNL     1       7.835  -1.310  39.014  1.00  0.00     0.211 HD
ENDBRANCH  23  38
ENDBRANCH  19  23
ENDBRANCH  15  16
ENDBRANCH   1  15
BRANCH  12  40
HETATM   40  N12 UNL     1       6.522   1.640  43.359  1.00  0.00    -0.383 N 
ATOM     41 2H12 UNL     1       7.289   1.245  43.903  1.00  0.00     0.157 HD
ATOM     42 1H12 UNL     1       5.584   1.240  43.315  1.00  0.00     0.157 HD
ENDBRANCH  12  40
BRANCH  11  43
HETATM   43  C11 UNL     1       6.411   7.464  43.860  1.00  0.00     0.152 C 
BRANCH  43  44
HETATM   44  C12 UNL     1       6.666   7.880  42.410  1.00  0.00     0.054 C 
BRANCH  44  45
HETATM   45  C13 UNL     1       7.649   9.038  42.366  1.00  0.00     0.145 C 
BRANCH  45  46
HETATM   46  O2  UNL     1       8.146   9.294  43.639  1.00  0.00    -0.394 OA
ATOM     47  H2  UNL     1       7.727  10.064  44.006  1.00  0.00     0.210 HD
ENDBRANCH  45  46
BRANCH  45  48
HETATM   48  C14 UNL     1       6.973  10.262  41.777  1.00  0.00     0.261 C 
BRANCH  48  49
HETATM   49  N11 UNL     1       7.414  11.464  42.427  1.00  0.00    -0.077 N 
ATOM     50 3H11 UNL     1       8.068  11.987  41.844  1.00  0.00     0.274 HD
ATOM     51 2H11 UNL     1       6.666  12.155  42.483  1.00  0.00     0.274 HD
ATOM     52 1H11 UNL     1       7.809  11.263  43.346  1.00  0.00     0.274 HD
ENDBRANCH  48  49
ENDBRANCH  45  48
ENDBRANCH  44  45
ENDBRANCH  43  44
ENDBRANCH  11  43
BRANCH  10  53
HETATM   53  N9  UNL     1       6.223   5.657  46.259  1.00  0.00    -0.234 N 
ATOM     54  H92 UNL     1       6.959   6.096  46.811  1.00  0.00     0.174 HD
ATOM     55  H91 UNL     1       5.352   5.590  46.786  1.00  0.00     0.174 HD
ENDBRANCH  10  53
TORSDOF 15
ENDMDL
MODEL 5
REMARK VINA RESULT: -0.703600424      2.234      2.615
REMARK  15 active torsions:
REMARK  status: ('A' for Active; 'I' for Inactive)
REMARK    1  A    between atoms: N1_1  and  C1_4 
REMARK    2  A    between atoms: C3_8  and  C4_9 
REMARK    3  A    between atoms: C4_9  and  O1_10 
REMARK    4  A    between atoms: C4_9  and  C5_12 
REMARK    5  A    between atoms: N5_16  and  C6_17 
REMARK    6  A    between atoms: C6_17  and  C7_18 
REMARK    7  A    between atoms: C10_27  and  N9_28 
REMARK    8  A    between atoms: N10_31  and  C11_32 
REMARK    9  A    between atoms: C11_32  and  C12_33 
REMARK   10  A    between atoms: C12_33  and  C13_34 
REMARK   11  A    between atoms: C13_34  and  O2_35 
REMARK   12  A    between atoms: C13_34  and  C14_37 
REMARK   13  A    between atoms: C14_37  and  N11_38 
REMARK   14  A    between atoms: C15_42  and  N12_43 
REMARK   15  A    between atoms: C16_50  and  N15_51 
ROOT
HETATM    1  C7  UNL     1       6.718   3.943  44.454  1.00  0.00     0.118 C 
HETATM    2  N6  UNL     1       6.800   5.268  44.160  1.00  0.00    -0.286 N 
ATOM      3  H6  UNL     1       6.422   5.543  43.254  1.00  0.00     0.188 HD
HETATM    4  N7  UNL     1       7.313   6.264  44.903  1.00  0.00    -0.281 N 
ATOM      5  H7  UNL     1       7.921   6.945  44.448  1.00  0.00     0.188 HD
HETATM    6  C8  UNL     1       7.059   6.410  46.237  1.00  0.00     0.169 A 
HETATM    7  C9  UNL     1       6.751   5.406  47.134  1.00  0.00     0.138 A 
HETATM    8  N8  UNL     1       6.577   5.977  48.335  1.00  0.00    -0.184 N 
ATOM      9  H8  UNL     1       6.340   5.502  49.206  1.00  0.00     0.184 HD
HETATM   10  C10 UNL     1       6.772   7.289  48.170  1.00  0.00     0.680 A 
HETATM   11  N10 UNL     1       7.067   7.581  46.903  1.00  0.00    -0.165 N 
HETATM   12  C15 UNL     1       6.631   4.034  46.891  1.00  0.00     0.132 C 
HETATM   13  N13 UNL     1       6.915   3.445  45.709  1.00  0.00    -0.328 N 
ATOM     14  H13 UNL     1       7.328   2.514  45.761  1.00  0.00     0.169 HD
ENDROOT
BRANCH   1  15
HETATM   15  C6  UNL     1       6.397   3.014  43.354  1.00  0.00     0.245 C 
BRANCH  15  16
HETATM   16  N5  UNL     1       7.179   1.803  43.520  1.00  0.00    -0.209 N 
HETATM   17  N4  UNL     1       8.275   1.644  44.244  1.00  0.00    -0.003 NA
HETATM   18  N3  UNL     1       8.673   0.368  44.119  1.00  0.00    -0.268 N 
HETATM   19  C5  UNL     1       7.820  -0.285  43.309  1.00  0.00     0.144 A 
ATOM     20  H3  UNL     1       9.493  -0.042  44.567  1.00  0.00     0.185 HD
HETATM   21  N14 UNL     1       6.898   0.631  42.948  1.00  0.00    -0.270 N 
ATOM     22  H14 UNL     1       6.105   0.453  42.332  1.00  0.00     0.190 HD
BRANCH  19  23
HETATM   23  C4  UNL     1       7.908  -1.717  42.913  1.00  0.00     0.226 C 
BRANCH  23  24
HETATM   24  C3  UNL     1       8.214  -1.896  41.484  1.00  0.00     0.038 A 
HETATM   25  C2  UNL     1       7.314  -1.543  40.502  1.00  0.00     0.120 A 
HETATM   26  N2  UNL     1       7.619  -1.717  39.195  1.00  0.00    -0.201 N 
HETATM   27  C1  UNL     1       8.795  -2.234  38.806  1.00  0.00     0.677 A 
ATOM     28  H2  UNL     1       6.936  -1.447  38.487  1.00  0.00     0.183 HD
HETATM   29  N16 UNL     1       9.693  -2.588  39.743  1.00  0.00    -0.177 N 
HETATM   30  C16 UNL     1       9.411  -2.423  41.061  1.00  0.00     0.125 A 
ATOM     31  H16 UNL     1      10.591  -2.982  39.462  1.00  0.00     0.185 HD
BRANCH  27  32
HETATM   32  N1  UNL     1       9.059  -2.389  37.548  1.00  0.00    -0.234 N 
ATOM     33  H12 UNL     1       9.196  -3.321  37.156  1.00  0.00     0.174 HD
ATOM     34  H11 UNL     1       9.134  -1.579  36.933  1.00  0.00     0.174 HD
ENDBRANCH  27  32
BRANCH  30  35
HETATM   35  N15 UNL     1      10.278  -2.765  41.956  1.00  0.00    -0.384 N 
ATOM     36 2H15 UNL     1       9.966  -3.100  42.868  1.00  0.00     0.157 HD
ATOM     37 1H15 UNL     1      11.268  -2.688  41.723  1.00  0.00     0.157 HD
ENDBRANCH  30  35
ENDBRANCH  23  24
BRANCH  23  38
HETATM   38  O1  UNL     1       6.660  -2.310  43.209  1.00  0.00    -0.383 OA
ATOM     39  H1  UNL     1       5.960  -1.709  42.984  1.00  0.00     0.211 HD
ENDBRANCH  23  38
ENDBRANCH  19  23
ENDBRANCH  15  16
ENDBRANCH   1  15
BRANCH  12  40
HETATM   40  N12 UNL     1       6.226   3.358  47.884  1.00  0.00    -0.383 N 
ATOM     41 2H12 UNL     1       6.836   3.161  48.677  1.00  0.00     0.157 HD
ATOM     42 1H12 UNL     1       5.259   3.041  47.813  1.00  0.00     0.157 HD
ENDBRANCH  12  40
BRANCH  11  43
HETATM   43  C11 UNL     1       7.355   8.865  46.277  1.00  0.00     0.152 C 
BRANCH  43  44
HETATM   44  C12 UNL     1       8.439   9.603  47.065  1.00  0.00     0.054 C 
BRANCH  44  45
HETATM   45  C13 UNL     1       7.850  10.839  47.726  1.00  0.00     0.145 C 
BRANCH  45  46
HETATM   46  O2  UNL     1       6.517  10.619  48.056  1.00  0.00    -0.394 OA
ATOM     47  H2  UNL     1       6.016  10.415  47.275  1.00  0.00     0.210 HD
ENDBRANCH  45  46
BRANCH  45  48
HETATM   48  C14 UNL     1       8.004  12.035  46.804  1.00  0.00     0.261 C 
BRANCH  48  49
HETATM   49  N11 UNL     1       7.041  13.054  47.110  1.00  0.00    -0.077 N 
ATOM     50 3H11 UNL     1       7.380  13.686  47.835  1.00  0.00     0.274 HD
ATOM     51 2H11 UNL     1       6.952  13.726  46.347  1.00  0.00     0.274 HD
ATOM     52 1H11 UNL     1       6.138  12.647  47.358  1.00  0.00     0.274 HD
ENDBRANCH  48  49
ENDBRANCH  45  48
ENDBRANCH  44  45
ENDBRANCH  43  44
ENDBRANCH  11  43
BRANCH  10  53
HETATM   53  N9  UNL     1       6.684   8.142  49.121  1.00  0.00    -0.234 N 
ATOM     54  H92 UNL     1       7.415   8.802  49.385  1.00  0.00     0.174 HD
ATOM     55  H91 UNL     1       5.860   8.243  49.713  1.00  0.00     0.174 HD
ENDBRANCH  10  53
TORSDOF 15
ENDMDL
