MODEL 1
REMARK VINA RESULT: -0.727905981      0.000      0.000
REMARK  14 active torsions:
REMARK  status: ('A' for Active; 'I' for Inactive)
REMARK    1  A    between atoms: C2_3  and  N2_4 
REMARK    2  A    between atoms: N2_4  and  N3_5 
REMARK    3  A    between atoms: N2_4  and  C3_8 
REMARK    4  A    between atoms: C4_11  and  N5_12 
REMARK    5  A    between atoms: C7_19  and  N7_20 
REMARK    6  A    between atoms: N7_20  and  C8_22 
REMARK    7  A    between atoms: C14_31  and  C15_32 
REMARK    8  A    between atoms: C15_32  and  N9_33 
REMARK    9  A    between atoms: C16_39  and  C17_40 
REMARK   10  A    between atoms: C17_40  and  N11_41 
REMARK   11  A    between atoms: C17_40  and  C18_45 
REMARK   12  A    between atoms: C18_45  and  O1_46 
REMARK   13  A    between atoms: C18_45  and  C19_48 
REMARK   14  A    between atoms: C19_48  and  O2_49 
ROOT
HETATM    1  N1  UNL     1       8.474  10.084  47.071  1.00  0.00    -0.195 NA
HETATM    2  C1  UNL     1       8.364   9.266  46.253  1.00  0.00     0.081 C 
HETATM    3  C2  UNL     1       8.229   8.207  45.229  1.00  0.00     0.290 C 
ENDROOT
BRANCH   3   4
HETATM    4  N2  UNL     1       7.267   7.234  45.634  1.00  0.00    -0.117 N 
BRANCH   4   5
HETATM    5  N3  UNL     1       6.289   7.611  46.598  1.00  0.00    -0.328 N 
ATOM      6  H32 UNL     1       6.050   8.600  46.669  1.00  0.00     0.177 HD
ATOM      7  H31 UNL     1       5.867   6.880  47.171  1.00  0.00     0.177 HD
ENDBRANCH   4   5
BRANCH   4   8
HETATM    8  C3  UNL     1       7.227   5.894  45.137  1.00  0.00     0.702 A 
HETATM    9  N4  UNL     1       7.491   4.910  45.994  1.00  0.00    -0.173 N 
HETATM   10  C4  UNL     1       7.480   3.592  45.609  1.00  0.00     0.146 A 
ATOM     11  H4  UNL     1       7.707   5.142  46.963  1.00  0.00     0.186 HD
HETATM   12  C5  UNL     1       7.189   3.321  44.317  1.00  0.00     0.130 A 
HETATM   13  C6  UNL     1       6.910   4.340  43.402  1.00  0.00     0.154 A 
HETATM   14  N12 UNL     1       7.151   2.046  43.834  1.00  0.00    -0.287 N 
HETATM   15  N6  UNL     1       6.616   4.139  42.122  1.00  0.00    -0.325 N 
HETATM   16  N13 UNL     1       6.940   5.627  43.861  1.00  0.00    -0.172 N 
HETATM   17  C7  UNL     1       6.579   2.880  41.653  1.00  0.00     0.133 A 
ATOM     18  H6  UNL     1       6.422   4.928  41.505  1.00  0.00     0.169 HD
HETATM   19  C13 UNL     1       6.842   1.820  42.486  1.00  0.00     0.109 A 
HETATM   20  C14 UNL     1       6.885   0.469  42.311  1.00  0.00     0.067 A 
HETATM   21  N10 UNL     1       7.195  -0.059  43.469  1.00  0.00    -0.344 N 
HETATM   22  C16 UNL     1       7.369   0.920  44.453  1.00  0.00     0.123 A 
ATOM     23  H10 UNL     1       7.297  -1.061  43.633  1.00  0.00     0.167 HD
ATOM     24  H13 UNL     1       6.740   6.395  43.220  1.00  0.00     0.186 HD
BRANCH  10  25
HETATM   25  N5  UNL     1       7.744   2.831  46.538  1.00  0.00    -0.383 N 
ATOM     26  H52 UNL     1       7.447   1.870  46.705  1.00  0.00     0.157 HD
ATOM     27  H51 UNL     1       8.356   3.262  47.231  1.00  0.00     0.157 HD
ENDBRANCH  10  25
BRANCH  17  28
HETATM   28  N7  UNL     1       6.229   2.703  40.276  1.00  0.00    -0.370 N 
ATOM     29  H7  UNL     1       5.404   3.175  39.904  1.00  0.00     0.161 HD
BRANCH  28  30
HETATM   30  C8  UNL     1       7.027   1.863  39.397  1.00  0.00     0.086 C 
HETATM   31  C9  UNL     1       6.298   1.283  38.233  1.00  0.00     0.052 C 
HETATM   32  C10 UNL     1       7.125   0.044  37.822  1.00  0.00     0.234 C 
HETATM   33  N8  UNL     1       8.538   0.367  37.952  1.00  0.00    -0.075 N 
HETATM   34  C11 UNL     1       8.811   1.778  37.775  1.00  0.00     0.234 C 
ATOM     35  H82 UNL     1       8.908   0.032  38.841  1.00  0.00     0.277 HD
ATOM     36  H81 UNL     1       9.101  -0.196  37.315  1.00  0.00     0.277 HD
HETATM   37  C12 UNL     1       8.265   2.590  38.952  1.00  0.00     0.052 C 
ENDBRANCH  28  30
ENDBRANCH  17  28
BRANCH  20  38
HETATM   38  C15 UNL     1       6.644  -0.281  41.039  1.00  0.00     0.288 C 
BRANCH  38  39
HETATM   39  N9  UNL     1       7.714  -1.305  40.916  1.00  0.00    -0.074 N 
ATOM     40  H93 UNL     1       7.914  -1.779  41.797  1.00  0.00     0.274 HD
ATOM     41  H92 UNL     1       7.420  -2.126  40.388  1.00  0.00     0.274 HD
ATOM     42  H91 UNL     1       8.532  -0.846  40.516  1.00  0.00     0.274 HD
ENDBRANCH  38  39
ENDBRANCH  20  38
BRANCH  22  43
HETATM   43  C17 UNL     1       7.701   0.393  45.721  1.00  0.00     0.281 C 
BRANCH  43  44
HETATM   44  N11 UNL     1       7.324  -1.121  45.732  1.00  0.00    -0.066 N 
ATOM     45 3H11 UNL     1       8.096  -1.720  45.439  1.00  0.00     0.275 HD
ATOM     46 2H11 UNL     1       7.212  -1.491  46.675  1.00  0.00     0.275 HD
ATOM     47 1H11 UNL     1       6.490  -1.245  45.158  1.00  0.00     0.275 HD
ENDBRANCH  43  44
BRANCH  43  48
HETATM   48  C18 UNL     1       9.273   0.136  45.695  1.00  0.00     0.179 C 
BRANCH  48  49
HETATM   49  O1  UNL     1       9.711   0.891  44.615  1.00  0.00    -0.391 OA
ATOM     50  H1  UNL     1      10.618   0.631  44.513  1.00  0.00     0.210 HD
ENDBRANCH  48  49
BRANCH  48  51
HETATM   51  C19 UNL     1       9.569  -1.297  45.466  1.00  0.00     0.198 C 
BRANCH  51  52
HETATM   52  O2  UNL     1       9.609  -2.028  46.653  1.00  0.00    -0.398 OA
ATOM     53  H2  UNL     1       9.567  -2.965  46.504  1.00  0.00     0.209 HD
ENDBRANCH  51  52
ENDBRANCH  48  51
ENDBRANCH  43  48
ENDBRANCH  22  43
ENDBRANCH   4   8
ENDBRANCH   3   4
TORSDOF 14
ENDMDL
MODEL 2
REMARK VINA RESULT: 2.996508595      3.801      8.931
REMARK  14 active torsions:
REMARK  status: ('A' for Active; 'I' for Inactive)
REMARK    1  A    between atoms: C2_3  and  N2_4 
REMARK    2  A    between atoms: N2_4  and  N3_5 
REMARK    3  A    between atoms: N2_4  and  C3_8 
REMARK    4  A    between atoms: C4_11  and  N5_12 
REMARK    5  A    between atoms: C7_19  and  N7_20 
REMARK    6  A    between atoms: N7_20  and  C8_22 
REMARK    7  A    between atoms: C14_31  and  C15_32 
REMARK    8  A    between atoms: C15_32  and  N9_33 
REMARK    9  A    between atoms: C16_39  and  C17_40 
REMARK   10  A    between atoms: C17_40  and  N11_41 
REMARK   11  A    between atoms: C17_40  and  C18_45 
REMARK   12  A    between atoms: C18_45  and  O1_46 
REMARK   13  A    between atoms: C18_45  and  C19_48 
REMARK   14  A    between atoms: C19_48  and  O2_49 
ROOT
HETATM    1  N1  UNL     1       8.185   2.004  37.798  1.00  0.00    -0.195 NA
HETATM    2  C1  UNL     1       7.321   2.194  38.551  1.00  0.00     0.081 C 
HETATM    3  C2  UNL     1       6.228   2.415  39.524  1.00  0.00     0.290 C 
ENDROOT
BRANCH   3   4
HETATM    4  N2  UNL     1       6.750   2.546  40.846  1.00  0.00    -0.117 N 
BRANCH   4   5
HETATM    5  N3  UNL     1       7.198   1.372  41.516  1.00  0.00    -0.328 N 
ATOM      6  H32 UNL     1       7.575   0.616  40.944  1.00  0.00     0.177 HD
ATOM      7  H31 UNL     1       7.127   1.337  42.532  1.00  0.00     0.177 HD
ENDBRANCH   4   5
BRANCH   4   8
HETATM    8  C3  UNL     1       6.846   3.788  41.549  1.00  0.00     0.702 A 
HETATM    9  N4  UNL     1       6.956   4.899  40.825  1.00  0.00    -0.173 N 
HETATM   10  C4  UNL     1       7.057   6.138  41.409  1.00  0.00     0.146 A 
ATOM     11  H4  UNL     1       6.966   4.829  39.807  1.00  0.00     0.186 HD
HETATM   12  C5  UNL     1       7.041   6.194  42.760  1.00  0.00     0.130 A 
HETATM   13  C6  UNL     1       6.927   5.038  43.537  1.00  0.00     0.154 A 
HETATM   14  N12 UNL     1       7.134   7.373  43.438  1.00  0.00    -0.287 N 
HETATM   15  N6  UNL     1       6.903   5.027  44.866  1.00  0.00    -0.325 N 
HETATM   16  N13 UNL     1       6.830   3.842  42.882  1.00  0.00    -0.172 N 
HETATM   17  C7  UNL     1       6.994   6.193  45.528  1.00  0.00     0.133 A 
ATOM     18  H6  UNL     1       6.817   4.148  45.375  1.00  0.00     0.169 HD
HETATM   19  C13 UNL     1       7.110   7.376  44.839  1.00  0.00     0.109 A 
HETATM   20  C14 UNL     1       7.222   8.681  45.215  1.00  0.00     0.067 A 
HETATM   21  N10 UNL     1       7.304   9.392  44.118  1.00  0.00    -0.344 N 
HETATM   22  C16 UNL     1       7.251   8.586  42.976  1.00  0.00     0.123 A 
ATOM     23  H10 UNL     1       7.397  10.408  44.099  1.00  0.00     0.167 HD
ATOM     24  H13 UNL     1       6.744   2.979  43.419  1.00  0.00     0.186 HD
BRANCH  10  25
HETATM   25  N5  UNL     1       7.147   7.041  40.580  1.00  0.00    -0.383 N 
ATOM     26  H52 UNL     1       7.326   6.996  39.577  1.00  0.00     0.157 HD
ATOM     27  H51 UNL     1       7.019   7.963  40.995  1.00  0.00     0.157 HD
ENDBRANCH  10  25
BRANCH  17  28
HETATM   28  N7  UNL     1       6.934   6.143  46.958  1.00  0.00    -0.370 N 
ATOM     29  H7  UNL     1       6.262   6.731  47.452  1.00  0.00     0.161 HD
BRANCH  28  30
HETATM   30  C8  UNL     1       7.812   5.269  47.720  1.00  0.00     0.086 C 
HETATM   31  C9  UNL     1       7.354   3.857  47.848  1.00  0.00     0.052 C 
HETATM   32  C10 UNL     1       8.075   3.315  49.103  1.00  0.00     0.234 C 
HETATM   33  N8  UNL     1       9.429   3.846  49.123  1.00  0.00    -0.075 N 
HETATM   34  C11 UNL     1       9.940   4.135  47.798  1.00  0.00     0.234 C 
ATOM     35  H82 UNL     1       9.491   4.667  49.725  1.00  0.00     0.277 HD
ATOM     36  H81 UNL     1      10.058   3.222  49.628  1.00  0.00     0.277 HD
HETATM   37  C12 UNL     1       9.216   5.336  47.186  1.00  0.00     0.052 C 
ENDBRANCH  28  30
ENDBRANCH  17  28
BRANCH  20  38
HETATM   38  C15 UNL     1       7.262   9.214  46.613  1.00  0.00     0.288 C 
BRANCH  38  39
HETATM   39  N9  UNL     1       8.682   9.515  46.934  1.00  0.00    -0.074 N 
ATOM     40  H93 UNL     1       9.107   8.821  47.549  1.00  0.00     0.274 HD
ATOM     41  H92 UNL     1       9.306   9.387  46.138  1.00  0.00     0.274 HD
ATOM     42  H91 UNL     1       8.715  10.460  47.317  1.00  0.00     0.274 HD
ENDBRANCH  38  39
ENDBRANCH  20  38
BRANCH  22  43
HETATM   43  C17 UNL     1       7.332   9.315  41.768  1.00  0.00     0.281 C 
BRANCH  43  44
HETATM   44  N11 UNL     1       6.223  10.410  41.785  1.00  0.00    -0.066 N 
ATOM     45 3H11 UNL     1       5.294  10.027  41.958  1.00  0.00     0.275 HD
ATOM     46 2H11 UNL     1       6.279  11.013  42.606  1.00  0.00     0.275 HD
ATOM     47 1H11 UNL     1       6.277  10.932  40.910  1.00  0.00     0.275 HD
ENDBRANCH  43  44
BRANCH  43  48
HETATM   48  C18 UNL     1       8.535  10.343  41.953  1.00  0.00     0.179 C 
BRANCH  48  49
HETATM   49  O1  UNL     1       7.898  11.561  42.152  1.00  0.00    -0.391 OA
ATOM     50  H1  UNL     1       6.994  11.316  42.313  1.00  0.00     0.210 HD
ENDBRANCH  48  49
BRANCH  48  51
HETATM   51  C19 UNL     1       9.372  10.401  40.732  1.00  0.00     0.198 C 
BRANCH  51  52
HETATM   52  O2  UNL     1      10.732  10.283  41.013  1.00  0.00    -0.398 OA
ATOM     53  H2  UNL     1      11.134  11.118  41.221  1.00  0.00     0.209 HD
ENDBRANCH  51  52
ENDBRANCH  48  51
ENDBRANCH  43  48
ENDBRANCH  22  43
ENDBRANCH   4   8
ENDBRANCH   3   4
TORSDOF 14
ENDMDL
