MODEL 1
REMARK VINA RESULT: -11.528042188      0.000      0.000
REMARK  10 active torsions:
REMARK  status: ('A' for Active; 'I' for Inactive)
REMARK    1  A    between atoms: C3_5  and  O1_6 
REMARK    2  A    between atoms: O1_6  and  C4_7 
REMARK    3  A    between atoms: C4_7  and  C5_8 
REMARK    4  A    between atoms: C7_10  and  C8_11 
REMARK    5  A    between atoms: C8_11  and  N2_12 
REMARK    6  A    between atoms: C10_17  and  C11_18 
REMARK    7  A    between atoms: C14_21  and  C15_22 
REMARK    8  A    between atoms: C15_22  and  N4_23 
REMARK    9  A    between atoms: C19_30  and  N5_31 
REMARK   10  A    between atoms: C22_38  and  C23_39 
ROOT
HETATM    1  C5  UNL     1      -8.433  14.566  22.779  1.00  0.00    -0.020 A 
HETATM    2  C6  UNL     1      -9.173  14.146  23.862  1.00  0.00     0.023 A 
HETATM    3  C7  UNL     1     -10.587  14.028  23.816  1.00  0.00    -0.020 A 
HETATM    4  C20 UNL     1     -11.135  14.375  22.613  1.00  0.00     0.014 A 
HETATM    5  C21 UNL     1     -10.403  14.790  21.541  1.00  0.00     0.016 A 
HETATM    6  C22 UNL     1      -8.997  14.906  21.566  1.00  0.00     0.013 A 
ENDROOT
BRANCH   3   7
HETATM    7  C8  UNL     1     -11.280  13.519  24.970  1.00  0.00     0.107 C 
BRANCH   7   8
HETATM    8  N2  UNL     1     -11.080  14.090  26.268  1.00  0.00    -0.310 N 
HETATM    9  C9  UNL     1     -11.843  13.724  27.419  1.00  0.00     0.176 C 
HETATM   10  S1  UNL     1     -13.181  12.827  27.268  1.00  0.00    -0.041 SA
HETATM   11  N3  UNL     1     -11.364  14.166  28.717  1.00  0.00    -0.358 N 
HETATM   12  C10 UNL     1      -9.931  14.156  28.897  1.00  0.00     0.120 C 
ATOM     13  H3  UNL     1     -12.000  14.465  29.457  1.00  0.00     0.162 HD
HETATM   14  C18 UNL     1      -9.154  14.648  27.726  1.00  0.00     0.078 C 
HETATM   15  C19 UNL     1     -10.019  15.033  26.521  1.00  0.00     0.208 C 
BRANCH  12  16
HETATM   16  C11 UNL     1      -9.542  14.649  30.232  1.00  0.00    -0.035 A 
HETATM   17  C12 UNL     1      -8.363  15.245  30.575  1.00  0.00     0.010 A 
HETATM   18  C13 UNL     1      -8.075  15.569  31.891  1.00  0.00     0.009 A 
HETATM   19  C14 UNL     1      -8.946  15.318  32.940  1.00  0.00    -0.033 A 
HETATM   20  C16 UNL     1     -10.138  14.725  32.598  1.00  0.00     0.009 A 
HETATM   21  C17 UNL     1     -10.425  14.402  31.295  1.00  0.00     0.010 A 
BRANCH  19  22
HETATM   22  C15 UNL     1      -8.628  15.575  34.355  1.00  0.00     0.268 C 
BRANCH  22  23
HETATM   23  N4  UNL     1      -8.848  14.427  35.185  1.00  0.00    -0.075 N 
ATOM     24  H43 UNL     1      -9.705  13.942  34.921  1.00  0.00     0.274 HD
ATOM     25  H42 UNL     1      -8.173  13.690  34.978  1.00  0.00     0.274 HD
ATOM     26  H41 UNL     1      -8.847  14.657  36.179  1.00  0.00     0.274 HD
ENDBRANCH  22  23
ENDBRANCH  19  22
ENDBRANCH  12  16
BRANCH  15  27
HETATM   27  N5  UNL     1     -10.375  16.375  26.700  1.00  0.00    -0.319 N 
HETATM   28  N6  UNL     1      -9.795  17.421  26.485  1.00  0.00    -0.348 N 
ATOM     29  H62 UNL     1      -8.863  17.273  26.096  1.00  0.00     0.176 HD
ATOM     30  H61 UNL     1     -10.055  18.398  26.615  1.00  0.00     0.176 HD
ATOM     31  H5  UNL     1     -11.309  16.500  27.089  1.00  0.00     0.182 HD
ENDBRANCH  15  27
ENDBRANCH   7   8
ENDBRANCH   3   7
BRANCH   1  32
HETATM   32  C4  UNL     1      -6.907  14.604  22.872  1.00  0.00     0.217 C 
BRANCH  32  33
HETATM   33  O1  UNL     1      -6.505  15.815  23.385  1.00  0.00    -0.330 OA
BRANCH  33  34
HETATM   34  C3  UNL     1      -5.333  16.221  23.956  1.00  0.00     0.156 A 
HETATM   35  N1  UNL     1      -4.215  16.569  23.253  1.00  0.00    -0.326 N 
HETATM   36  C2  UNL     1      -3.102  16.956  23.923  1.00  0.00     0.079 A 
ATOM     37  H1  UNL     1      -4.218  16.539  22.233  1.00  0.00     0.169 HD
HETATM   38  C1  UNL     1      -1.862  17.319  23.167  1.00  0.00     0.089 C 
HETATM   39  N9  UNL     1      -3.046  17.015  25.259  1.00  0.00    -0.345 N 
HETATM   40  C30 UNL     1      -4.108  16.687  26.021  1.00  0.00     0.054 A 
ATOM     41  H9  UNL     1      -2.182  17.315  25.710  1.00  0.00     0.167 HD
HETATM   42  C24 UNL     1      -5.250  16.290  25.340  1.00  0.00     0.042 A 
HETATM   43  C28 UNL     1      -4.059  16.815  27.387  1.00  0.00    -0.034 A 
HETATM   44  C25 UNL     1      -6.342  16.025  26.126  1.00  0.00     0.018 A 
HETATM   45  C26 UNL     1      -6.342  16.144  27.491  1.00  0.00     0.002 A 
HETATM   46  C27 UNL     1      -5.176  16.547  28.152  1.00  0.00     0.009 A 
HETATM   47  C29 UNL     1      -2.822  17.255  28.093  1.00  0.00     0.050 C 
ENDBRANCH  33  34
ENDBRANCH  32  33
ENDBRANCH   1  32
BRANCH   6  48
HETATM   48  C23 UNL     1      -8.312  15.237  20.337  1.00  0.00     0.120 C 
HETATM   49  N7  UNL     1      -7.570  14.522  19.627  1.00  0.00    -0.387 N 
ATOM     50  H72 UNL     1      -7.542  13.546  19.919  1.00  0.00     0.157 HD
ATOM     51  H71 UNL     1      -7.086  14.756  18.760  1.00  0.00     0.157 HD
HETATM   52  N8  UNL     1      -8.351  16.624  19.922  1.00  0.00    -0.082 NA
ENDBRANCH   6  48
TORSDOF 10
ENDMDL
MODEL 2
REMARK VINA RESULT: -10.984702962      2.869      9.858
REMARK  10 active torsions:
REMARK  status: ('A' for Active; 'I' for Inactive)
REMARK    1  A    between atoms: C3_5  and  O1_6 
REMARK    2  A    between atoms: O1_6  and  C4_7 
REMARK    3  A    between atoms: C4_7  and  C5_8 
REMARK    4  A    between atoms: C7_10  and  C8_11 
REMARK    5  A    between atoms: C8_11  and  N2_12 
REMARK    6  A    between atoms: C10_17  and  C11_18 
REMARK    7  A    between atoms: C14_21  and  C15_22 
REMARK    8  A    between atoms: C15_22  and  N4_23 
REMARK    9  A    between atoms: C19_30  and  N5_31 
REMARK   10  A    between atoms: C22_38  and  C23_39 
ROOT
HETATM    1  C5  UNL     1      -8.589  14.577  31.409  1.00  0.00    -0.020 A 
HETATM    2  C6  UNL     1      -7.816  14.883  30.309  1.00  0.00     0.023 A 
HETATM    3  C7  UNL     1      -6.915  15.980  30.296  1.00  0.00    -0.020 A 
HETATM    4  C20 UNL     1      -6.894  16.697  31.459  1.00  0.00     0.014 A 
HETATM    5  C21 UNL     1      -7.658  16.395  32.547  1.00  0.00     0.016 A 
HETATM    6  C22 UNL     1      -8.553  15.305  32.582  1.00  0.00     0.013 A 
ENDROOT
BRANCH   3   7
HETATM    7  C8  UNL     1      -6.097  16.193  29.132  1.00  0.00     0.107 C 
BRANCH   7   8
HETATM    8  N2  UNL     1      -6.679  16.362  27.835  1.00  0.00    -0.310 N 
HETATM    9  C9  UNL     1      -5.950  16.813  26.692  1.00  0.00     0.176 C 
HETATM   10  S1  UNL     1      -4.462  17.426  26.856  1.00  0.00    -0.041 SA
HETATM   11  N3  UNL     1      -6.580  16.678  25.390  1.00  0.00    -0.358 N 
HETATM   12  C10 UNL     1      -7.365  15.482  25.191  1.00  0.00     0.120 C 
ATOM     13  H3  UNL     1      -6.475  17.384  24.662  1.00  0.00     0.162 HD
HETATM   14  C18 UNL     1      -8.208  15.091  26.354  1.00  0.00     0.078 C 
HETATM   15  C19 UNL     1      -8.052  16.005  27.573  1.00  0.00     0.208 C 
BRANCH  12  16
HETATM   16  C11 UNL     1      -7.988  15.452  23.854  1.00  0.00    -0.035 A 
HETATM   17  C12 UNL     1      -9.117  14.777  23.490  1.00  0.00     0.010 A 
HETATM   18  C13 UNL     1      -9.544  14.743  22.172  1.00  0.00     0.009 A 
HETATM   19  C14 UNL     1      -8.869  15.379  21.142  1.00  0.00    -0.033 A 
HETATM   20  C16 UNL     1      -7.735  16.065  21.505  1.00  0.00     0.009 A 
HETATM   21  C17 UNL     1      -7.310  16.101  22.810  1.00  0.00     0.010 A 
BRANCH  19  22
HETATM   22  C15 UNL     1      -9.254  15.286  19.723  1.00  0.00     0.268 C 
BRANCH  22  23
HETATM   23  N4  UNL     1      -8.338  14.493  18.956  1.00  0.00    -0.075 N 
ATOM     24  H43 UNL     1      -7.433  14.424  19.421  1.00  0.00     0.274 HD
ATOM     25  H42 UNL     1      -8.604  13.508  18.969  1.00  0.00     0.274 HD
ATOM     26  H41 UNL     1      -8.234  14.832  17.999  1.00  0.00     0.274 HD
ENDBRANCH  22  23
ENDBRANCH  19  22
ENDBRANCH  12  16
BRANCH  15  27
HETATM   27  N5  UNL     1      -8.971  17.048  27.408  1.00  0.00    -0.319 N 
HETATM   28  N6  UNL     1     -10.185  17.082  27.372  1.00  0.00    -0.348 N 
ATOM     29  H62 UNL     1     -10.602  16.158  27.486  1.00  0.00     0.176 HD
ATOM     30  H61 UNL     1     -10.855  17.842  27.252  1.00  0.00     0.176 HD
ATOM     31  H5  UNL     1      -8.535  17.962  27.296  1.00  0.00     0.182 HD
ENDBRANCH  15  27
ENDBRANCH   7   8
ENDBRANCH   3   7
BRANCH   1  32
HETATM   32  C4  UNL     1      -9.487  13.340  31.383  1.00  0.00     0.217 C 
BRANCH  32  33
HETATM   33  O1  UNL     1     -10.620  13.607  30.651  1.00  0.00    -0.330 OA
BRANCH  33  34
HETATM   34  C3  UNL     1     -11.545  12.788  30.069  1.00  0.00     0.156 A 
HETATM   35  N1  UNL     1     -12.432  12.014  30.762  1.00  0.00    -0.326 N 
HETATM   36  C2  UNL     1     -13.307  11.234  30.081  1.00  0.00     0.079 A 
ATOM     37  H1  UNL     1     -12.436  12.024  31.782  1.00  0.00     0.169 HD
HETATM   38  C1  UNL     1     -14.270  10.364  30.826  1.00  0.00     0.089 C 
HETATM   39  N9  UNL     1     -13.344  11.187  28.743  1.00  0.00    -0.345 N 
HETATM   40  C30 UNL     1     -12.502  11.921  27.992  1.00  0.00     0.054 A 
ATOM     41  H9  UNL     1     -14.026  10.583  28.284  1.00  0.00     0.167 HD
HETATM   42  C24 UNL     1     -11.602  12.721  28.683  1.00  0.00     0.042 A 
HETATM   43  C28 UNL     1     -12.594  11.914  26.622  1.00  0.00    -0.034 A 
HETATM   44  C25 UNL     1     -10.798  13.513  27.905  1.00  0.00     0.018 A 
HETATM   45  C26 UNL     1     -10.858  13.543  26.537  1.00  0.00     0.002 A 
HETATM   46  C27 UNL     1     -11.774  12.725  25.864  1.00  0.00     0.009 A 
HETATM   47  C29 UNL     1     -13.576  11.053  25.903  1.00  0.00     0.050 C 
ENDBRANCH  33  34
ENDBRANCH  32  33
ENDBRANCH   1  32
BRANCH   6  48
HETATM   48  C23 UNL     1      -9.222  15.001  33.827  1.00  0.00     0.120 C 
HETATM   49  N7  UNL     1      -8.779  14.417  34.841  1.00  0.00    -0.387 N 
ATOM     50  H72 UNL     1      -7.778  14.230  34.800  1.00  0.00     0.157 HD
ATOM     51  H71 UNL     1      -9.251  14.202  35.719  1.00  0.00     0.157 HD
HETATM   52  N8  UNL     1     -10.644  15.267  33.884  1.00  0.00    -0.082 NA
ENDBRANCH   6  48
TORSDOF 10
ENDMDL
MODEL 3
REMARK VINA RESULT: -10.911801970      3.447      9.853
REMARK  10 active torsions:
REMARK  status: ('A' for Active; 'I' for Inactive)
REMARK    1  A    between atoms: C3_5  and  O1_6 
REMARK    2  A    between atoms: O1_6  and  C4_7 
REMARK    3  A    between atoms: C4_7  and  C5_8 
REMARK    4  A    between atoms: C7_10  and  C8_11 
REMARK    5  A    between atoms: C8_11  and  N2_12 
REMARK    6  A    between atoms: C10_17  and  C11_18 
REMARK    7  A    between atoms: C14_21  and  C15_22 
REMARK    8  A    between atoms: C15_22  and  N4_23 
REMARK    9  A    between atoms: C19_30  and  N5_31 
REMARK   10  A    between atoms: C22_38  and  C23_39 
ROOT
HETATM    1  C5  UNL     1     -10.678  14.221  32.422  1.00  0.00    -0.020 A 
HETATM    2  C6  UNL     1      -9.864  14.949  31.581  1.00  0.00     0.023 A 
HETATM    3  C7  UNL     1      -8.465  15.072  31.796  1.00  0.00    -0.020 A 
HETATM    4  C20 UNL     1      -8.014  14.414  32.907  1.00  0.00     0.014 A 
HETATM    5  C21 UNL     1      -8.819  13.694  33.738  1.00  0.00     0.016 A 
HETATM    6  C22 UNL     1     -10.208  13.554  33.536  1.00  0.00     0.013 A 
ENDROOT
BRANCH   3   7
HETATM    7  C8  UNL     1      -7.675  15.796  30.837  1.00  0.00     0.107 C 
BRANCH   7   8
HETATM    8  N2  UNL     1      -8.041  15.837  29.453  1.00  0.00    -0.310 N 
HETATM    9  C9  UNL     1      -7.096  15.952  28.388  1.00  0.00     0.176 C 
HETATM   10  S1  UNL     1      -5.551  16.319  28.695  1.00  0.00    -0.041 SA
HETATM   11  N3  UNL     1      -7.567  15.706  27.036  1.00  0.00    -0.358 N 
HETATM   12  C10 UNL     1      -8.538  14.646  26.890  1.00  0.00     0.120 C 
ATOM     13  H3  UNL     1      -7.233  16.247  26.238  1.00  0.00     0.162 HD
HETATM   14  C18 UNL     1      -9.584  14.612  27.948  1.00  0.00     0.078 C 
HETATM   15  C19 UNL     1      -9.412  15.682  29.031  1.00  0.00     0.208 C 
BRANCH  12  16
HETATM   16  C11 UNL     1      -8.977  14.494  25.489  1.00  0.00    -0.035 A 
HETATM   17  C12 UNL     1      -8.180  14.412  24.384  1.00  0.00     0.010 A 
HETATM   18  C13 UNL     1      -8.719  14.376  23.108  1.00  0.00     0.009 A 
HETATM   19  C14 UNL     1     -10.082  14.420  22.861  1.00  0.00    -0.033 A 
HETATM   20  C16 UNL     1     -10.888  14.494  23.971  1.00  0.00     0.009 A 
HETATM   21  C17 UNL     1     -10.357  14.530  25.237  1.00  0.00     0.010 A 
BRANCH  19  22
HETATM   22  C15 UNL     1     -10.674  14.469  21.513  1.00  0.00     0.268 C 
BRANCH  22  23
HETATM   23  N4  UNL     1      -9.873  15.216  20.587  1.00  0.00    -0.075 N 
ATOM     24  H43 UNL     1     -10.391  16.009  20.209  1.00  0.00     0.274 HD
ATOM     25  H42 UNL     1      -9.130  15.721  21.070  1.00  0.00     0.274 HD
ATOM     26  H41 UNL     1      -9.495  14.633  19.840  1.00  0.00     0.274 HD
ENDBRANCH  22  23
ENDBRANCH  19  22
ENDBRANCH  12  16
BRANCH  15  27
HETATM   27  N5  UNL     1     -10.080  16.823  28.572  1.00  0.00    -0.319 N 
HETATM   28  N6  UNL     1     -10.730  17.054  27.572  1.00  0.00    -0.348 N 
ATOM     29  H62 UNL     1     -10.790  16.245  26.954  1.00  0.00     0.176 HD
ATOM     30  H61 UNL     1     -11.218  17.886  27.238  1.00  0.00     0.176 HD
ATOM     31  H5  UNL     1     -10.008  17.619  29.205  1.00  0.00     0.182 HD
ENDBRANCH  15  27
ENDBRANCH   7   8
ENDBRANCH   3   7
BRANCH   1  32
HETATM   32  C4  UNL     1     -12.164  14.070  32.094  1.00  0.00     0.217 C 
BRANCH  32  33
HETATM   33  O1  UNL     1     -12.482  12.736  31.992  1.00  0.00    -0.330 OA
BRANCH  33  34
HETATM   34  C3  UNL     1     -12.365  11.845  30.964  1.00  0.00     0.156 A 
HETATM   35  N1  UNL     1     -12.080  10.519  31.123  1.00  0.00    -0.326 N 
HETATM   36  C2  UNL     1     -11.984   9.724  30.030  1.00  0.00     0.079 A 
ATOM     37  H1  UNL     1     -11.941  10.131  32.056  1.00  0.00     0.169 HD
HETATM   38  C1  UNL     1     -11.652   8.273  30.187  1.00  0.00     0.089 C 
HETATM   39  N9  UNL     1     -12.160  10.183  28.784  1.00  0.00    -0.345 N 
HETATM   40  C30 UNL     1     -12.443  11.478  28.547  1.00  0.00     0.054 A 
ATOM     41  H9  UNL     1     -12.078   9.538  27.998  1.00  0.00     0.167 HD
HETATM   42  C24 UNL     1     -12.541  12.298  29.663  1.00  0.00     0.042 A 
HETATM   43  C28 UNL     1     -12.685  11.922  27.271  1.00  0.00    -0.034 A 
HETATM   44  C25 UNL     1     -12.897  13.598  29.410  1.00  0.00     0.018 A 
HETATM   45  C26 UNL     1     -13.153  14.084  28.156  1.00  0.00     0.002 A 
HETATM   46  C27 UNL     1     -13.046  13.236  27.047  1.00  0.00     0.009 A 
HETATM   47  C29 UNL     1     -12.584  11.019  26.090  1.00  0.00     0.050 C 
ENDBRANCH  33  34
ENDBRANCH  32  33
ENDBRANCH   1  32
BRANCH   6  48
HETATM   48  C23 UNL     1     -10.946  12.668  34.407  1.00  0.00     0.120 C 
HETATM   49  N7  UNL     1     -11.924  12.917  35.146  1.00  0.00    -0.387 N 
ATOM     50  H72 UNL     1     -12.301  13.857  35.022  1.00  0.00     0.157 HD
ATOM     51  H71 UNL     1     -12.445  12.291  35.761  1.00  0.00     0.157 HD
HETATM   52  N8  UNL     1     -10.412  11.333  34.581  1.00  0.00    -0.082 NA
ENDBRANCH   6  48
TORSDOF 10
ENDMDL
MODEL 4
REMARK VINA RESULT: -10.881065556      1.999      2.785
REMARK  10 active torsions:
REMARK  status: ('A' for Active; 'I' for Inactive)
REMARK    1  A    between atoms: C3_5  and  O1_6 
REMARK    2  A    between atoms: O1_6  and  C4_7 
REMARK    3  A    between atoms: C4_7  and  C5_8 
REMARK    4  A    between atoms: C7_10  and  C8_11 
REMARK    5  A    between atoms: C8_11  and  N2_12 
REMARK    6  A    between atoms: C10_17  and  C11_18 
REMARK    7  A    between atoms: C14_21  and  C15_22 
REMARK    8  A    between atoms: C15_22  and  N4_23 
REMARK    9  A    between atoms: C19_30  and  N5_31 
REMARK   10  A    between atoms: C22_38  and  C23_39 
ROOT
HETATM    1  C5  UNL     1      -6.655  16.428  21.292  1.00  0.00    -0.020 A 
HETATM    2  C6  UNL     1      -7.766  16.212  22.078  1.00  0.00     0.023 A 
HETATM    3  C7  UNL     1      -8.616  15.088  21.900  1.00  0.00    -0.020 A 
HETATM    4  C20 UNL     1      -8.234  14.258  20.883  1.00  0.00     0.014 A 
HETATM    5  C21 UNL     1      -7.135  14.471  20.106  1.00  0.00     0.016 A 
HETATM    6  C22 UNL     1      -6.275  15.578  20.273  1.00  0.00     0.013 A 
ENDROOT
BRANCH   3   7
HETATM    7  C8  UNL     1      -9.719  14.900  22.804  1.00  0.00     0.107 C 
BRANCH   7   8
HETATM    8  N2  UNL     1      -9.579  15.147  24.207  1.00  0.00    -0.310 N 
HETATM    9  C9  UNL     1     -10.107  14.286  25.219  1.00  0.00     0.176 C 
HETATM   10  S1  UNL     1     -11.142  13.104  24.834  1.00  0.00    -0.041 SA
HETATM   11  N3  UNL     1      -9.665  14.497  26.586  1.00  0.00    -0.358 N 
HETATM   12  C10 UNL     1      -8.278  14.866  26.749  1.00  0.00     0.120 C 
ATOM     13  H3  UNL     1     -10.294  14.392  27.382  1.00  0.00     0.162 HD
HETATM   14  C18 UNL     1      -7.775  15.853  25.754  1.00  0.00     0.078 C 
HETATM   15  C19 UNL     1      -8.813  16.263  24.704  1.00  0.00     0.208 C 
BRANCH  12  16
HETATM   16  C11 UNL     1      -7.932  15.089  28.167  1.00  0.00    -0.035 A 
HETATM   17  C12 UNL     1      -8.199  14.258  29.216  1.00  0.00     0.010 A 
HETATM   18  C13 UNL     1      -7.916  14.630  30.521  1.00  0.00     0.009 A 
HETATM   19  C14 UNL     1      -7.351  15.851  30.853  1.00  0.00    -0.033 A 
HETATM   20  C16 UNL     1      -7.074  16.688  29.798  1.00  0.00     0.009 A 
HETATM   21  C17 UNL     1      -7.354  16.322  28.505  1.00  0.00     0.010 A 
BRANCH  19  22
HETATM   22  C15 UNL     1      -7.120  16.304  32.236  1.00  0.00     0.268 C 
BRANCH  22  23
HETATM   23  N4  UNL     1      -8.308  16.250  33.037  1.00  0.00    -0.075 N 
ATOM     24  H43 UNL     1      -8.080  16.239  34.031  1.00  0.00     0.274 HD
ATOM     25  H42 UNL     1      -8.818  17.132  32.997  1.00  0.00     0.274 HD
ATOM     26  H41 UNL     1      -8.911  15.465  32.789  1.00  0.00     0.274 HD
ENDBRANCH  22  23
ENDBRANCH  19  22
ENDBRANCH  12  16
BRANCH  15  27
HETATM   27  N5  UNL     1      -9.519  17.344  25.244  1.00  0.00    -0.319 N 
HETATM   28  N6  UNL     1      -9.485  17.897  26.325  1.00  0.00    -0.348 N 
ATOM     29  H62 UNL     1      -8.799  17.477  26.953  1.00  0.00     0.176 HD
ATOM     30  H61 UNL     1      -9.999  18.685  26.718  1.00  0.00     0.176 HD
ATOM     31  H5  UNL     1     -10.198  17.750  24.600  1.00  0.00     0.182 HD
ENDBRANCH  15  27
ENDBRANCH   7   8
ENDBRANCH   3   7
BRANCH   1  32
HETATM   32  C4  UNL     1      -5.743  17.620  21.582  1.00  0.00     0.217 C 
BRANCH  32  33
HETATM   33  O1  UNL     1      -4.451  17.181  21.760  1.00  0.00    -0.330 OA
BRANCH  33  34
HETATM   34  C3  UNL     1      -3.809  16.647  22.840  1.00  0.00     0.156 A 
HETATM   35  N1  UNL     1      -2.826  15.702  22.761  1.00  0.00    -0.326 N 
HETATM   36  C2  UNL     1      -2.257  15.237  23.900  1.00  0.00     0.079 A 
ATOM     37  H1  UNL     1      -2.523  15.349  21.853  1.00  0.00     0.169 HD
HETATM   38  C1  UNL     1      -1.195  14.186  23.831  1.00  0.00     0.089 C 
HETATM   39  N9  UNL     1      -2.617  15.669  25.115  1.00  0.00    -0.345 N 
HETATM   40  C30 UNL     1      -3.578  16.598  25.274  1.00  0.00     0.054 A 
ATOM     41  H9  UNL     1      -2.153  15.285  25.939  1.00  0.00     0.167 HD
HETATM   42  C24 UNL     1      -4.166  17.077  24.111  1.00  0.00     0.042 A 
HETATM   43  C28 UNL     1      -3.892  17.079  26.521  1.00  0.00    -0.034 A 
HETATM   44  C25 UNL     1      -5.093  18.071  24.285  1.00  0.00     0.018 A 
HETATM   45  C26 UNL     1      -5.434  18.586  25.508  1.00  0.00     0.002 A 
HETATM   46  C27 UNL     1      -4.827  18.085  26.665  1.00  0.00     0.009 A 
HETATM   47  C29 UNL     1      -3.239  16.556  27.754  1.00  0.00     0.050 C 
ENDBRANCH  33  34
ENDBRANCH  32  33
ENDBRANCH   1  32
BRANCH   6  48
HETATM   48  C23 UNL     1      -5.071  15.641  19.476  1.00  0.00     0.120 C 
HETATM   49  N7  UNL     1      -3.993  15.022  19.619  1.00  0.00    -0.387 N 
ATOM     50  H72 UNL     1      -4.028  14.303  20.342  1.00  0.00     0.157 HD
ATOM     51  H71 UNL     1      -3.143  15.067  19.057  1.00  0.00     0.157 HD
HETATM   52  N8  UNL     1      -5.022  16.662  18.450  1.00  0.00    -0.082 NA
ENDBRANCH   6  48
TORSDOF 10
ENDMDL
MODEL 5
REMARK VINA RESULT: -10.623295247      1.982      7.636
REMARK  10 active torsions:
REMARK  status: ('A' for Active; 'I' for Inactive)
REMARK    1  A    between atoms: C3_5  and  O1_6 
REMARK    2  A    between atoms: O1_6  and  C4_7 
REMARK    3  A    between atoms: C4_7  and  C5_8 
REMARK    4  A    between atoms: C7_10  and  C8_11 
REMARK    5  A    between atoms: C8_11  and  N2_12 
REMARK    6  A    between atoms: C10_17  and  C11_18 
REMARK    7  A    between atoms: C14_21  and  C15_22 
REMARK    8  A    between atoms: C15_22  and  N4_23 
REMARK    9  A    between atoms: C19_30  and  N5_31 
REMARK   10  A    between atoms: C22_38  and  C23_39 
ROOT
HETATM    1  C5  UNL     1      -8.990  14.177  30.596  1.00  0.00    -0.020 A 
HETATM    2  C6  UNL     1      -9.867  13.602  29.701  1.00  0.00     0.023 A 
HETATM    3  C7  UNL     1     -11.248  13.442  29.988  1.00  0.00    -0.020 A 
HETATM    4  C20 UNL     1     -11.617  13.899  31.223  1.00  0.00     0.014 A 
HETATM    5  C21 UNL     1     -10.750  14.467  32.107  1.00  0.00     0.016 A 
HETATM    6  C22 UNL     1      -9.376  14.641  31.837  1.00  0.00     0.013 A 
ENDROOT
BRANCH   3   7
HETATM    7  C8  UNL     1     -12.109  12.893  28.974  1.00  0.00     0.107 C 
BRANCH   7   8
HETATM    8  N2  UNL     1     -11.829  13.076  27.583  1.00  0.00    -0.310 N 
HETATM    9  C9  UNL     1     -12.167  14.259  26.856  1.00  0.00     0.176 C 
HETATM   10  S1  UNL     1     -13.143  15.373  27.508  1.00  0.00    -0.041 SA
HETATM   11  N3  UNL     1     -11.589  14.432  25.535  1.00  0.00    -0.358 N 
HETATM   12  C10 UNL     1     -10.226  13.979  25.381  1.00  0.00     0.120 C 
ATOM     13  H3  UNL     1     -12.112  14.846  24.764  1.00  0.00     0.162 HD
HETATM   14  C18 UNL     1      -9.921  12.684  26.050  1.00  0.00     0.078 C 
HETATM   15  C19 UNL     1     -11.101  12.089  26.824  1.00  0.00     0.208 C 
BRANCH  12  16
HETATM   16  C11 UNL     1      -9.738  14.167  24.000  1.00  0.00    -0.035 A 
HETATM   17  C12 UNL     1     -10.481  14.505  22.907  1.00  0.00     0.010 A 
HETATM   18  C13 UNL     1      -9.922  14.548  21.640  1.00  0.00     0.009 A 
HETATM   19  C14 UNL     1      -8.590  14.256  21.391  1.00  0.00    -0.033 A 
HETATM   20  C16 UNL     1      -7.836  13.922  22.491  1.00  0.00     0.009 A 
HETATM   21  C17 UNL     1      -8.388  13.879  23.747  1.00  0.00     0.010 A 
BRANCH  19  22
HETATM   22  C15 UNL     1      -7.994  14.212  20.045  1.00  0.00     0.268 C 
BRANCH  22  23
HETATM   23  N4  UNL     1      -6.583  14.471  20.060  1.00  0.00    -0.075 N 
ATOM     24  H43 UNL     1      -6.357  15.302  19.514  1.00  0.00     0.274 HD
ATOM     25  H42 UNL     1      -6.278  14.792  20.979  1.00  0.00     0.274 HD
ATOM     26  H41 UNL     1      -6.035  13.667  19.751  1.00  0.00     0.274 HD
ENDBRANCH  22  23
ENDBRANCH  19  22
ENDBRANCH  12  16
BRANCH  15  27
HETATM   27  N5  UNL     1     -11.824  11.312  25.911  1.00  0.00    -0.319 N 
HETATM   28  N6  UNL     1     -13.007  11.063  25.791  1.00  0.00    -0.348 N 
ATOM     29  H62 UNL     1     -13.573  11.519  26.508  1.00  0.00     0.176 HD
ATOM     30  H61 UNL     1     -13.534  10.497  25.126  1.00  0.00     0.176 HD
ATOM     31  H5  UNL     1     -11.240  10.866  25.204  1.00  0.00     0.182 HD
ENDBRANCH  15  27
ENDBRANCH   7   8
ENDBRANCH   3   7
BRANCH   1  32
HETATM   32  C4  UNL     1      -7.528  14.384  30.197  1.00  0.00     0.217 C 
BRANCH  32  33
HETATM   33  O1  UNL     1      -7.341  15.682  29.784  1.00  0.00    -0.330 OA
BRANCH  33  34
HETATM   34  C3  UNL     1      -7.326  16.252  28.543  1.00  0.00     0.156 A 
HETATM   35  N1  UNL     1      -8.444  16.514  27.803  1.00  0.00    -0.326 N 
HETATM   36  C2  UNL     1      -8.312  17.080  26.579  1.00  0.00     0.079 A 
ATOM     37  H1  UNL     1      -9.368  16.285  28.168  1.00  0.00     0.169 HD
HETATM   38  C1  UNL     1      -9.526  17.354  25.747  1.00  0.00     0.089 C 
HETATM   39  N9  UNL     1      -7.122  17.402  26.055  1.00  0.00    -0.345 N 
HETATM   40  C30 UNL     1      -5.976  17.174  26.724  1.00  0.00     0.054 A 
ATOM     41  H9  UNL     1      -7.083  17.829  25.129  1.00  0.00     0.167 HD
HETATM   42  C24 UNL     1      -6.105  16.592  27.978  1.00  0.00     0.042 A 
HETATM   43  C28 UNL     1      -4.768  17.568  26.204  1.00  0.00    -0.034 A 
HETATM   44  C25 UNL     1      -4.935  16.430  28.675  1.00  0.00     0.018 A 
HETATM   45  C26 UNL     1      -3.709  16.812  28.199  1.00  0.00     0.002 A 
HETATM   46  C27 UNL     1      -3.608  17.396  26.931  1.00  0.00     0.009 A 
HETATM   47  C29 UNL     1      -4.658  18.200  24.859  1.00  0.00     0.050 C 
ENDBRANCH  33  34
ENDBRANCH  32  33
ENDBRANCH   1  32
BRANCH   6  48
HETATM   48  C23 UNL     1      -8.572  15.366  32.795  1.00  0.00     0.120 C 
HETATM   49  N7  UNL     1      -8.110  16.527  32.724  1.00  0.00    -0.387 N 
ATOM     50  H72 UNL     1      -8.446  17.051  31.916  1.00  0.00     0.157 HD
ATOM     51  H71 UNL     1      -7.543  17.038  33.399  1.00  0.00     0.157 HD
HETATM   52  N8  UNL     1      -8.095  14.622  33.941  1.00  0.00    -0.082 NA
ENDBRANCH   6  48
TORSDOF 10
ENDMDL
