MODEL 1
REMARK VINA RESULT: -8.301724200      0.000      0.000
REMARK  11 active torsions:
REMARK  status: ('A' for Active; 'I' for Inactive)
REMARK       I    between atoms: C2_2  and  N1_4 
REMARK    1  A    between atoms: N1_4  and  C3_6 
REMARK    2  A    between atoms: C3_6  and  C4_7 
REMARK    3  A    between atoms: C5_8  and  C6_9 
REMARK    4  A    between atoms: C6_9  and  N2_11 
REMARK       I    between atoms: N2_11  and  C8_13 
REMARK    5  A    between atoms: C8_13  and  C9_15 
REMARK    6  A    between atoms: C9_15  and  C11_17 
REMARK    7  A    between atoms: C14_20  and  C15_21 
REMARK    8  A    between atoms: N3_39  and  C31_40 
REMARK    9  A    between atoms: C31_40  and  C32_41 
REMARK   10  A    between atoms: C32_41  and  C33_42 
REMARK   11  A    between atoms: C33_42  and  N4_43 
ROOT
HETATM    1  C11 UNL     1      -9.866  15.342  25.833  1.00  0.00     0.004 C 
HETATM    2  C12 UNL     1      -9.721  13.967  25.277  1.00  0.00     0.007 C 
HETATM    3  C13 UNL     1      -9.652  13.041  26.488  1.00  0.00     0.022 C 
HETATM    4  C14 UNL     1      -8.963  13.888  27.569  1.00  0.00     0.061 C 
HETATM    5  C16 UNL     1      -9.200  15.320  27.188  1.00  0.00     0.010 C 
HETATM    6  C17 UNL     1     -10.021  16.103  28.138  1.00  0.00     0.012 C 
HETATM    7  C18 UNL     1     -11.130  15.357  28.822  1.00  0.00     0.053 C 
HETATM    8  C19 UNL     1     -10.805  13.973  29.259  1.00  0.00    -0.006 C 
HETATM    9  C20 UNL     1      -9.391  13.530  28.947  1.00  0.00     0.051 C 
HETATM   10  C21 UNL     1      -8.377  13.936  29.964  1.00  0.00     0.013 C 
HETATM   11  C22 UNL     1      -8.721  13.558  31.371  1.00  0.00     0.012 C 
HETATM   12  C23 UNL     1      -9.618  14.547  32.036  1.00  0.00    -0.016 C 
HETATM   13  C24 UNL     1      -9.004  15.884  32.074  1.00  0.00     0.012 C 
HETATM   14  C25 UNL     1      -7.808  15.605  33.009  1.00  0.00     0.001 C 
HETATM   15  C26 UNL     1      -8.299  14.485  33.944  1.00  0.00     0.005 C 
HETATM   16  C27 UNL     1      -9.673  14.360  33.563  1.00  0.00    -0.004 C 
HETATM   17  C28 UNL     1     -10.516  13.191  33.678  1.00  0.00     0.007 C 
HETATM   18  C29 UNL     1     -11.697  13.803  32.883  1.00  0.00     0.027 C 
HETATM   19  C30 UNL     1     -11.032  14.379  31.644  1.00  0.00     0.097 C 
HETATM   20  N3  UNL     1     -11.229  13.571  30.544  1.00  0.00    -0.362 N 
ENDROOT
BRANCH   1  21
HETATM   21  C9  UNL     1      -9.481  16.469  24.955  1.00  0.00     0.078 C 
HETATM   22  C10 UNL     1      -8.988  17.693  25.687  1.00  0.00     0.020 C 
BRANCH  21  23
HETATM   23  C8  UNL     1      -8.490  16.093  23.953  1.00  0.00     0.222 C 
HETATM   24  N2  UNL     1      -8.728  15.711  22.616  1.00  0.00    -0.353 N 
ATOM     25  H2  UNL     1      -9.694  15.685  22.292  1.00  0.00     0.163 HD
HETATM   26  O2  UNL     1      -7.251  16.104  24.294  1.00  0.00    -0.273 OA
BRANCH  24  27
HETATM   27  C6  UNL     1      -7.693  15.352  21.680  1.00  0.00     0.103 C 
HETATM   28  C7  UNL     1      -8.132  14.082  20.981  1.00  0.00     0.036 C 
BRANCH  27  29
HETATM   29  C5  UNL     1      -7.490  16.399  20.640  1.00  0.00    -0.005 C 
HETATM   30  C4  UNL     1      -6.329  17.038  20.616  1.00  0.00    -0.009 C 
BRANCH  30  31
HETATM   31  C3  UNL     1      -5.204  16.811  21.530  1.00  0.00     0.149 C 
BRANCH  31  32
HETATM   32  N1  UNL     1      -5.324  17.633  22.728  1.00  0.00    -0.358 N 
HETATM   33  C2  UNL     1      -4.198  18.246  23.319  1.00  0.00     0.213 C 
HETATM   34  C1  UNL     1      -4.374  19.069  24.533  1.00  0.00     0.117 C 
HETATM   35  O1  UNL     1      -3.050  18.113  22.839  1.00  0.00    -0.274 OA
ATOM     36  H1  UNL     1      -6.242  17.768  23.150  1.00  0.00     0.162 HD
ENDBRANCH  31  32
ENDBRANCH  30  31
ENDBRANCH  27  29
ENDBRANCH  24  27
ENDBRANCH  21  23
ENDBRANCH   1  21
BRANCH   4  37
HETATM   37  C15 UNL     1      -7.510  13.549  27.438  1.00  0.00     0.183 C 
HETATM   38  O3  UNL     1      -7.082  12.394  27.257  1.00  0.00    -0.647 OA
HETATM   39  O4  UNL     1      -6.565  14.567  27.519  1.00  0.00    -0.647 OA
ENDBRANCH   4  37
BRANCH  20  40
HETATM   40  C31 UNL     1     -11.828  12.301  30.611  1.00  0.00     0.066 C 
BRANCH  40  41
HETATM   41  C32 UNL     1     -12.652  11.918  29.385  1.00  0.00     0.072 C 
BRANCH  41  42
HETATM   42  C33 UNL     1     -12.113  10.555  28.952  1.00  0.00     0.234 C 
BRANCH  42  43
HETATM   43  N4  UNL     1     -11.858   9.741  30.100  1.00  0.00    -0.079 N 
ATOM     44  H43 UNL     1     -12.041  10.241  30.970  1.00  0.00     0.274 HD
ATOM     45  H42 UNL     1     -12.551   9.000  30.205  1.00  0.00     0.274 HD
ATOM     46  H41 UNL     1     -10.908   9.373  30.064  1.00  0.00     0.274 HD
ENDBRANCH  42  43
ENDBRANCH  41  42
ENDBRANCH  40  41
ENDBRANCH  20  40
TORSDOF 11
ENDMDL
MODEL 2
REMARK VINA RESULT: -8.204570999      2.109      9.711
REMARK  11 active torsions:
REMARK  status: ('A' for Active; 'I' for Inactive)
REMARK       I    between atoms: C2_2  and  N1_4 
REMARK    1  A    between atoms: N1_4  and  C3_6 
REMARK    2  A    between atoms: C3_6  and  C4_7 
REMARK    3  A    between atoms: C5_8  and  C6_9 
REMARK    4  A    between atoms: C6_9  and  N2_11 
REMARK       I    between atoms: N2_11  and  C8_13 
REMARK    5  A    between atoms: C8_13  and  C9_15 
REMARK    6  A    between atoms: C9_15  and  C11_17 
REMARK    7  A    between atoms: C14_20  and  C15_21 
REMARK    8  A    between atoms: N3_39  and  C31_40 
REMARK    9  A    between atoms: C31_40  and  C32_41 
REMARK   10  A    between atoms: C32_41  and  C33_42 
REMARK   11  A    between atoms: C33_42  and  N4_43 
ROOT
HETATM    1  C11 UNL     1      -8.504  16.175  28.007  1.00  0.00     0.004 C 
HETATM    2  C12 UNL     1      -7.348  15.427  28.577  1.00  0.00     0.007 C 
HETATM    3  C13 UNL     1      -6.557  14.918  27.377  1.00  0.00     0.022 C 
HETATM    4  C14 UNL     1      -7.625  14.672  26.300  1.00  0.00     0.061 C 
HETATM    5  C16 UNL     1      -8.789  15.546  26.664  1.00  0.00     0.010 C 
HETATM    6  C17 UNL     1      -9.110  16.615  25.692  1.00  0.00     0.012 C 
HETATM    7  C18 UNL     1      -7.939  17.246  24.996  1.00  0.00     0.053 C 
HETATM    8  C19 UNL     1      -6.857  16.314  24.578  1.00  0.00    -0.006 C 
HETATM    9  C20 UNL     1      -7.111  14.861  24.918  1.00  0.00     0.051 C 
HETATM   10  C21 UNL     1      -7.936  14.125  23.916  1.00  0.00     0.013 C 
HETATM   11  C22 UNL     1      -7.443  14.230  22.506  1.00  0.00     0.012 C 
HETATM   12  C23 UNL     1      -7.911  15.467  21.817  1.00  0.00    -0.016 C 
HETATM   13  C24 UNL     1      -9.381  15.533  21.778  1.00  0.00     0.012 C 
HETATM   14  C25 UNL     1      -9.681  14.323  20.866  1.00  0.00     0.001 C 
HETATM   15  C26 UNL     1      -8.461  14.229  19.933  1.00  0.00     0.005 C 
HETATM   16  C27 UNL     1      -7.720  15.400  20.291  1.00  0.00    -0.004 C 
HETATM   17  C28 UNL     1      -6.294  15.611  20.171  1.00  0.00     0.007 C 
HETATM   18  C29 UNL     1      -6.297  16.957  20.940  1.00  0.00     0.027 C 
HETATM   19  C30 UNL     1      -7.113  16.655  22.185  1.00  0.00     0.097 C 
HETATM   20  N3  UNL     1      -6.305  16.482  23.289  1.00  0.00    -0.362 N 
ENDROOT
BRANCH   1  21
HETATM   21  C9  UNL     1      -9.682  16.366  28.881  1.00  0.00     0.078 C 
HETATM   22  C10 UNL     1     -10.988  16.535  28.144  1.00  0.00     0.020 C 
BRANCH  21  23
HETATM   23  C8  UNL     1      -9.835  15.301  29.866  1.00  0.00     0.222 C 
HETATM   24  N2  UNL     1      -9.424  15.319  31.216  1.00  0.00    -0.353 N 
ATOM     25  H2  UNL     1      -8.965  16.160  31.564  1.00  0.00     0.163 HD
HETATM   26  O2  UNL     1     -10.407  14.213  29.495  1.00  0.00    -0.273 OA
BRANCH  24  27
HETATM   27  C6  UNL     1      -9.612  14.224  32.133  1.00  0.00     0.103 C 
HETATM   28  C7  UNL     1      -8.318  14.046  32.899  1.00  0.00     0.036 C 
BRANCH  27  29
HETATM   29  C5  UNL     1     -10.693  14.497  33.119  1.00  0.00    -0.005 C 
HETATM   30  C4  UNL     1     -11.787  13.749  33.070  1.00  0.00    -0.009 C 
BRANCH  30  31
HETATM   31  C3  UNL     1     -12.040  12.659  32.122  1.00  0.00     0.149 C 
BRANCH  31  32
HETATM   32  N1  UNL     1     -12.671  13.155  30.905  1.00  0.00    -0.358 N 
HETATM   33  C2  UNL     1     -13.789  12.509  30.336  1.00  0.00     0.213 C 
HETATM   34  C1  UNL     1     -14.390  13.051  29.101  1.00  0.00     0.117 C 
HETATM   35  O1  UNL     1     -14.288  11.483  30.852  1.00  0.00    -0.274 OA
ATOM     36  H1  UNL     1     -12.295  13.989  30.454  1.00  0.00     0.162 HD
ENDBRANCH  31  32
ENDBRANCH  30  31
ENDBRANCH  27  29
ENDBRANCH  24  27
ENDBRANCH  21  23
ENDBRANCH   1  21
BRANCH   4  37
HETATM   37  C15 UNL     1      -7.989  13.228  26.460  1.00  0.00     0.183 C 
HETATM   38  O3  UNL     1      -7.155  12.315  26.611  1.00  0.00    -0.647 OA
HETATM   39  O4  UNL     1      -9.331  12.859  26.444  1.00  0.00    -0.647 OA
ENDBRANCH   4  37
BRANCH  20  40
HETATM   40  C31 UNL     1      -4.902  16.431  23.222  1.00  0.00     0.066 C 
BRANCH  40  41
HETATM   41  C32 UNL     1      -4.184  17.048  24.420  1.00  0.00     0.072 C 
BRANCH  41  42
HETATM   42  C33 UNL     1      -3.748  18.436  23.950  1.00  0.00     0.234 C 
BRANCH  42  43
HETATM   43  N4  UNL     1      -4.803  19.378  24.155  1.00  0.00    -0.079 N 
ATOM     44  H43 UNL     1      -4.575  20.056  24.881  1.00  0.00     0.274 HD
ATOM     45  H42 UNL     1      -4.895  20.024  23.371  1.00  0.00     0.274 HD
ATOM     46  H41 UNL     1      -5.676  18.888  24.350  1.00  0.00     0.274 HD
ENDBRANCH  42  43
ENDBRANCH  41  42
ENDBRANCH  40  41
ENDBRANCH  20  40
TORSDOF 11
ENDMDL
MODEL 3
REMARK VINA RESULT: -8.055392580      2.556     10.013
REMARK  11 active torsions:
REMARK  status: ('A' for Active; 'I' for Inactive)
REMARK       I    between atoms: C2_2  and  N1_4 
REMARK    1  A    between atoms: N1_4  and  C3_6 
REMARK    2  A    between atoms: C3_6  and  C4_7 
REMARK    3  A    between atoms: C5_8  and  C6_9 
REMARK    4  A    between atoms: C6_9  and  N2_11 
REMARK       I    between atoms: N2_11  and  C8_13 
REMARK    5  A    between atoms: C8_13  and  C9_15 
REMARK    6  A    between atoms: C9_15  and  C11_17 
REMARK    7  A    between atoms: C14_20  and  C15_21 
REMARK    8  A    between atoms: N3_39  and  C31_40 
REMARK    9  A    between atoms: C31_40  and  C32_41 
REMARK   10  A    between atoms: C32_41  and  C33_42 
REMARK   11  A    between atoms: C33_42  and  N4_43 
ROOT
HETATM    1  C11 UNL     1      -8.547  16.156  28.001  1.00  0.00     0.004 C 
HETATM    2  C12 UNL     1      -7.394  15.406  28.573  1.00  0.00     0.007 C 
HETATM    3  C13 UNL     1      -6.591  14.911  27.374  1.00  0.00     0.022 C 
HETATM    4  C14 UNL     1      -7.650  14.674  26.287  1.00  0.00     0.061 C 
HETATM    5  C16 UNL     1      -8.820  15.541  26.649  1.00  0.00     0.010 C 
HETATM    6  C17 UNL     1      -9.134  16.620  25.686  1.00  0.00     0.012 C 
HETATM    7  C18 UNL     1      -7.959  17.260  25.006  1.00  0.00     0.053 C 
HETATM    8  C19 UNL     1      -6.871  16.336  24.587  1.00  0.00    -0.006 C 
HETATM    9  C20 UNL     1      -7.125  14.878  24.911  1.00  0.00     0.051 C 
HETATM   10  C21 UNL     1      -7.940  14.151  23.894  1.00  0.00     0.013 C 
HETATM   11  C22 UNL     1      -7.435  14.271  22.489  1.00  0.00     0.012 C 
HETATM   12  C23 UNL     1      -7.901  15.514  21.809  1.00  0.00    -0.016 C 
HETATM   13  C24 UNL     1      -9.370  15.578  21.758  1.00  0.00     0.012 C 
HETATM   14  C25 UNL     1      -9.659  14.376  20.832  1.00  0.00     0.001 C 
HETATM   15  C26 UNL     1      -8.431  14.294  19.908  1.00  0.00     0.005 C 
HETATM   16  C27 UNL     1      -7.697  15.463  20.284  1.00  0.00    -0.004 C 
HETATM   17  C28 UNL     1      -6.270  15.679  20.179  1.00  0.00     0.007 C 
HETATM   18  C29 UNL     1      -6.283  17.017  20.961  1.00  0.00     0.027 C 
HETATM   19  C30 UNL     1      -7.109  16.700  22.196  1.00  0.00     0.097 C 
HETATM   20  N3  UNL     1      -6.309  16.518  23.305  1.00  0.00    -0.362 N 
ENDROOT
BRANCH   1  21
HETATM   21  C9  UNL     1      -9.732  16.336  28.867  1.00  0.00     0.078 C 
HETATM   22  C10 UNL     1     -11.055  16.209  28.152  1.00  0.00     0.020 C 
BRANCH  21  23
HETATM   23  C8  UNL     1      -9.735  15.439  30.017  1.00  0.00     0.222 C 
HETATM   24  N2  UNL     1      -8.854  15.458  31.119  1.00  0.00    -0.353 N 
ATOM     25  H2  UNL     1      -8.123  16.170  31.134  1.00  0.00     0.163 HD
HETATM   26  O2  UNL     1     -10.630  14.519  30.064  1.00  0.00    -0.273 OA
BRANCH  24  27
HETATM   27  C6  UNL     1      -8.919  14.536  32.224  1.00  0.00     0.103 C 
HETATM   28  C7  UNL     1      -7.622  13.755  32.241  1.00  0.00     0.036 C 
BRANCH  27  29
HETATM   29  C5  UNL     1      -9.048  15.235  33.532  1.00  0.00    -0.005 C 
HETATM   30  C4  UNL     1     -10.093  14.944  34.295  1.00  0.00    -0.009 C 
BRANCH  30  31
HETATM   31  C3  UNL     1     -11.152  13.983  33.971  1.00  0.00     0.149 C 
BRANCH  31  32
HETATM   32  N1  UNL     1     -11.488  13.159  35.125  1.00  0.00    -0.358 N 
HETATM   33  C2  UNL     1     -10.874  11.907  35.343  1.00  0.00     0.213 C 
HETATM   34  C1  UNL     1     -11.250  11.111  36.528  1.00  0.00     0.117 C 
HETATM   35  O1  UNL     1     -10.014  11.451  34.556  1.00  0.00    -0.274 OA
ATOM     36  H1  UNL     1     -12.183  13.495  35.791  1.00  0.00     0.162 HD
ENDBRANCH  31  32
ENDBRANCH  30  31
ENDBRANCH  27  29
ENDBRANCH  24  27
ENDBRANCH  21  23
ENDBRANCH   1  21
BRANCH   4  37
HETATM   37  C15 UNL     1      -8.012  13.227  26.429  1.00  0.00     0.183 C 
HETATM   38  O3  UNL     1      -7.180  12.320  26.617  1.00  0.00    -0.647 OA
HETATM   39  O4  UNL     1      -9.349  12.850  26.348  1.00  0.00    -0.647 OA
ENDBRANCH   4  37
BRANCH  20  40
HETATM   40  C31 UNL     1      -4.905  16.470  23.250  1.00  0.00     0.066 C 
BRANCH  40  41
HETATM   41  C32 UNL     1      -4.199  17.099  24.448  1.00  0.00     0.072 C 
BRANCH  41  42
HETATM   42  C33 UNL     1      -3.782  18.493  23.978  1.00  0.00     0.234 C 
BRANCH  42  43
HETATM   43  N4  UNL     1      -4.860  19.414  24.156  1.00  0.00    -0.079 N 
ATOM     44  H43 UNL     1      -5.616  19.014  24.711  1.00  0.00     0.274 HD
ATOM     45  H42 UNL     1      -4.608  20.182  24.779  1.00  0.00     0.274 HD
ATOM     46  H41 UNL     1      -5.187  19.749  23.250  1.00  0.00     0.274 HD
ENDBRANCH  42  43
ENDBRANCH  41  42
ENDBRANCH  40  41
ENDBRANCH  20  40
TORSDOF 11
ENDMDL
MODEL 4
REMARK VINA RESULT: -7.829293009      1.026      1.302
REMARK  11 active torsions:
REMARK  status: ('A' for Active; 'I' for Inactive)
REMARK       I    between atoms: C2_2  and  N1_4 
REMARK    1  A    between atoms: N1_4  and  C3_6 
REMARK    2  A    between atoms: C3_6  and  C4_7 
REMARK    3  A    between atoms: C5_8  and  C6_9 
REMARK    4  A    between atoms: C6_9  and  N2_11 
REMARK       I    between atoms: N2_11  and  C8_13 
REMARK    5  A    between atoms: C8_13  and  C9_15 
REMARK    6  A    between atoms: C9_15  and  C11_17 
REMARK    7  A    between atoms: C14_20  and  C15_21 
REMARK    8  A    between atoms: N3_39  and  C31_40 
REMARK    9  A    between atoms: C31_40  and  C32_41 
REMARK   10  A    between atoms: C32_41  and  C33_42 
REMARK   11  A    between atoms: C33_42  and  N4_43 
ROOT
HETATM    1  C11 UNL     1      -9.840  15.351  25.792  1.00  0.00     0.004 C 
HETATM    2  C12 UNL     1      -9.741  13.969  25.244  1.00  0.00     0.007 C 
HETATM    3  C13 UNL     1      -9.671  13.051  26.460  1.00  0.00     0.022 C 
HETATM    4  C14 UNL     1      -8.938  13.887  27.520  1.00  0.00     0.061 C 
HETATM    5  C16 UNL     1      -9.147  15.322  27.133  1.00  0.00     0.010 C 
HETATM    6  C17 UNL     1      -9.927  16.132  28.094  1.00  0.00     0.012 C 
HETATM    7  C18 UNL     1     -11.040  15.420  28.806  1.00  0.00     0.053 C 
HETATM    8  C19 UNL     1     -10.742  14.031  29.247  1.00  0.00    -0.006 C 
HETATM    9  C20 UNL     1      -9.346  13.550  28.909  1.00  0.00     0.051 C 
HETATM   10  C21 UNL     1      -8.301  13.936  29.901  1.00  0.00     0.013 C 
HETATM   11  C22 UNL     1      -8.624  13.578  31.319  1.00  0.00     0.012 C 
HETATM   12  C23 UNL     1      -9.482  14.594  31.994  1.00  0.00    -0.016 C 
HETATM   13  C24 UNL     1      -8.834  15.915  32.009  1.00  0.00     0.012 C 
HETATM   14  C25 UNL     1      -7.625  15.612  32.921  1.00  0.00     0.001 C 
HETATM   15  C26 UNL     1      -8.125  14.512  33.875  1.00  0.00     0.005 C 
HETATM   16  C27 UNL     1      -9.509  14.419  33.523  1.00  0.00    -0.004 C 
HETATM   17  C28 UNL     1     -10.379  13.272  33.665  1.00  0.00     0.007 C 
HETATM   18  C29 UNL     1     -11.561  13.909  32.890  1.00  0.00     0.027 C 
HETATM   19  C30 UNL     1     -10.908  14.459  31.634  1.00  0.00     0.097 C 
HETATM   20  N3  UNL     1     -11.149  13.649  30.543  1.00  0.00    -0.362 N 
ENDROOT
BRANCH   1  21
HETATM   21  C9  UNL     1      -9.445  16.462  24.898  1.00  0.00     0.078 C 
HETATM   22  C10 UNL     1      -8.998  17.713  25.613  1.00  0.00     0.020 C 
BRANCH  21  23
HETATM   23  C8  UNL     1      -8.415  16.078  23.939  1.00  0.00     0.222 C 
HETATM   24  N2  UNL     1      -8.601  15.662  22.604  1.00  0.00    -0.353 N 
ATOM     25  H2  UNL     1      -9.555  15.615  22.247  1.00  0.00     0.163 HD
HETATM   26  O2  UNL     1      -7.189  16.115  24.322  1.00  0.00    -0.273 OA
BRANCH  24  27
HETATM   27  C6  UNL     1      -7.530  15.298  21.713  1.00  0.00     0.103 C 
HETATM   28  C7  UNL     1      -7.836  13.917  21.173  1.00  0.00     0.036 C 
BRANCH  27  29
HETATM   29  C5  UNL     1      -7.423  16.228  20.555  1.00  0.00    -0.005 C 
HETATM   30  C4  UNL     1      -6.431  17.108  20.550  1.00  0.00    -0.009 C 
BRANCH  30  31
HETATM   31  C3  UNL     1      -5.411  17.258  21.592  1.00  0.00     0.149 C 
BRANCH  31  32
HETATM   32  N1  UNL     1      -4.239  16.440  21.305  1.00  0.00    -0.358 N 
HETATM   33  C2  UNL     1      -2.948  16.826  21.724  1.00  0.00     0.213 C 
HETATM   34  C1  UNL     1      -1.793  15.961  21.406  1.00  0.00     0.117 C 
HETATM   35  O1  UNL     1      -2.752  17.885  22.360  1.00  0.00    -0.274 OA
ATOM     36  H1  UNL     1      -4.355  15.568  20.789  1.00  0.00     0.162 HD
ENDBRANCH  31  32
ENDBRANCH  30  31
ENDBRANCH  27  29
ENDBRANCH  24  27
ENDBRANCH  21  23
ENDBRANCH   1  21
BRANCH   4  37
HETATM   37  C15 UNL     1      -7.497  13.510  27.361  1.00  0.00     0.183 C 
HETATM   38  O3  UNL     1      -7.105  12.349  27.135  1.00  0.00    -0.647 OA
HETATM   39  O4  UNL     1      -6.521  14.496  27.467  1.00  0.00    -0.647 OA
ENDBRANCH   4  37
BRANCH  20  40
HETATM   40  C31 UNL     1     -11.778  12.395  30.633  1.00  0.00     0.066 C 
BRANCH  40  41
HETATM   41  C32 UNL     1     -12.703  12.061  29.465  1.00  0.00     0.072 C 
BRANCH  41  42
HETATM   42  C33 UNL     1     -14.107  12.413  29.956  1.00  0.00     0.234 C 
BRANCH  42  43
HETATM   43  N4  UNL     1     -14.378  13.796  29.718  1.00  0.00    -0.079 N 
ATOM     44  H43 UNL     1     -15.376  13.978  29.615  1.00  0.00     0.274 HD
ATOM     45  H42 UNL     1     -14.207  14.367  30.547  1.00  0.00     0.274 HD
ATOM     46  H41 UNL     1     -13.845  14.124  28.913  1.00  0.00     0.274 HD
ENDBRANCH  42  43
ENDBRANCH  41  42
ENDBRANCH  40  41
ENDBRANCH  20  40
TORSDOF 11
ENDMDL
MODEL 5
REMARK VINA RESULT: -7.724098255      1.311      1.750
REMARK  11 active torsions:
REMARK  status: ('A' for Active; 'I' for Inactive)
REMARK       I    between atoms: C2_2  and  N1_4 
REMARK    1  A    between atoms: N1_4  and  C3_6 
REMARK    2  A    between atoms: C3_6  and  C4_7 
REMARK    3  A    between atoms: C5_8  and  C6_9 
REMARK    4  A    between atoms: C6_9  and  N2_11 
REMARK       I    between atoms: N2_11  and  C8_13 
REMARK    5  A    between atoms: C8_13  and  C9_15 
REMARK    6  A    between atoms: C9_15  and  C11_17 
REMARK    7  A    between atoms: C14_20  and  C15_21 
REMARK    8  A    between atoms: N3_39  and  C31_40 
REMARK    9  A    between atoms: C31_40  and  C32_41 
REMARK   10  A    between atoms: C32_41  and  C33_42 
REMARK   11  A    between atoms: C33_42  and  N4_43 
ROOT
HETATM    1  C11 UNL     1      -9.644  15.523  25.917  1.00  0.00     0.004 C 
HETATM    2  C12 UNL     1      -9.535  14.161  25.325  1.00  0.00     0.007 C 
HETATM    3  C13 UNL     1      -9.556  13.197  26.507  1.00  0.00     0.022 C 
HETATM    4  C14 UNL     1      -8.876  13.981  27.641  1.00  0.00     0.061 C 
HETATM    5  C16 UNL     1      -9.036  15.432  27.296  1.00  0.00     0.010 C 
HETATM    6  C17 UNL     1      -9.860  16.222  28.237  1.00  0.00     0.012 C 
HETATM    7  C18 UNL     1     -11.027  15.506  28.853  1.00  0.00     0.053 C 
HETATM    8  C19 UNL     1     -10.780  14.096  29.258  1.00  0.00    -0.006 C 
HETATM    9  C20 UNL     1      -9.374  13.601  28.989  1.00  0.00     0.051 C 
HETATM   10  C21 UNL     1      -8.386  13.931  30.057  1.00  0.00     0.013 C 
HETATM   11  C22 UNL     1      -8.802  13.528  31.437  1.00  0.00     0.012 C 
HETATM   12  C23 UNL     1      -9.683  14.535  32.097  1.00  0.00    -0.016 C 
HETATM   13  C24 UNL     1      -9.014  15.842  32.201  1.00  0.00     0.012 C 
HETATM   14  C25 UNL     1      -7.870  15.482  33.173  1.00  0.00     0.001 C 
HETATM   15  C26 UNL     1      -8.446  14.358  34.052  1.00  0.00     0.005 C 
HETATM   16  C27 UNL     1      -9.807  14.305  33.614  1.00  0.00    -0.004 C 
HETATM   17  C28 UNL     1     -10.703  13.171  33.659  1.00  0.00     0.007 C 
HETATM   18  C29 UNL     1     -11.824  13.858  32.838  1.00  0.00     0.027 C 
HETATM   19  C30 UNL     1     -11.086  14.440  31.645  1.00  0.00     0.097 C 
HETATM   20  N3  UNL     1     -11.272  13.675  30.513  1.00  0.00    -0.362 N 
ENDROOT
BRANCH   1  21
HETATM   21  C9  UNL     1      -9.176  16.658  25.091  1.00  0.00     0.078 C 
HETATM   22  C10 UNL     1      -8.373  17.691  25.843  1.00  0.00     0.020 C 
BRANCH  21  23
HETATM   23  C8  UNL     1      -8.412  16.231  23.924  1.00  0.00     0.222 C 
HETATM   24  N2  UNL     1      -8.907  15.603  22.761  1.00  0.00    -0.353 N 
ATOM     25  H2  UNL     1      -9.907  15.415  22.709  1.00  0.00     0.163 HD
HETATM   26  O2  UNL     1      -7.145  16.439  23.922  1.00  0.00    -0.273 OA
BRANCH  24  27
HETATM   27  C6  UNL     1      -8.087  15.210  21.643  1.00  0.00     0.103 C 
HETATM   28  C7  UNL     1      -8.562  13.846  21.189  1.00  0.00     0.036 C 
BRANCH  27  29
HETATM   29  C5  UNL     1      -8.221  16.146  20.493  1.00  0.00    -0.005 C 
HETATM   30  C4  UNL     1      -7.134  16.777  20.071  1.00  0.00    -0.009 C 
BRANCH  30  31
HETATM   31  C3  UNL     1      -5.788  16.641  20.638  1.00  0.00     0.149 C 
BRANCH  31  32
HETATM   32  N1  UNL     1      -4.764  16.817  19.614  1.00  0.00    -0.358 N 
HETATM   33  C2  UNL     1      -4.222  15.718  18.914  1.00  0.00     0.213 C 
HETATM   34  C1  UNL     1      -3.187  15.951  17.887  1.00  0.00     0.117 C 
HETATM   35  O1  UNL     1      -4.597  14.546  19.141  1.00  0.00    -0.274 OA
ATOM     36  H1  UNL     1      -4.432  17.757  19.399  1.00  0.00     0.162 HD
ENDBRANCH  31  32
ENDBRANCH  30  31
ENDBRANCH  27  29
ENDBRANCH  24  27
ENDBRANCH  21  23
ENDBRANCH   1  21
BRANCH   4  37
HETATM   37  C15 UNL     1      -7.435  13.582  27.556  1.00  0.00     0.183 C 
HETATM   38  O3  UNL     1      -7.048  12.406  27.412  1.00  0.00    -0.647 OA
HETATM   39  O4  UNL     1      -6.452  14.563  27.640  1.00  0.00    -0.647 OA
ENDBRANCH   4  37
BRANCH  20  40
HETATM   40  C31 UNL     1     -11.927  12.431  30.517  1.00  0.00     0.066 C 
BRANCH  40  41
HETATM   41  C32 UNL     1     -12.644  12.084  29.215  1.00  0.00     0.072 C 
BRANCH  41  42
HETATM   42  C33 UNL     1     -12.126  10.697  28.833  1.00  0.00     0.234 C 
BRANCH  42  43
HETATM   43  N4  UNL     1     -11.836   9.940  30.010  1.00  0.00    -0.079 N 
ATOM     44  H43 UNL     1     -12.142  10.419  30.857  1.00  0.00     0.274 HD
ATOM     45  H42 UNL     1     -12.426   9.111  30.086  1.00  0.00     0.274 HD
ATOM     46  H41 UNL     1     -10.844   9.707  30.040  1.00  0.00     0.274 HD
ENDBRANCH  42  43
ENDBRANCH  41  42
ENDBRANCH  40  41
ENDBRANCH  20  40
TORSDOF 11
ENDMDL
