MODEL 1
REMARK VINA RESULT: -8.083126987      0.000      0.000
REMARK  9 active torsions:
REMARK  status: ('A' for Active; 'I' for Inactive)
REMARK    1  A    between atoms: C2_2  and  C3_3 
REMARK    2  A    between atoms: C3_3  and  C4_4 
REMARK    3  A    between atoms: C4_4  and  C5_5 
REMARK    4  A    between atoms: C7_10  and  C8_11 
REMARK    5  A    between atoms: C8_11  and  C9_12 
REMARK    6  A    between atoms: C13_19  and  C14_20 
REMARK    7  A    between atoms: C20_29  and  C21_30 
REMARK    8  A    between atoms: C21_30  and  C23_32 
REMARK    9  A    between atoms: C26_38  and  C27_39 
ROOT
HETATM    1  C5  UNL     1      -5.091  15.901  20.152  1.00  0.00     0.176 C 
HETATM    2  N1  UNL     1      -6.130  16.808  20.596  1.00  0.00    -0.346 N 
ATOM      3  H1  UNL     1      -6.931  16.923  19.974  1.00  0.00     0.163 HD
HETATM    4  C6  UNL     1      -6.152  17.547  21.791  1.00  0.00     0.241 C 
HETATM    5  O1  UNL     1      -6.254  18.822  21.686  1.00  0.00    -0.271 OA
HETATM    6  C7  UNL     1      -6.064  17.001  23.155  1.00  0.00     0.177 C 
HETATM    7  N2  UNL     1      -5.582  18.019  24.091  1.00  0.00    -0.346 N 
ATOM      8  H2  UNL     1      -6.302  18.526  24.606  1.00  0.00     0.163 HD
HETATM    9  C12 UNL     1      -4.268  18.383  24.369  1.00  0.00     0.241 C 
HETATM   10  O2  UNL     1      -3.979  19.621  24.180  1.00  0.00    -0.271 OA
HETATM   11  C13 UNL     1      -3.153  17.538  24.854  1.00  0.00     0.173 C 
HETATM   12  N3  UNL     1      -2.913  16.354  24.158  1.00  0.00    -0.398 N 
ATOM     13  H3  UNL     1      -3.455  15.515  24.362  1.00  0.00     0.154 HD
HETATM   14  C17 UNL     1      -1.895  16.334  23.152  1.00  0.00     0.145 C 
HETATM   15  C18 UNL     1      -0.851  17.371  23.311  1.00  0.00     0.040 C 
HETATM   16  C19 UNL     1      -1.401  14.943  22.980  1.00  0.00     0.171 C 
HETATM   17  O3  UNL     1      -1.585  14.158  23.928  1.00  0.00    -0.293 OA
HETATM   18  C20 UNL     1      -0.722  14.379  21.818  1.00  0.00     0.160 C 
HETATM   19  N4  UNL     1      -0.175  15.319  20.879  1.00  0.00    -0.347 N 
ATOM     20  H4  UNL     1       0.826  15.507  20.947  1.00  0.00     0.163 HD
HETATM   21  C25 UNL     1      -0.883  16.007  19.875  1.00  0.00     0.241 C 
HETATM   22  O4  UNL     1      -0.502  17.203  19.640  1.00  0.00    -0.271 OA
HETATM   23  C26 UNL     1      -2.006  15.498  19.074  1.00  0.00     0.180 C 
HETATM   24  N5  UNL     1      -2.940  16.601  18.917  1.00  0.00    -0.346 N 
ATOM     25  H5  UNL     1      -2.533  17.509  18.695  1.00  0.00     0.163 HD
HETATM   26  C30 UNL     1      -4.326  16.559  19.036  1.00  0.00     0.241 C 
HETATM   27  O5  UNL     1      -5.039  17.107  18.155  1.00  0.00    -0.271 OA
ENDROOT
BRANCH   1  28
HETATM   28  C4  UNL     1      -5.661  14.637  19.540  1.00  0.00     0.035 C 
BRANCH  28  29
HETATM   29  C3  UNL     1      -7.161  14.552  19.694  1.00  0.00     0.002 C 
BRANCH  29  30
HETATM   30  C2  UNL     1      -7.552  13.664  20.850  1.00  0.00    -0.004 C 
HETATM   31  C1  UNL     1      -8.932  13.951  21.373  1.00  0.00     0.005 C 
ENDBRANCH  29  30
ENDBRANCH  28  29
ENDBRANCH   1  28
BRANCH   6  32
HETATM   32  C8  UNL     1      -7.304  16.359  23.654  1.00  0.00     0.038 C 
BRANCH  32  33
HETATM   33  C9  UNL     1      -7.643  16.521  25.076  1.00  0.00    -0.020 C 
HETATM   34  C10 UNL     1      -7.189  15.235  25.858  1.00  0.00     0.009 C 
HETATM   35  C11 UNL     1      -9.042  16.797  25.484  1.00  0.00     0.009 C 
ENDBRANCH  32  33
ENDBRANCH   6  32
BRANCH  23  36
HETATM   36  C27 UNL     1      -1.461  15.257  17.658  1.00  0.00     0.009 C 
HETATM   37  C28 UNL     1      -2.585  14.745  16.809  1.00  0.00     0.012 C 
HETATM   38  C29 UNL     1      -0.309  14.310  17.706  1.00  0.00     0.012 C 
ENDBRANCH  23  36
BRANCH  11  39
HETATM   39  C14 UNL     1      -3.347  17.206  26.343  1.00  0.00     0.009 C 
HETATM   40  C15 UNL     1      -3.398  15.708  26.518  1.00  0.00     0.012 C 
HETATM   41  C16 UNL     1      -4.607  17.768  26.908  1.00  0.00     0.012 C 
ENDBRANCH  11  39
BRANCH  18  42
HETATM   42  C21 UNL     1       0.206  13.278  22.227  1.00  0.00     0.011 C 
HETATM   43  C22 UNL     1       0.261  12.179  21.166  1.00  0.00     0.012 C 
BRANCH  42  44
HETATM   44  C23 UNL     1       1.575  13.663  22.651  1.00  0.00     0.002 C 
HETATM   45  C24 UNL     1       1.922  13.485  24.083  1.00  0.00     0.005 C 
ENDBRANCH  42  44
ENDBRANCH  18  42
TORSDOF 9
ENDMDL
MODEL 2
REMARK VINA RESULT: -7.800766326     10.648     15.343
REMARK  9 active torsions:
REMARK  status: ('A' for Active; 'I' for Inactive)
REMARK    1  A    between atoms: C2_2  and  C3_3 
REMARK    2  A    between atoms: C3_3  and  C4_4 
REMARK    3  A    between atoms: C4_4  and  C5_5 
REMARK    4  A    between atoms: C7_10  and  C8_11 
REMARK    5  A    between atoms: C8_11  and  C9_12 
REMARK    6  A    between atoms: C13_19  and  C14_20 
REMARK    7  A    between atoms: C20_29  and  C21_30 
REMARK    8  A    between atoms: C21_30  and  C23_32 
REMARK    9  A    between atoms: C26_38  and  C27_39 
ROOT
HETATM    1  C5  UNL     1     -11.123  12.450  33.595  1.00  0.00     0.176 C 
HETATM    2  N1  UNL     1     -11.403  13.787  33.112  1.00  0.00    -0.346 N 
ATOM      3  H1  UNL     1     -11.090  14.559  33.701  1.00  0.00     0.163 HD
HETATM    4  C6  UNL     1     -12.059  14.133  31.918  1.00  0.00     0.241 C 
HETATM    5  O1  UNL     1     -13.111  14.860  32.022  1.00  0.00    -0.271 OA
HETATM    6  C7  UNL     1     -11.658  13.739  30.558  1.00  0.00     0.177 C 
HETATM    7  N2  UNL     1     -12.802  13.797  29.644  1.00  0.00    -0.346 N 
ATOM      8  H2  UNL     1     -12.895  14.656  29.102  1.00  0.00     0.163 HD
HETATM    9  C12 UNL     1     -13.778  12.830  29.420  1.00  0.00     0.241 C 
HETATM   10  O2  UNL     1     -14.991  13.202  29.622  1.00  0.00    -0.271 OA
HETATM   11  C13 UNL     1     -13.610  11.427  28.978  1.00  0.00     0.173 C 
HETATM   12  N3  UNL     1     -12.688  10.653  29.681  1.00  0.00    -0.398 N 
ATOM     13  H3  UNL     1     -11.694  10.697  29.453  1.00  0.00     0.154 HD
HETATM   14  C17 UNL     1     -13.154   9.795  30.726  1.00  0.00     0.145 C 
HETATM   15  C18 UNL     1     -14.576   9.401  30.612  1.00  0.00     0.040 C 
HETATM   16  C19 UNL     1     -12.190   8.680  30.915  1.00  0.00     0.171 C 
HETATM   17  O3  UNL     1     -11.438   8.416  29.958  1.00  0.00    -0.293 OA
HETATM   18  C20 UNL     1     -12.013   7.849  32.102  1.00  0.00     0.160 C 
HETATM   19  N4  UNL     1     -13.080   7.875  33.064  1.00  0.00    -0.347 N 
ATOM     20  H4  UNL     1     -13.742   7.100  33.037  1.00  0.00     0.163 HD
HETATM   21  C25 UNL     1     -13.302   8.866  34.041  1.00  0.00     0.241 C 
HETATM   22  O4  UNL     1     -14.524   9.139  34.294  1.00  0.00    -0.271 OA
HETATM   23  C26 UNL     1     -12.285   9.612  34.795  1.00  0.00     0.180 C 
HETATM   24  N5  UNL     1     -12.773  10.976  34.916  1.00  0.00    -0.346 N 
ATOM     25  H5  UNL     1     -13.758  11.083  35.157  1.00  0.00     0.163 HD
HETATM   26  C30 UNL     1     -12.050  12.152  34.742  1.00  0.00     0.241 C 
HETATM   27  O5  UNL     1     -12.150  13.073  35.595  1.00  0.00    -0.271 OA
ENDROOT
BRANCH   1  28
HETATM   28  C4  UNL     1      -9.730  12.335  34.180  1.00  0.00     0.035 C 
BRANCH  28  29
HETATM   29  C3  UNL     1      -8.950  13.623  34.061  1.00  0.00     0.002 C 
BRANCH  29  30
HETATM   30  C2  UNL     1      -7.936  13.558  32.946  1.00  0.00    -0.004 C 
HETATM   31  C1  UNL     1      -7.629  14.904  32.350  1.00  0.00     0.005 C 
ENDBRANCH  29  30
ENDBRANCH  28  29
ENDBRANCH   1  28
BRANCH   6  32
HETATM   32  C8  UNL     1     -10.496  14.477  30.008  1.00  0.00     0.038 C 
BRANCH  32  33
HETATM   33  C9  UNL     1     -10.523  14.850  28.585  1.00  0.00    -0.020 C 
HETATM   34  C10 UNL     1      -9.625  13.843  27.778  1.00  0.00     0.009 C 
HETATM   35  C11 UNL     1     -10.122  16.214  28.162  1.00  0.00     0.009 C 
ENDBRANCH  32  33
ENDBRANCH   6  32
BRANCH  23  36
HETATM   36  C27 UNL     1     -12.316   9.067  36.231  1.00  0.00     0.009 C 
HETATM   37  C28 UNL     1     -11.293   9.814  37.033  1.00  0.00     0.012 C 
HETATM   38  C29 UNL     1     -12.070   7.595  36.227  1.00  0.00     0.012 C 
ENDBRANCH  23  36
BRANCH  11  39
HETATM   39  C14 UNL     1     -13.258  11.380  27.481  1.00  0.00     0.009 C 
HETATM   40  C15 UNL     1     -11.867  10.818  27.313  1.00  0.00     0.012 C 
HETATM   41  C16 UNL     1     -13.284  12.722  26.832  1.00  0.00     0.012 C 
ENDBRANCH  11  39
BRANCH  18  42
HETATM   42  C21 UNL     1     -11.529   6.484  31.728  1.00  0.00     0.011 C 
HETATM   43  C22 UNL     1     -10.659   5.883  32.833  1.00  0.00     0.012 C 
BRANCH  42  44
HETATM   44  C23 UNL     1     -12.544   5.502  31.273  1.00  0.00     0.002 C 
HETATM   45  C24 UNL     1     -12.476   5.055  29.859  1.00  0.00     0.005 C 
ENDBRANCH  42  44
ENDBRANCH  18  42
TORSDOF 9
ENDMDL
MODEL 3
REMARK VINA RESULT: -6.885117953     11.321     15.897
REMARK  9 active torsions:
REMARK  status: ('A' for Active; 'I' for Inactive)
REMARK    1  A    between atoms: C2_2  and  C3_3 
REMARK    2  A    between atoms: C3_3  and  C4_4 
REMARK    3  A    between atoms: C4_4  and  C5_5 
REMARK    4  A    between atoms: C7_10  and  C8_11 
REMARK    5  A    between atoms: C8_11  and  C9_12 
REMARK    6  A    between atoms: C13_19  and  C14_20 
REMARK    7  A    between atoms: C20_29  and  C21_30 
REMARK    8  A    between atoms: C21_30  and  C23_32 
REMARK    9  A    between atoms: C26_38  and  C27_39 
ROOT
HETATM    1  C5  UNL     1     -11.573  11.882  34.208  1.00  0.00     0.176 C 
HETATM    2  N1  UNL     1     -11.492  13.293  33.892  1.00  0.00    -0.346 N 
ATOM      3  H1  UNL     1     -11.286  13.923  34.667  1.00  0.00     0.163 HD
HETATM    4  C6  UNL     1     -11.667  13.887  32.630  1.00  0.00     0.241 C 
HETATM    5  O1  UNL     1     -12.585  14.778  32.529  1.00  0.00    -0.271 OA
HETATM    6  C7  UNL     1     -10.903  13.583  31.410  1.00  0.00     0.177 C 
HETATM    7  N2  UNL     1     -11.665  13.952  30.215  1.00  0.00    -0.346 N 
ATOM      8  H2  UNL     1     -11.456  14.870  29.820  1.00  0.00     0.163 HD
HETATM    9  C12 UNL     1     -12.638  13.213  29.548  1.00  0.00     0.241 C 
HETATM   10  O2  UNL     1     -13.787  13.777  29.432  1.00  0.00    -0.271 OA
HETATM   11  C13 UNL     1     -12.531  11.862  28.952  1.00  0.00     0.173 C 
HETATM   12  N3  UNL     1     -12.006  10.857  29.763  1.00  0.00    -0.398 N 
ATOM     13  H3  UNL     1     -10.996  10.744  29.858  1.00  0.00     0.154 HD
HETATM   14  C17 UNL     1     -12.902   9.987  30.460  1.00  0.00     0.145 C 
HETATM   15  C18 UNL     1     -14.248   9.877  29.856  1.00  0.00     0.040 C 
HETATM   16  C19 UNL     1     -12.216   8.700  30.745  1.00  0.00     0.171 C 
HETATM   17  O3  UNL     1     -11.237   8.412  30.031  1.00  0.00    -0.293 OA
HETATM   18  C20 UNL     1     -12.554   7.722  31.774  1.00  0.00     0.160 C 
HETATM   19  N4  UNL     1     -13.862   7.835  32.358  1.00  0.00    -0.347 N 
ATOM     20  H4  UNL     1     -14.579   7.202  32.003  1.00  0.00     0.163 HD
HETATM   21  C25 UNL     1     -14.252   8.732  33.371  1.00  0.00     0.241 C 
HETATM   22  O4  UNL     1     -15.439   9.195  33.283  1.00  0.00    -0.271 OA
HETATM   23  C26 UNL     1     -13.444   9.189  34.512  1.00  0.00     0.180 C 
HETATM   24  N5  UNL     1     -13.751  10.596  34.703  1.00  0.00    -0.346 N 
ATOM     25  H5  UNL     1     -14.736  10.855  34.648  1.00  0.00     0.163 HD
HETATM   26  C30 UNL     1     -12.856  11.631  34.954  1.00  0.00     0.241 C 
HETATM   27  O5  UNL     1     -13.101  12.453  35.877  1.00  0.00    -0.271 OA
ENDROOT
BRANCH   1  28
HETATM   28  C4  UNL     1     -10.478  11.447  35.161  1.00  0.00     0.035 C 
BRANCH  28  29
HETATM   29  C3  UNL     1     -10.535   9.968  35.463  1.00  0.00     0.002 C 
BRANCH  29  30
HETATM   30  C2  UNL     1     -10.448   9.700  36.945  1.00  0.00    -0.004 C 
HETATM   31  C1  UNL     1     -10.631  10.938  37.779  1.00  0.00     0.005 C 
ENDBRANCH  29  30
ENDBRANCH  28  29
ENDBRANCH   1  28
BRANCH   6  32
HETATM   32  C8  UNL     1      -9.534  14.152  31.369  1.00  0.00     0.038 C 
BRANCH  32  33
HETATM   33  C9  UNL     1      -8.717  14.078  32.590  1.00  0.00    -0.020 C 
HETATM   34  C10 UNL     1      -8.328  15.536  33.030  1.00  0.00     0.009 C 
HETATM   35  C11 UNL     1      -7.467  13.279  32.604  1.00  0.00     0.009 C 
ENDBRANCH  32  33
ENDBRANCH   6  32
BRANCH  23  36
HETATM   36  C27 UNL     1     -14.018   8.500  35.759  1.00  0.00     0.009 C 
HETATM   37  C28 UNL     1     -14.098   9.519  36.856  1.00  0.00     0.012 C 
HETATM   38  C29 UNL     1     -13.172   7.329  36.134  1.00  0.00     0.012 C 
ENDBRANCH  23  36
BRANCH  11  39
HETATM   39  C14 UNL     1     -11.719  11.921  27.647  1.00  0.00     0.009 C 
HETATM   40  C15 UNL     1     -12.103  13.161  26.876  1.00  0.00     0.012 C 
HETATM   41  C16 UNL     1     -11.955  10.747  26.758  1.00  0.00     0.012 C 
ENDBRANCH  11  39
BRANCH  18  42
HETATM   42  C21 UNL     1     -12.167   6.342  31.344  1.00  0.00     0.011 C 
HETATM   43  C22 UNL     1     -11.847   5.457  32.549  1.00  0.00     0.012 C 
BRANCH  42  44
HETATM   44  C23 UNL     1     -13.081   5.639  30.410  1.00  0.00     0.002 C 
HETATM   45  C24 UNL     1     -12.463   4.785  29.364  1.00  0.00     0.005 C 
ENDBRANCH  42  44
ENDBRANCH  18  42
TORSDOF 9
ENDMDL
MODEL 4
REMARK VINA RESULT: -6.691611468      1.399      2.637
REMARK  9 active torsions:
REMARK  status: ('A' for Active; 'I' for Inactive)
REMARK    1  A    between atoms: C2_2  and  C3_3 
REMARK    2  A    between atoms: C3_3  and  C4_4 
REMARK    3  A    between atoms: C4_4  and  C5_5 
REMARK    4  A    between atoms: C7_10  and  C8_11 
REMARK    5  A    between atoms: C8_11  and  C9_12 
REMARK    6  A    between atoms: C13_19  and  C14_20 
REMARK    7  A    between atoms: C20_29  and  C21_30 
REMARK    8  A    between atoms: C21_30  and  C23_32 
REMARK    9  A    between atoms: C26_38  and  C27_39 
ROOT
HETATM    1  C5  UNL     1      -4.304  16.051  19.516  1.00  0.00     0.176 C 
HETATM    2  N1  UNL     1      -5.597  16.642  19.794  1.00  0.00    -0.346 N 
ATOM      3  H1  UNL     1      -6.226  16.757  19.000  1.00  0.00     0.163 HD
HETATM    4  C6  UNL     1      -6.076  17.076  21.042  1.00  0.00     0.241 C 
HETATM    5  O1  UNL     1      -6.435  18.304  21.134  1.00  0.00    -0.271 OA
HETATM    6  C7  UNL     1      -6.204  16.257  22.258  1.00  0.00     0.177 C 
HETATM    7  N2  UNL     1      -6.207  17.103  23.454  1.00  0.00    -0.346 N 
ATOM      8  H2  UNL     1      -7.127  17.349  23.822  1.00  0.00     0.163 HD
HETATM    9  C12 UNL     1      -5.118  17.614  24.155  1.00  0.00     0.241 C 
HETATM   10  O2  UNL     1      -5.079  18.893  24.273  1.00  0.00    -0.271 OA
HETATM   11  C13 UNL     1      -3.994  16.884  24.784  1.00  0.00     0.173 C 
HETATM   12  N3  UNL     1      -3.330  15.948  23.992  1.00  0.00    -0.398 N 
ATOM     13  H3  UNL     1      -3.702  15.004  23.886  1.00  0.00     0.154 HD
HETATM   14  C17 UNL     1      -2.121  16.331  23.331  1.00  0.00     0.145 C 
HETATM   15  C18 UNL     1      -1.409  17.467  23.958  1.00  0.00     0.040 C 
HETATM   16  C19 UNL     1      -1.299  15.120  23.071  1.00  0.00     0.171 C 
HETATM   17  O3  UNL     1      -1.526  14.121  23.777  1.00  0.00    -0.293 OA
HETATM   18  C20 UNL     1      -0.247  14.959  22.072  1.00  0.00     0.160 C 
HETATM   19  N4  UNL     1       0.286  16.168  21.505  1.00  0.00    -0.347 N 
ATOM     20  H4  UNL     1       1.171  16.503  21.886  1.00  0.00     0.163 HD
HETATM   21  C25 UNL     1      -0.292  16.934  20.474  1.00  0.00     0.241 C 
HETATM   22  O4  UNL     1      -0.145  18.199  20.567  1.00  0.00    -0.271 OA
HETATM   23  C26 UNL     1      -1.040  16.436  19.311  1.00  0.00     0.180 C 
HETATM   24  N5  UNL     1      -2.132  17.369  19.087  1.00  0.00    -0.346 N 
ATOM     25  H5  UNL     1      -1.899  18.360  19.150  1.00  0.00     0.163 HD
HETATM   26  C30 UNL     1      -3.458  17.065  18.796  1.00  0.00     0.241 C 
HETATM   27  O5  UNL     1      -4.040  17.669  17.856  1.00  0.00    -0.271 OA
ENDROOT
BRANCH   1  28
HETATM   28  C4  UNL     1      -4.407  14.880  18.559  1.00  0.00     0.035 C 
BRANCH  28  29
HETATM   29  C3  UNL     1      -3.151  14.041  18.545  1.00  0.00     0.002 C 
BRANCH  29  30
HETATM   30  C2  UNL     1      -2.729  13.697  17.137  1.00  0.00    -0.004 C 
HETATM   31  C1  UNL     1      -1.445  12.917  17.082  1.00  0.00     0.005 C 
ENDBRANCH  29  30
ENDBRANCH  28  29
ENDBRANCH   1  28
BRANCH   6  32
HETATM   32  C8  UNL     1      -7.350  15.317  22.265  1.00  0.00     0.038 C 
BRANCH  32  33
HETATM   33  C9  UNL     1      -7.492  14.391  21.130  1.00  0.00    -0.020 C 
HETATM   34  C10 UNL     1      -8.776  14.782  20.312  1.00  0.00     0.009 C 
HETATM   35  C11 UNL     1      -7.564  12.928  21.365  1.00  0.00     0.009 C 
ENDBRANCH  32  33
ENDBRANCH   6  32
BRANCH  23  36
HETATM   36  C27 UNL     1      -0.126  16.620  18.090  1.00  0.00     0.009 C 
HETATM   37  C28 UNL     1      -0.989  16.657  16.865  1.00  0.00     0.012 C 
HETATM   38  C29 UNL     1       0.887  15.525  18.038  1.00  0.00     0.012 C 
ENDBRANCH  23  36
BRANCH  11  39
HETATM   39  C14 UNL     1      -4.467  16.194  26.076  1.00  0.00     0.009 C 
HETATM   40  C15 UNL     1      -5.321  17.152  26.869  1.00  0.00     0.012 C 
HETATM   41  C16 UNL     1      -3.342  15.761  26.953  1.00  0.00     0.012 C 
ENDBRANCH  11  39
BRANCH  18  42
HETATM   42  C21 UNL     1       0.777  13.970  22.533  1.00  0.00     0.011 C 
HETATM   43  C22 UNL     1       1.271  13.105  21.372  1.00  0.00     0.012 C 
BRANCH  42  44
HETATM   44  C23 UNL     1       1.922  14.490  23.319  1.00  0.00     0.002 C 
HETATM   45  C24 UNL     1       2.602  13.545  24.241  1.00  0.00     0.005 C 
ENDBRANCH  42  44
ENDBRANCH  18  42
TORSDOF 9
ENDMDL
MODEL 5
REMARK VINA RESULT: -6.114868417      8.757     12.266
REMARK  9 active torsions:
REMARK  status: ('A' for Active; 'I' for Inactive)
REMARK    1  A    between atoms: C2_2  and  C3_3 
REMARK    2  A    between atoms: C3_3  and  C4_4 
REMARK    3  A    between atoms: C4_4  and  C5_5 
REMARK    4  A    between atoms: C7_10  and  C8_11 
REMARK    5  A    between atoms: C8_11  and  C9_12 
REMARK    6  A    between atoms: C13_19  and  C14_20 
REMARK    7  A    between atoms: C20_29  and  C21_30 
REMARK    8  A    between atoms: C21_30  and  C23_32 
REMARK    9  A    between atoms: C26_38  and  C27_39 
ROOT
HETATM    1  C5  UNL     1     -12.269  10.935  30.356  1.00  0.00     0.176 C 
HETATM    2  N1  UNL     1     -12.778  10.890  31.711  1.00  0.00    -0.346 N 
ATOM      3  H1  UNL     1     -13.500  10.195  31.903  1.00  0.00     0.163 HD
HETATM    4  C6  UNL     1     -12.384  11.700  32.790  1.00  0.00     0.241 C 
HETATM    5  O1  UNL     1     -13.300  12.389  33.366  1.00  0.00    -0.271 OA
HETATM    6  C7  UNL     1     -11.019  11.839  33.321  1.00  0.00     0.177 C 
HETATM    7  N2  UNL     1     -10.869  13.107  34.039  1.00  0.00    -0.346 N 
ATOM      8  H2  UNL     1     -10.993  13.063  35.051  1.00  0.00     0.163 HD
HETATM    9  C12 UNL     1     -10.579  14.365  33.519  1.00  0.00     0.241 C 
HETATM   10  O2  UNL     1     -11.437  15.287  33.773  1.00  0.00    -0.271 OA
HETATM   11  C13 UNL     1      -9.413  14.788  32.710  1.00  0.00     0.173 C 
HETATM   12  N3  UNL     1      -9.105  14.011  31.595  1.00  0.00    -0.398 N 
ATOM     13  H3  UNL     1      -8.552  13.160  31.694  1.00  0.00     0.154 HD
HETATM   14  C17 UNL     1      -9.577  14.423  30.309  1.00  0.00     0.145 C 
HETATM   15  C18 UNL     1      -9.870  15.868  30.194  1.00  0.00     0.040 C 
HETATM   16  C19 UNL     1      -8.693  13.858  29.256  1.00  0.00     0.171 C 
HETATM   17  O3  UNL     1      -7.545  13.526  29.602  1.00  0.00    -0.293 OA
HETATM   18  C20 UNL     1      -9.015  13.640  27.849  1.00  0.00     0.160 C 
HETATM   19  N4  UNL     1     -10.167  14.333  27.342  1.00  0.00    -0.347 N 
ATOM     20  H4  UNL     1      -9.994  15.190  26.818  1.00  0.00     0.163 HD
HETATM   21  C25 UNL     1     -11.512  13.944  27.498  1.00  0.00     0.241 C 
HETATM   22  O4  UNL     1     -12.355  14.893  27.645  1.00  0.00    -0.271 OA
HETATM   23  C26 UNL     1     -12.045  12.575  27.508  1.00  0.00     0.180 C 
HETATM   24  N5  UNL     1     -13.091  12.542  28.516  1.00  0.00    -0.346 N 
ATOM     25  H5  UNL     1     -13.735  13.333  28.525  1.00  0.00     0.163 HD
HETATM   26  C30 UNL     1     -13.316  11.555  29.471  1.00  0.00     0.241 C 
HETATM   27  O5  UNL     1     -14.483  11.114  29.643  1.00  0.00    -0.271 OA
ENDROOT
BRANCH   1  28
HETATM   28  C4  UNL     1     -12.046   9.550  29.783  1.00  0.00     0.035 C 
BRANCH  28  29
HETATM   29  C3  UNL     1     -12.475   8.460  30.736  1.00  0.00     0.002 C 
BRANCH  29  30
HETATM   30  C2  UNL     1     -11.432   7.375  30.844  1.00  0.00    -0.004 C 
HETATM   31  C1  UNL     1     -11.512   6.368  29.730  1.00  0.00     0.005 C 
ENDBRANCH  29  30
ENDBRANCH  28  29
ENDBRANCH   1  28
BRANCH   6  32
HETATM   32  C8  UNL     1     -10.547  10.699  34.144  1.00  0.00     0.038 C 
BRANCH  32  33
HETATM   33  C9  UNL     1     -11.444  10.181  35.188  1.00  0.00    -0.020 C 
HETATM   34  C10 UNL     1     -10.688  10.202  36.566  1.00  0.00     0.009 C 
HETATM   35  C11 UNL     1     -12.047   8.832  35.052  1.00  0.00     0.009 C 
ENDBRANCH  32  33
ENDBRANCH   6  32
BRANCH  23  36
HETATM   36  C27 UNL     1     -12.791  12.384  26.179  1.00  0.00     0.009 C 
HETATM   37  C28 UNL     1     -13.385  11.008  26.173  1.00  0.00     0.012 C 
HETATM   38  C29 UNL     1     -11.861  12.606  25.033  1.00  0.00     0.012 C 
ENDBRANCH  23  36
BRANCH  11  39
HETATM   39  C14 UNL     1      -8.162  14.897  33.599  1.00  0.00     0.009 C 
HETATM   40  C15 UNL     1      -7.117  13.923  33.111  1.00  0.00     0.012 C 
HETATM   41  C16 UNL     1      -8.433  14.586  35.031  1.00  0.00     0.012 C 
ENDBRANCH  11  39
BRANCH  18  42
HETATM   42  C21 UNL     1      -7.786  13.746  27.001  1.00  0.00     0.011 C 
HETATM   43  C22 UNL     1      -8.094  13.422  25.539  1.00  0.00     0.012 C 
BRANCH  42  44
HETATM   44  C23 UNL     1      -6.995  14.997  27.101  1.00  0.00     0.002 C 
HETATM   45  C24 UNL     1      -7.237  16.042  26.074  1.00  0.00     0.005 C 
ENDBRANCH  42  44
ENDBRANCH  18  42
TORSDOF 9
ENDMDL
