MODEL 1
REMARK VINA RESULT: -11.103138184      0.000      0.000
REMARK  11 active torsions:
REMARK  status: ('A' for Active; 'I' for Inactive)
REMARK    1  A    between atoms: C7_7  and  C8_8 
REMARK    2  A    between atoms: C8_8  and  N1_9 
REMARK    3  A    between atoms: N1_9  and  C9_11 
REMARK    4  A    between atoms: N3_15  and  C11_17 
REMARK    5  A    between atoms: C11_17  and  C12_18 
REMARK    6  A    between atoms: C12_18  and  C13_19 
REMARK    7  A    between atoms: C17_23  and  C18_24 
REMARK    8  A    between atoms: C21_27  and  S1_28 
REMARK    9  A    between atoms: S1_28  and  N4_29 
REMARK   10  A    between atoms: N6_40  and  C26_42 
REMARK   11  A    between atoms: C26_42  and  C27_43 
ROOT
HETATM    1  C9  UNL     1     -11.865  14.794  27.570  1.00  0.00     0.707 A 
HETATM    2  N2  UNL     1     -10.907  14.877  28.350  1.00  0.00    -0.022 N 
ATOM      3  H2  UNL     1     -11.164  14.989  29.331  1.00  0.00     0.203 HD
HETATM    4  C10 UNL     1      -9.556  14.844  28.111  1.00  0.00     0.707 A 
HETATM    5  N3  UNL     1      -8.711  15.028  28.962  1.00  0.00    -0.225 N 
ATOM      6  H3  UNL     1      -9.073  15.210  29.898  1.00  0.00     0.177 HD
HETATM    7  N5  UNL     1      -9.360  14.692  26.724  1.00  0.00    -0.022 N 
ATOM      8  H5  UNL     1      -8.399  14.647  26.387  1.00  0.00     0.203 HD
HETATM    9  C25 UNL     1     -10.296  14.607  25.855  1.00  0.00     0.707 A 
HETATM   10  N6  UNL     1     -10.162  14.155  24.602  1.00  0.00    -0.221 N 
ATOM     11  H6  UNL     1     -10.948  14.128  23.954  1.00  0.00     0.178 HD
HETATM   12  N7  UNL     1     -11.630  14.660  26.197  1.00  0.00    -0.022 N 
ATOM     13  H7  UNL     1     -12.381  14.606  25.509  1.00  0.00     0.203 HD
ENDROOT
BRANCH   5  14
HETATM   14  C11 UNL     1      -7.254  15.026  28.851  1.00  0.00     0.142 C 
BRANCH  14  15
HETATM   15  C12 UNL     1      -6.814  16.417  28.564  1.00  0.00     0.058 C 
BRANCH  15  16
HETATM   16  C13 UNL     1      -5.502  16.432  27.813  1.00  0.00    -0.056 A 
HETATM   17  C14 UNL     1      -4.298  16.677  28.461  1.00  0.00     0.007 A 
HETATM   18  C15 UNL     1      -3.134  16.876  27.774  1.00  0.00     0.001 A 
HETATM   19  C16 UNL     1      -3.134  16.836  26.375  1.00  0.00     0.012 A 
HETATM   20  C17 UNL     1      -4.309  16.598  25.730  1.00  0.00    -0.025 A 
HETATM   21  C24 UNL     1      -5.497  16.390  26.452  1.00  0.00     0.019 A 
BRANCH  20  22
HETATM   22  C18 UNL     1      -4.478  16.847  24.284  1.00  0.00    -0.026 A 
HETATM   23  C19 UNL     1      -5.666  16.551  23.663  1.00  0.00     0.014 A 
HETATM   24  C20 UNL     1      -5.733  16.516  22.266  1.00  0.00     0.026 A 
HETATM   25  C21 UNL     1      -4.603  16.780  21.559  1.00  0.00     0.079 A 
HETATM   26  C22 UNL     1      -3.412  17.092  22.166  1.00  0.00     0.026 A 
HETATM   27  C23 UNL     1      -3.359  17.125  23.573  1.00  0.00     0.014 A 
BRANCH  25  28
HETATM   28  S1  UNL     1      -4.579  16.479  19.812  1.00  0.00     0.256 S 
HETATM   29  O1  UNL     1      -5.969  16.965  19.327  1.00  0.00    -0.201 OA
HETATM   30  O2  UNL     1      -3.597  17.356  19.142  1.00  0.00    -0.201 OA
BRANCH  28  31
HETATM   31  N4  UNL     1      -4.388  14.825  19.532  1.00  0.00    -0.324 N 
ATOM     32  H42 UNL     1      -4.756  14.091  20.136  1.00  0.00     0.169 HD
ATOM     33  H41 UNL     1      -3.852  14.688  18.675  1.00  0.00     0.169 HD
ENDBRANCH  28  31
ENDBRANCH  25  28
ENDBRANCH  20  22
ENDBRANCH  15  16
ENDBRANCH  14  15
ENDBRANCH   5  14
BRANCH   1  34
HETATM   34  N1  UNL     1     -13.144  14.510  27.853  1.00  0.00    -0.221 N 
ATOM     35  H1  UNL     1     -13.787  15.169  28.292  1.00  0.00     0.178 HD
BRANCH  34  36
HETATM   36  C8  UNL     1     -13.517  13.138  27.460  1.00  0.00     0.177 C 
BRANCH  36  37
HETATM   37  C7  UNL     1     -13.440  12.078  28.438  1.00  0.00    -0.034 A 
HETATM   38  C2  UNL     1     -12.454  11.077  28.213  1.00  0.00    -0.054 A 
HETATM   39  C1  UNL     1     -11.965  11.068  26.804  1.00  0.00     0.049 C 
HETATM   40  C3  UNL     1     -12.089  10.168  29.158  1.00  0.00     0.007 A 
HETATM   41  C4  UNL     1     -12.711  10.219  30.409  1.00  0.00     0.001 A 
HETATM   42  C5  UNL     1     -13.669  11.173  30.652  1.00  0.00     0.001 A 
HETATM   43  C6  UNL     1     -14.035  12.103  29.667  1.00  0.00     0.009 A 
ENDBRANCH  36  37
ENDBRANCH  34  36
ENDBRANCH   1  34
BRANCH  10  44
HETATM   44  C26 UNL     1      -8.802  13.694  24.209  1.00  0.00     0.176 C 
BRANCH  44  45
HETATM   45  C27 UNL     1      -8.662  13.972  22.782  1.00  0.00    -0.040 A 
HETATM   46  C28 UNL     1      -7.686  13.416  21.989  1.00  0.00     0.009 A 
HETATM   47  C29 UNL     1      -7.605  13.717  20.658  1.00  0.00     0.001 A 
HETATM   48  C30 UNL     1      -8.476  14.584  20.033  1.00  0.00     0.000 A 
HETATM   49  C31 UNL     1      -9.455  15.149  20.826  1.00  0.00     0.001 A 
HETATM   50  C32 UNL     1      -9.538  14.845  22.159  1.00  0.00     0.009 A 
ENDBRANCH  44  45
ENDBRANCH  10  44
TORSDOF 11
ENDMDL
MODEL 2
REMARK VINA RESULT: -10.872291911      5.226     10.826
REMARK  11 active torsions:
REMARK  status: ('A' for Active; 'I' for Inactive)
REMARK    1  A    between atoms: C7_7  and  C8_8 
REMARK    2  A    between atoms: C8_8  and  N1_9 
REMARK    3  A    between atoms: N1_9  and  C9_11 
REMARK    4  A    between atoms: N3_15  and  C11_17 
REMARK    5  A    between atoms: C11_17  and  C12_18 
REMARK    6  A    between atoms: C12_18  and  C13_19 
REMARK    7  A    between atoms: C17_23  and  C18_24 
REMARK    8  A    between atoms: C21_27  and  S1_28 
REMARK    9  A    between atoms: S1_28  and  N4_29 
REMARK   10  A    between atoms: N6_40  and  C26_42 
REMARK   11  A    between atoms: C26_42  and  C27_43 
ROOT
HETATM    1  C9  UNL     1      -6.909  17.649  26.246  1.00  0.00     0.707 A 
HETATM    2  N2  UNL     1      -7.476  16.843  25.497  1.00  0.00    -0.022 N 
ATOM      3  H2  UNL     1      -7.472  17.102  24.510  1.00  0.00     0.203 HD
HETATM    4  C10 UNL     1      -8.110  15.658  25.776  1.00  0.00     0.707 A 
HETATM    5  N3  UNL     1      -8.710  14.998  24.954  1.00  0.00    -0.225 N 
ATOM      6  H3  UNL     1      -8.715  15.385  24.010  1.00  0.00     0.177 HD
HETATM    7  N5  UNL     1      -8.039  15.440  27.166  1.00  0.00    -0.022 N 
ATOM      8  H5  UNL     1      -8.467  14.589  27.531  1.00  0.00     0.203 HD
HETATM    9  C25 UNL     1      -7.478  16.227  28.006  1.00  0.00     0.707 A 
HETATM   10  N6  UNL     1      -7.119  15.912  29.256  1.00  0.00    -0.221 N 
ATOM     11  H6  UNL     1      -6.690  16.594  29.880  1.00  0.00     0.178 HD
HETATM   12  N7  UNL     1      -6.873  17.405  27.624  1.00  0.00    -0.022 N 
ATOM     13  H7  UNL     1      -6.436  18.044  28.289  1.00  0.00     0.203 HD
ENDROOT
BRANCH   5  14
HETATM   14  C11 UNL     1      -9.428  13.735  25.109  1.00  0.00     0.142 C 
BRANCH  14  15
HETATM   15  C12 UNL     1     -10.853  14.048  25.392  1.00  0.00     0.058 C 
BRANCH  15  16
HETATM   16  C13 UNL     1     -11.520  12.922  26.149  1.00  0.00    -0.056 A 
HETATM   17  C14 UNL     1     -12.372  12.027  25.515  1.00  0.00     0.007 A 
HETATM   18  C15 UNL     1     -13.122  11.124  26.214  1.00  0.00     0.001 A 
HETATM   19  C16 UNL     1     -13.045  11.084  27.610  1.00  0.00     0.012 A 
HETATM   20  C17 UNL     1     -12.215  11.960  28.242  1.00  0.00    -0.025 A 
HETATM   21  C24 UNL     1     -11.445  12.879  27.508  1.00  0.00     0.019 A 
BRANCH  20  22
HETATM   22  C18 UNL     1     -12.297  12.214  29.694  1.00  0.00    -0.026 A 
HETATM   23  C19 UNL     1     -11.492  13.159  30.279  1.00  0.00     0.014 A 
HETATM   24  C20 UNL     1     -11.362  13.200  31.672  1.00  0.00     0.026 A 
HETATM   25  C21 UNL     1     -12.050  12.290  32.410  1.00  0.00     0.079 A 
HETATM   26  C22 UNL     1     -12.870  11.349  31.840  1.00  0.00     0.026 A 
HETATM   27  C23 UNL     1     -12.991  11.320  30.437  1.00  0.00     0.014 A 
BRANCH  25  28
HETATM   28  S1  UNL     1     -11.702  12.134  34.142  1.00  0.00     0.256 S 
HETATM   29  O1  UNL     1     -12.905  11.328  34.697  1.00  0.00    -0.201 OA
HETATM   30  O2  UNL     1     -10.518  11.280  34.365  1.00  0.00    -0.201 OA
BRANCH  28  31
HETATM   31  N4  UNL     1     -11.634  13.670  34.840  1.00  0.00    -0.324 N 
ATOM     32  H42 UNL     1     -11.690  14.544  34.318  1.00  0.00     0.169 HD
ATOM     33  H41 UNL     1     -11.529  13.578  35.850  1.00  0.00     0.169 HD
ENDBRANCH  28  31
ENDBRANCH  25  28
ENDBRANCH  20  22
ENDBRANCH  15  16
ENDBRANCH  14  15
ENDBRANCH   5  14
BRANCH   1  34
HETATM   34  N1  UNL     1      -6.036  18.612  25.922  1.00  0.00    -0.221 N 
ATOM     35  H1  UNL     1      -6.295  19.470  25.433  1.00  0.00     0.178 HD
BRANCH  34  36
HETATM   36  C8  UNL     1      -4.661  18.296  26.349  1.00  0.00     0.177 C 
BRANCH  36  37
HETATM   37  C7  UNL     1      -3.745  17.704  25.400  1.00  0.00    -0.034 A 
HETATM   38  C2  UNL     1      -3.322  16.373  25.673  1.00  0.00    -0.054 A 
HETATM   39  C1  UNL     1      -3.560  15.980  27.092  1.00  0.00     0.049 C 
HETATM   40  C3  UNL     1      -2.676  15.598  24.760  1.00  0.00     0.007 A 
HETATM   41  C4  UNL     1      -2.414  16.133  23.495  1.00  0.00     0.001 A 
HETATM   42  C5  UNL     1      -2.809  17.417  23.207  1.00  0.00     0.001 A 
HETATM   43  C6  UNL     1      -3.475  18.204  24.160  1.00  0.00     0.009 A 
ENDBRANCH  36  37
ENDBRANCH  34  36
ENDBRANCH   1  34
BRANCH  10  44
HETATM   44  C26 UNL     1      -7.382  14.510  29.684  1.00  0.00     0.176 C 
BRANCH  44  45
HETATM   45  C27 UNL     1      -7.714  14.561  31.105  1.00  0.00    -0.040 A 
HETATM   46  C28 UNL     1      -7.723  13.459  31.927  1.00  0.00     0.009 A 
HETATM   47  C29 UNL     1      -8.044  13.570  33.251  1.00  0.00     0.001 A 
HETATM   48  C30 UNL     1      -8.378  14.771  33.841  1.00  0.00     0.000 A 
HETATM   49  C31 UNL     1      -8.375  15.881  33.019  1.00  0.00     0.001 A 
HETATM   50  C32 UNL     1      -8.051  15.769  31.693  1.00  0.00     0.009 A 
ENDBRANCH  44  45
ENDBRANCH  10  44
TORSDOF 11
ENDMDL
MODEL 3
REMARK VINA RESULT: -10.601520817      4.842      9.410
REMARK  11 active torsions:
REMARK  status: ('A' for Active; 'I' for Inactive)
REMARK    1  A    between atoms: C7_7  and  C8_8 
REMARK    2  A    between atoms: C8_8  and  N1_9 
REMARK    3  A    between atoms: N1_9  and  C9_11 
REMARK    4  A    between atoms: N3_15  and  C11_17 
REMARK    5  A    between atoms: C11_17  and  C12_18 
REMARK    6  A    between atoms: C12_18  and  C13_19 
REMARK    7  A    between atoms: C17_23  and  C18_24 
REMARK    8  A    between atoms: C21_27  and  S1_28 
REMARK    9  A    between atoms: S1_28  and  N4_29 
REMARK   10  A    between atoms: N6_40  and  C26_42 
REMARK   11  A    between atoms: C26_42  and  C27_43 
ROOT
HETATM    1  C9  UNL     1      -7.733  16.350  24.023  1.00  0.00     0.707 A 
HETATM    2  N2  UNL     1      -7.007  16.284  25.024  1.00  0.00    -0.022 N 
ATOM      3  H2  UNL     1      -6.063  16.645  24.890  1.00  0.00     0.203 HD
HETATM    4  C10 UNL     1      -7.264  15.803  26.283  1.00  0.00     0.707 A 
HETATM    5  N3  UNL     1      -6.430  15.712  27.159  1.00  0.00    -0.225 N 
ATOM      6  H3  UNL     1      -5.495  16.027  26.899  1.00  0.00     0.177 HD
HETATM    7  N5  UNL     1      -8.593  15.337  26.312  1.00  0.00    -0.022 N 
ATOM      8  H5  UNL     1      -8.937  14.950  27.190  1.00  0.00     0.203 HD
HETATM    9  C25 UNL     1      -9.403  15.364  25.320  1.00  0.00     0.707 A 
HETATM   10  N6  UNL     1     -10.732  15.230  25.391  1.00  0.00    -0.221 N 
ATOM     11  H6  UNL     1     -11.319  15.245  24.557  1.00  0.00     0.178 HD
HETATM   12  N7  UNL     1      -9.044  15.862  24.086  1.00  0.00    -0.022 N 
ATOM     13  H7  UNL     1      -9.679  15.874  23.287  1.00  0.00     0.203 HD
ENDROOT
BRANCH   5  14
HETATM   14  C11 UNL     1      -6.559  15.221  28.529  1.00  0.00     0.142 C 
BRANCH  14  15
HETATM   15  C12 UNL     1      -6.564  16.396  29.440  1.00  0.00     0.058 C 
BRANCH  15  16
HETATM   16  C13 UNL     1      -7.483  16.171  30.619  1.00  0.00    -0.056 A 
HETATM   17  C14 UNL     1      -7.045  16.346  31.924  1.00  0.00     0.007 A 
HETATM   18  C15 UNL     1      -7.801  15.971  32.998  1.00  0.00     0.001 A 
HETATM   19  C16 UNL     1      -9.058  15.389  32.798  1.00  0.00     0.012 A 
HETATM   20  C17 UNL     1      -9.496  15.210  31.521  1.00  0.00    -0.025 A 
HETATM   21  C24 UNL     1      -8.708  15.607  30.427  1.00  0.00     0.019 A 
BRANCH  20  22
HETATM   22  C18 UNL     1     -10.640  14.334  31.197  1.00  0.00    -0.026 A 
HETATM   23  C19 UNL     1     -11.756  14.328  31.995  1.00  0.00     0.014 A 
HETATM   24  C20 UNL     1     -12.706  13.308  31.859  1.00  0.00     0.026 A 
HETATM   25  C21 UNL     1     -12.488  12.344  30.927  1.00  0.00     0.079 A 
HETATM   26  C22 UNL     1     -11.383  12.346  30.113  1.00  0.00     0.026 A 
HETATM   27  C23 UNL     1     -10.437  13.378  30.260  1.00  0.00     0.014 A 
BRANCH  25  28
HETATM   28  S1  UNL     1     -13.517  10.900  30.912  1.00  0.00     0.256 S 
HETATM   29  O1  UNL     1     -13.728  10.573  32.413  1.00  0.00    -0.201 OA
HETATM   30  O2  UNL     1     -14.859  11.217  30.383  1.00  0.00    -0.201 OA
BRANCH  28  31
HETATM   31  N4  UNL     1     -12.705   9.643  30.130  1.00  0.00    -0.324 N 
ATOM     32  H42 UNL     1     -12.025   9.772  29.382  1.00  0.00     0.169 HD
ATOM     33  H41 UNL     1     -13.004   8.751  30.525  1.00  0.00     0.169 HD
ENDBRANCH  28  31
ENDBRANCH  25  28
ENDBRANCH  20  22
ENDBRANCH  15  16
ENDBRANCH  14  15
ENDBRANCH   5  14
BRANCH   1  34
HETATM   34  N1  UNL     1      -7.569  17.101  22.926  1.00  0.00    -0.221 N 
ATOM     35  H1  UNL     1      -7.441  18.113  22.945  1.00  0.00     0.178 HD
BRANCH  34  36
HETATM   36  C8  UNL     1      -7.595  16.302  21.686  1.00  0.00     0.177 C 
BRANCH  36  37
HETATM   37  C7  UNL     1      -6.361  16.065  20.973  1.00  0.00    -0.034 A 
HETATM   38  C2  UNL     1      -6.383  15.033  19.993  1.00  0.00    -0.054 A 
HETATM   39  C1  UNL     1      -7.538  14.105  20.171  1.00  0.00     0.049 C 
HETATM   40  C3  UNL     1      -5.396  14.861  19.073  1.00  0.00     0.007 A 
HETATM   41  C4  UNL     1      -4.307  15.739  19.090  1.00  0.00     0.001 A 
HETATM   42  C5  UNL     1      -4.260  16.742  20.027  1.00  0.00     0.001 A 
HETATM   43  C6  UNL     1      -5.286  16.906  20.969  1.00  0.00     0.009 A 
ENDBRANCH  36  37
ENDBRANCH  34  36
ENDBRANCH   1  34
BRANCH  10  44
HETATM   44  C26 UNL     1     -11.307  15.059  26.754  1.00  0.00     0.176 C 
BRANCH  44  45
HETATM   45  C27 UNL     1     -11.963  13.754  26.771  1.00  0.00    -0.040 A 
HETATM   46  C28 UNL     1     -11.421  12.621  26.212  1.00  0.00     0.009 A 
HETATM   47  C29 UNL     1     -12.084  11.426  26.259  1.00  0.00     0.001 A 
HETATM   48  C30 UNL     1     -13.319  11.280  26.854  1.00  0.00     0.000 A 
HETATM   49  C31 UNL     1     -13.870  12.416  27.413  1.00  0.00     0.001 A 
HETATM   50  C32 UNL     1     -13.204  13.612  27.368  1.00  0.00     0.009 A 
ENDBRANCH  44  45
ENDBRANCH  10  44
TORSDOF 11
ENDMDL
MODEL 4
REMARK VINA RESULT: -10.600833506      4.907     10.550
REMARK  11 active torsions:
REMARK  status: ('A' for Active; 'I' for Inactive)
REMARK    1  A    between atoms: C7_7  and  C8_8 
REMARK    2  A    between atoms: C8_8  and  N1_9 
REMARK    3  A    between atoms: N1_9  and  C9_11 
REMARK    4  A    between atoms: N3_15  and  C11_17 
REMARK    5  A    between atoms: C11_17  and  C12_18 
REMARK    6  A    between atoms: C12_18  and  C13_19 
REMARK    7  A    between atoms: C17_23  and  C18_24 
REMARK    8  A    between atoms: C21_27  and  S1_28 
REMARK    9  A    between atoms: S1_28  and  N4_29 
REMARK   10  A    between atoms: N6_40  and  C26_42 
REMARK   11  A    between atoms: C26_42  and  C27_43 
ROOT
HETATM    1  C9  UNL     1      -6.968  17.048  24.270  1.00  0.00     0.707 A 
HETATM    2  N2  UNL     1      -8.053  16.564  23.920  1.00  0.00    -0.022 N 
ATOM      3  H2  UNL     1      -8.335  16.794  22.967  1.00  0.00     0.203 HD
HETATM    4  C10 UNL     1      -8.938  15.769  24.604  1.00  0.00     0.707 A 
HETATM    5  N3  UNL     1     -10.021  15.430  24.174  1.00  0.00    -0.225 N 
ATOM      6  H3  UNL     1     -10.242  15.779  23.241  1.00  0.00     0.177 HD
HETATM    7  N5  UNL     1      -8.418  15.544  25.894  1.00  0.00    -0.022 N 
ATOM      8  H5  UNL     1      -8.966  14.962  26.527  1.00  0.00     0.203 HD
HETATM    9  C25 UNL     1      -7.312  16.014  26.333  1.00  0.00     0.707 A 
HETATM   10  N6  UNL     1      -6.647  15.578  27.409  1.00  0.00    -0.221 N 
ATOM     11  H6  UNL     1      -5.775  16.009  27.714  1.00  0.00     0.178 HD
HETATM   12  N7  UNL     1      -6.493  16.815  25.566  1.00  0.00    -0.022 N 
ATOM     13  H7  UNL     1      -5.616  17.205  25.913  1.00  0.00     0.203 HD
ENDROOT
BRANCH   5  14
HETATM   14  C11 UNL     1     -11.055  14.600  24.787  1.00  0.00     0.142 C 
BRANCH  14  15
HETATM   15  C12 UNL     1     -10.423  13.325  25.218  1.00  0.00     0.058 C 
BRANCH  15  16
HETATM   16  C13 UNL     1     -11.313  12.574  26.184  1.00  0.00    -0.056 A 
HETATM   17  C14 UNL     1     -12.389  11.817  25.740  1.00  0.00     0.007 A 
HETATM   18  C15 UNL     1     -13.306  11.288  26.603  1.00  0.00     0.001 A 
HETATM   19  C16 UNL     1     -13.175  11.503  27.980  1.00  0.00     0.012 A 
HETATM   20  C17 UNL     1     -12.123  12.246  28.425  1.00  0.00    -0.025 A 
HETATM   21  C24 UNL     1     -11.186  12.779  27.524  1.00  0.00     0.019 A 
BRANCH  20  22
HETATM   22  C18 UNL     1     -12.070  12.791  29.797  1.00  0.00    -0.026 A 
HETATM   23  C19 UNL     1     -11.366  13.938  30.060  1.00  0.00     0.014 A 
HETATM   24  C20 UNL     1     -11.078  14.292  31.383  1.00  0.00     0.026 A 
HETATM   25  C21 UNL     1     -11.513  13.476  32.378  1.00  0.00     0.079 A 
HETATM   26  C22 UNL     1     -12.231  12.333  32.130  1.00  0.00     0.026 A 
HETATM   27  C23 UNL     1     -12.514  11.990  30.794  1.00  0.00     0.014 A 
BRANCH  25  28
HETATM   28  S1  UNL     1     -10.939  13.742  34.035  1.00  0.00     0.256 S 
HETATM   29  O1  UNL     1      -9.594  12.972  34.095  1.00  0.00    -0.201 OA
HETATM   30  O2  UNL     1     -10.591  15.161  34.249  1.00  0.00    -0.201 OA
BRANCH  28  31
HETATM   31  N4  UNL     1     -12.053  13.093  35.124  1.00  0.00    -0.324 N 
ATOM     32  H42 UNL     1     -13.052  13.298  35.120  1.00  0.00     0.169 HD
ATOM     33  H41 UNL     1     -11.569  12.474  35.775  1.00  0.00     0.169 HD
ENDBRANCH  28  31
ENDBRANCH  25  28
ENDBRANCH  20  22
ENDBRANCH  15  16
ENDBRANCH  14  15
ENDBRANCH   5  14
BRANCH   1  34
HETATM   34  N1  UNL     1      -5.991  17.541  23.498  1.00  0.00    -0.221 N 
ATOM     35  H1  UNL     1      -5.127  17.941  23.864  1.00  0.00     0.178 HD
BRANCH  34  36
HETATM   36  C8  UNL     1      -6.303  17.441  22.060  1.00  0.00     0.177 C 
BRANCH  36  37
HETATM   37  C7  UNL     1      -5.468  16.624  21.211  1.00  0.00    -0.034 A 
HETATM   38  C2  UNL     1      -6.140  15.795  20.269  1.00  0.00    -0.054 A 
HETATM   39  C1  UNL     1      -7.579  15.600  20.607  1.00  0.00     0.049 C 
HETATM   40  C3  UNL     1      -5.502  15.170  19.242  1.00  0.00     0.007 A 
HETATM   41  C4  UNL     1      -4.121  15.350  19.105  1.00  0.00     0.001 A 
HETATM   42  C5  UNL     1      -3.448  16.142  20.003  1.00  0.00     0.001 A 
HETATM   43  C6  UNL     1      -4.121  16.780  21.057  1.00  0.00     0.009 A 
ENDBRANCH  36  37
ENDBRANCH  34  36
ENDBRANCH   1  34
BRANCH  10  44
HETATM   44  C26 UNL     1      -7.251  14.427  28.136  1.00  0.00     0.176 C 
BRANCH  44  45
HETATM   45  C27 UNL     1      -7.331  14.815  29.542  1.00  0.00    -0.040 A 
HETATM   46  C28 UNL     1      -7.154  16.103  29.989  1.00  0.00     0.009 A 
HETATM   47  C29 UNL     1      -7.240  16.404  31.319  1.00  0.00     0.001 A 
HETATM   48  C30 UNL     1      -7.502  15.457  32.285  1.00  0.00     0.000 A 
HETATM   49  C31 UNL     1      -7.676  14.160  31.842  1.00  0.00     0.001 A 
HETATM   50  C32 UNL     1      -7.592  13.859  30.509  1.00  0.00     0.009 A 
ENDBRANCH  44  45
ENDBRANCH  10  44
TORSDOF 11
ENDMDL
MODEL 5
REMARK VINA RESULT: -10.560038380      4.365      9.593
REMARK  11 active torsions:
REMARK  status: ('A' for Active; 'I' for Inactive)
REMARK    1  A    between atoms: C7_7  and  C8_8 
REMARK    2  A    between atoms: C8_8  and  N1_9 
REMARK    3  A    between atoms: N1_9  and  C9_11 
REMARK    4  A    between atoms: N3_15  and  C11_17 
REMARK    5  A    between atoms: C11_17  and  C12_18 
REMARK    6  A    between atoms: C12_18  and  C13_19 
REMARK    7  A    between atoms: C17_23  and  C18_24 
REMARK    8  A    between atoms: C21_27  and  S1_28 
REMARK    9  A    between atoms: S1_28  and  N4_29 
REMARK   10  A    between atoms: N6_40  and  C26_42 
REMARK   11  A    between atoms: C26_42  and  C27_43 
ROOT
HETATM    1  C9  UNL     1     -10.150  15.158  33.602  1.00  0.00     0.707 A 
HETATM    2  N2  UNL     1     -10.866  14.956  32.612  1.00  0.00    -0.022 N 
ATOM      3  H2  UNL     1     -10.867  15.710  31.925  1.00  0.00     0.203 HD
HETATM    4  C10 UNL     1     -11.661  13.884  32.289  1.00  0.00     0.707 A 
HETATM    5  N3  UNL     1     -12.390  13.847  31.320  1.00  0.00    -0.225 N 
ATOM      6  H3  UNL     1     -12.377  14.684  30.738  1.00  0.00     0.177 HD
HETATM    7  N5  UNL     1     -11.561  12.936  33.326  1.00  0.00    -0.022 N 
ATOM      8  H5  UNL     1     -12.097  12.074  33.228  1.00  0.00     0.203 HD
HETATM    9  C25 UNL     1     -10.851  13.074  34.382  1.00  0.00     0.707 A 
HETATM   10  N6  UNL     1     -10.488  12.092  35.216  1.00  0.00    -0.221 N 
ATOM     11  H6  UNL     1      -9.933  12.273  36.051  1.00  0.00     0.178 HD
HETATM   12  N7  UNL     1     -10.090  14.198  34.620  1.00  0.00    -0.022 N 
ATOM     13  H7  UNL     1      -9.532  14.322  35.465  1.00  0.00     0.203 HD
ENDROOT
BRANCH   5  14
HETATM   14  C11 UNL     1     -13.284  12.786  30.860  1.00  0.00     0.142 C 
BRANCH  14  15
HETATM   15  C12 UNL     1     -14.045  13.303  29.692  1.00  0.00     0.058 C 
BRANCH  15  16
HETATM   16  C13 UNL     1     -13.415  12.860  28.391  1.00  0.00    -0.056 A 
HETATM   17  C14 UNL     1     -13.443  11.533  27.986  1.00  0.00     0.007 A 
HETATM   18  C15 UNL     1     -12.724  11.088  26.913  1.00  0.00     0.001 A 
HETATM   19  C16 UNL     1     -11.928  11.982  26.187  1.00  0.00     0.012 A 
HETATM   20  C17 UNL     1     -11.892  13.286  26.577  1.00  0.00    -0.025 A 
HETATM   21  C24 UNL     1     -12.642  13.729  27.681  1.00  0.00     0.019 A 
BRANCH  20  22
HETATM   22  C18 UNL     1     -10.861  14.225  26.091  1.00  0.00    -0.026 A 
HETATM   23  C19 UNL     1      -9.971  13.835  25.122  1.00  0.00     0.014 A 
HETATM   24  C20 UNL     1      -8.831  14.609  24.870  1.00  0.00     0.026 A 
HETATM   25  C21 UNL     1      -8.643  15.737  25.602  1.00  0.00     0.079 A 
HETATM   26  C22 UNL     1      -9.533  16.146  26.564  1.00  0.00     0.026 A 
HETATM   27  C23 UNL     1     -10.674  15.359  26.807  1.00  0.00     0.014 A 
BRANCH  25  28
HETATM   28  S1  UNL     1      -7.091  16.588  25.505  1.00  0.00     0.256 S 
HETATM   29  O1  UNL     1      -6.082  15.608  26.159  1.00  0.00    -0.201 OA
HETATM   30  O2  UNL     1      -6.655  16.725  24.100  1.00  0.00    -0.201 OA
BRANCH  28  31
HETATM   31  N4  UNL     1      -7.186  18.028  26.381  1.00  0.00    -0.324 N 
ATOM     32  H42 UNL     1      -7.964  18.285  26.988  1.00  0.00     0.169 HD
ATOM     33  H41 UNL     1      -6.351  18.587  26.205  1.00  0.00     0.169 HD
ENDBRANCH  28  31
ENDBRANCH  25  28
ENDBRANCH  20  22
ENDBRANCH  15  16
ENDBRANCH  14  15
ENDBRANCH   5  14
BRANCH   1  34
HETATM   34  N1  UNL     1      -9.156  16.045  33.741  1.00  0.00    -0.221 N 
ATOM     35  H1  UNL     1      -9.289  16.995  34.090  1.00  0.00     0.178 HD
BRANCH  34  36
HETATM   36  C8  UNL     1      -7.850  15.499  33.331  1.00  0.00     0.177 C 
BRANCH  36  37
HETATM   37  C7  UNL     1      -7.540  15.386  31.924  1.00  0.00    -0.034 A 
HETATM   38  C2  UNL     1      -7.572  14.076  31.371  1.00  0.00    -0.054 A 
HETATM   39  C1  UNL     1      -7.504  13.015  32.416  1.00  0.00     0.049 C 
HETATM   40  C3  UNL     1      -7.557  13.835  30.031  1.00  0.00     0.007 A 
HETATM   41  C4  UNL     1      -7.507  14.926  29.157  1.00  0.00     0.001 A 
HETATM   42  C5  UNL     1      -7.472  16.201  29.666  1.00  0.00     0.001 A 
HETATM   43  C6  UNL     1      -7.488  16.433  31.050  1.00  0.00     0.009 A 
ENDBRANCH  36  37
ENDBRANCH  34  36
ENDBRANCH   1  34
BRANCH  10  44
HETATM   44  C26 UNL     1     -10.942  10.720  34.856  1.00  0.00     0.176 C 
BRANCH  44  45
HETATM   45  C27 UNL     1     -10.922   9.935  36.088  1.00  0.00    -0.040 A 
HETATM   46  C28 UNL     1     -10.925   8.561  36.117  1.00  0.00     0.009 A 
HETATM   47  C29 UNL     1     -10.907   7.882  37.303  1.00  0.00     0.001 A 
HETATM   48  C30 UNL     1     -10.888   8.516  38.527  1.00  0.00     0.000 A 
HETATM   49  C31 UNL     1     -10.890   9.897  38.504  1.00  0.00     0.001 A 
HETATM   50  C32 UNL     1     -10.905  10.577  37.315  1.00  0.00     0.009 A 
ENDBRANCH  44  45
ENDBRANCH  10  44
TORSDOF 11
ENDMDL
