MODEL 1
REMARK VINA RESULT: -6.149052579      0.000      0.000
REMARK  10 active torsions:
REMARK  status: ('A' for Active; 'I' for Inactive)
REMARK    1  A    between atoms: C3_3  and  C4_4 
REMARK    2  A    between atoms: C15_18  and  C16_19 
REMARK    3  A    between atoms: C16_19  and  C17_20 
REMARK    4  A    between atoms: C17_20  and  C18_21 
REMARK    5  A    between atoms: C18_21  and  C19_22 
REMARK    6  A    between atoms: C19_22  and  N2_23 
REMARK    7  A    between atoms: C21_31  and  C22_32 
REMARK    8  A    between atoms: C22_32  and  C23_33 
REMARK    9  A    between atoms: C27_40  and  C28_41 
REMARK   10  A    between atoms: C28_41  and  C29_42 
ROOT
HETATM    1  C4  UNL     1     -11.996   8.748  37.291  1.00  0.00     0.107 C 
HETATM    2  C5  UNL     1     -10.899   8.020  36.515  1.00  0.00     0.030 C 
HETATM    3  C6  UNL     1     -11.415   6.780  35.861  1.00  0.00     0.010 C 
HETATM    4  C7  UNL     1     -10.559   6.444  34.682  1.00  0.00     0.004 C 
HETATM    5  C8  UNL     1      -9.444   5.508  35.160  1.00  0.00     0.014 C 
HETATM    6  C9  UNL     1     -11.328   5.799  33.571  1.00  0.00    -0.020 C 
HETATM    7  C10 UNL     1     -12.067   6.485  32.715  1.00  0.00    -0.087 C 
HETATM    8  C11 UNL     1     -12.792   5.758  31.649  1.00  0.00     0.043 C 
HETATM    9  C12 UNL     1     -12.188   7.956  32.796  1.00  0.00     0.042 C 
HETATM   10  C13 UNL     1     -12.670   8.623  31.551  1.00  0.00     0.107 C 
HETATM   11  C14 UNL     1     -13.847   9.444  31.913  1.00  0.00     0.218 C 
HETATM   12  O1  UNL     1     -14.968   8.825  31.949  1.00  0.00    -0.274 OA
HETATM   13  N1  UNL     1     -13.871  10.807  32.218  1.00  0.00    -0.348 N 
ATOM     14  H1  UNL     1     -14.439  11.106  33.010  1.00  0.00     0.163 HD
HETATM   15  C15 UNL     1     -13.139  11.837  31.480  1.00  0.00     0.176 C 
HETATM   16  C20 UNL     1     -13.272  13.183  32.054  1.00  0.00     0.241 C 
HETATM   17  O2  UNL     1     -13.858  14.086  31.407  1.00  0.00    -0.271 OA
HETATM   18  N3  UNL     1     -12.766  13.548  33.335  1.00  0.00    -0.346 N 
ATOM     19  H3  UNL     1     -13.385  14.089  33.939  1.00  0.00     0.163 HD
HETATM   20  C21 UNL     1     -11.465  13.225  33.855  1.00  0.00     0.177 C 
HETATM   21  C26 UNL     1     -11.715  12.003  34.751  1.00  0.00     0.244 C 
HETATM   22  O3  UNL     1     -11.059  11.013  34.346  1.00  0.00    -0.271 OA
HETATM   23  N4  UNL     1     -12.564  12.194  35.782  1.00  0.00    -0.324 N 
ATOM     24  H4  UNL     1     -13.290  12.795  35.393  1.00  0.00     0.169 HD
HETATM   25  C27 UNL     1     -12.920  12.020  36.948  1.00  0.00     0.080 C 
HETATM   26  C32 UNL     1     -12.180  11.227  37.927  1.00  0.00     0.264 C 
HETATM   27  O4  UNL     1     -12.147  11.742  39.113  1.00  0.00    -0.266 OA
HETATM   28  N5  UNL     1     -11.518  10.020  37.756  1.00  0.00    -0.348 N 
ATOM     29  H5  UNL     1     -10.529  10.039  38.003  1.00  0.00     0.163 HD
ENDROOT
BRANCH  15  30
HETATM   30  C16 UNL     1     -13.440  11.759  30.024  1.00  0.00     0.035 C 
BRANCH  30  31
HETATM   31  C17 UNL     1     -12.220  11.575  29.201  1.00  0.00     0.004 C 
BRANCH  31  32
HETATM   32  C18 UNL     1     -11.781  12.896  28.542  1.00  0.00     0.027 C 
BRANCH  32  33
HETATM   33  C19 UNL     1     -13.069  13.525  27.995  1.00  0.00     0.229 C 
BRANCH  33  34
HETATM   34  N2  UNL     1     -13.160  14.915  28.393  1.00  0.00    -0.079 N 
ATOM     35  H23 UNL     1     -12.596  15.519  27.796  1.00  0.00     0.274 HD
ATOM     36  H22 UNL     1     -14.077  15.311  28.185  1.00  0.00     0.274 HD
ATOM     37  H21 UNL     1     -12.916  15.019  29.378  1.00  0.00     0.274 HD
ENDBRANCH  33  34
ENDBRANCH  32  33
ENDBRANCH  31  32
ENDBRANCH  30  31
ENDBRANCH  15  30
BRANCH  20  38
HETATM   38  C22 UNL     1     -10.839  14.308  34.658  1.00  0.00     0.038 C 
BRANCH  38  39
HETATM   39  C23 UNL     1      -9.460  14.704  34.287  1.00  0.00    -0.020 C 
HETATM   40  C24 UNL     1      -9.242  16.129  33.906  1.00  0.00     0.009 C 
HETATM   41  C25 UNL     1      -8.943  13.827  33.144  1.00  0.00     0.009 C 
ENDBRANCH  38  39
ENDBRANCH  20  38
BRANCH  25  42
HETATM   42  C28 UNL     1     -14.188  12.666  37.448  1.00  0.00     0.067 C 
BRANCH  42  43
HETATM   43  C29 UNL     1     -15.396  11.858  37.540  1.00  0.00    -0.017 C 
HETATM   44  C30 UNL     1     -15.412  10.471  37.012  1.00  0.00     0.010 C 
HETATM   45  C31 UNL     1     -15.712  11.722  39.053  1.00  0.00     0.010 C 
ENDBRANCH  42  43
ENDBRANCH  25  42
BRANCH   1  46
HETATM   46  C3  UNL     1     -12.344   7.831  38.421  1.00  0.00    -0.006 C 
HETATM   47  C2  UNL     1     -13.581   7.535  38.771  1.00  0.00    -0.033 C 
HETATM   48  C1  UNL     1     -13.814   6.614  39.908  1.00  0.00     0.036 C 
ENDBRANCH   1  46
TORSDOF 10
ENDMDL
MODEL 2
REMARK VINA RESULT: -5.784633403     14.072     19.746
REMARK  10 active torsions:
REMARK  status: ('A' for Active; 'I' for Inactive)
REMARK    1  A    between atoms: C3_3  and  C4_4 
REMARK    2  A    between atoms: C15_18  and  C16_19 
REMARK    3  A    between atoms: C16_19  and  C17_20 
REMARK    4  A    between atoms: C17_20  and  C18_21 
REMARK    5  A    between atoms: C18_21  and  C19_22 
REMARK    6  A    between atoms: C19_22  and  N2_23 
REMARK    7  A    between atoms: C21_31  and  C22_32 
REMARK    8  A    between atoms: C22_32  and  C23_33 
REMARK    9  A    between atoms: C27_40  and  C28_41 
REMARK   10  A    between atoms: C28_41  and  C29_42 
ROOT
HETATM    1  C4  UNL     1      -0.528  15.965  17.368  1.00  0.00     0.107 C 
HETATM    2  C5  UNL     1       0.130  14.875  18.212  1.00  0.00     0.030 C 
HETATM    3  C6  UNL     1       1.394  15.353  18.848  1.00  0.00     0.010 C 
HETATM    4  C7  UNL     1       1.671  14.548  20.077  1.00  0.00     0.004 C 
HETATM    5  C8  UNL     1       2.542  13.355  19.672  1.00  0.00     0.014 C 
HETATM    6  C9  UNL     1       2.353  15.340  21.149  1.00  0.00    -0.020 C 
HETATM    7  C10 UNL     1       1.706  16.166  21.954  1.00  0.00    -0.087 C 
HETATM    8  C11 UNL     1       2.468  16.907  22.984  1.00  0.00     0.043 C 
HETATM    9  C12 UNL     1       0.246  16.368  21.852  1.00  0.00     0.042 C 
HETATM   10  C13 UNL     1      -0.399  16.959  23.061  1.00  0.00     0.107 C 
HETATM   11  C14 UNL     1      -1.147  18.160  22.625  1.00  0.00     0.218 C 
HETATM   12  O1  UNL     1      -0.463  19.238  22.531  1.00  0.00    -0.274 OA
HETATM   13  N1  UNL     1      -2.504  18.246  22.306  1.00  0.00    -0.348 N 
ATOM     14  H1  UNL     1      -2.764  18.785  21.480  1.00  0.00     0.163 HD
HETATM   15  C15 UNL     1      -3.580  17.619  23.075  1.00  0.00     0.176 C 
HETATM   16  C20 UNL     1      -4.913  17.798  22.480  1.00  0.00     0.241 C 
HETATM   17  O2  UNL     1      -5.783  18.472  23.084  1.00  0.00    -0.271 OA
HETATM   18  N3  UNL     1      -5.299  17.242  21.227  1.00  0.00    -0.346 N 
ATOM     19  H3  UNL     1      -5.798  17.855  20.583  1.00  0.00     0.163 HD
HETATM   20  C21 UNL     1      -5.050  15.896  20.785  1.00  0.00     0.177 C 
HETATM   21  C26 UNL     1      -3.809  16.022  19.888  1.00  0.00     0.244 C 
HETATM   22  O3  UNL     1      -2.863  15.333  20.339  1.00  0.00    -0.271 OA
HETATM   23  N4  UNL     1      -3.943  16.821  18.808  1.00  0.00    -0.324 N 
ATOM     24  H4  UNL     1      -4.503  17.602  19.150  1.00  0.00     0.169 HD
HETATM   25  C27 UNL     1      -3.741  17.098  17.626  1.00  0.00     0.080 C 
HETATM   26  C32 UNL     1      -2.988  16.258  16.699  1.00  0.00     0.264 C 
HETATM   27  O4  UNL     1      -3.496  16.187  15.511  1.00  0.00    -0.266 OA
HETATM   28  N5  UNL     1      -1.823  15.538  16.918  1.00  0.00    -0.348 N 
ATOM     29  H5  UNL     1      -1.898  14.538  16.728  1.00  0.00     0.163 HD
ENDROOT
BRANCH  15  30
HETATM   30  C16 UNL     1      -3.494  17.998  24.511  1.00  0.00     0.035 C 
BRANCH  30  31
HETATM   31  C17 UNL     1      -3.457  16.818  25.409  1.00  0.00     0.004 C 
BRANCH  31  32
HETATM   32  C18 UNL     1      -4.868  16.433  25.892  1.00  0.00     0.027 C 
BRANCH  32  33
HETATM   33  C19 UNL     1      -5.465  17.722  26.471  1.00  0.00     0.229 C 
BRANCH  33  34
HETATM   34  N2  UNL     1      -6.779  17.966  25.911  1.00  0.00    -0.079 N 
ATOM     35  H23 UNL     1      -6.725  18.359  24.971  1.00  0.00     0.274 HD
ATOM     36  H22 UNL     1      -7.262  17.097  25.683  1.00  0.00     0.274 HD
ATOM     37  H21 UNL     1      -7.329  18.553  26.538  1.00  0.00     0.274 HD
ENDBRANCH  33  34
ENDBRANCH  32  33
ENDBRANCH  31  32
ENDBRANCH  30  31
ENDBRANCH  15  30
BRANCH  20  38
HETATM   38  C22 UNL     1      -6.163  15.289  20.009  1.00  0.00     0.038 C 
BRANCH  38  39
HETATM   39  C23 UNL     1      -7.448  15.096  20.721  1.00  0.00    -0.020 C 
HETATM   40  C24 UNL     1      -7.624  13.816  21.466  1.00  0.00     0.009 C 
HETATM   41  C25 UNL     1      -8.622  15.239  19.750  1.00  0.00     0.009 C 
ENDBRANCH  38  39
ENDBRANCH  20  38
BRANCH  25  42
HETATM   42  C28 UNL     1      -4.308  18.371  17.048  1.00  0.00     0.067 C 
BRANCH  42  43
HETATM   43  C29 UNL     1      -3.404  19.305  16.392  1.00  0.00    -0.017 C 
HETATM   44  C30 UNL     1      -3.890  20.637  15.953  1.00  0.00     0.010 C 
HETATM   45  C31 UNL     1      -2.273  19.601  17.412  1.00  0.00     0.010 C 
ENDBRANCH  42  43
ENDBRANCH  25  42
BRANCH   1  46
HETATM   46  C3  UNL     1       0.415  16.194  16.229  1.00  0.00    -0.006 C 
HETATM   47  C2  UNL     1       0.433  17.293  15.501  1.00  0.00    -0.033 C 
HETATM   48  C1  UNL     1       1.411  17.416  14.393  1.00  0.00     0.036 C 
ENDBRANCH   1  46
TORSDOF 10
ENDMDL
MODEL 3
REMARK VINA RESULT: -5.482160998     15.249     19.443
REMARK  10 active torsions:
REMARK  status: ('A' for Active; 'I' for Inactive)
REMARK    1  A    between atoms: C3_3  and  C4_4 
REMARK    2  A    between atoms: C15_18  and  C16_19 
REMARK    3  A    between atoms: C16_19  and  C17_20 
REMARK    4  A    between atoms: C17_20  and  C18_21 
REMARK    5  A    between atoms: C18_21  and  C19_22 
REMARK    6  A    between atoms: C19_22  and  N2_23 
REMARK    7  A    between atoms: C21_31  and  C22_32 
REMARK    8  A    between atoms: C22_32  and  C23_33 
REMARK    9  A    between atoms: C27_40  and  C28_41 
REMARK   10  A    between atoms: C28_41  and  C29_42 
ROOT
HETATM    1  C4  UNL     1       1.051  15.348  18.476  1.00  0.00     0.107 C 
HETATM    2  C5  UNL     1       0.831  16.597  17.623  1.00  0.00     0.030 C 
HETATM    3  C6  UNL     1      -0.098  16.331  16.484  1.00  0.00     0.010 C 
HETATM    4  C7  UNL     1      -0.751  17.609  16.064  1.00  0.00     0.004 C 
HETATM    5  C8  UNL     1       0.116  18.243  14.970  1.00  0.00     0.014 C 
HETATM    6  C9  UNL     1      -2.146  17.411  15.560  1.00  0.00    -0.020 C 
HETATM    7  C10 UNL     1      -3.186  17.259  16.364  1.00  0.00    -0.087 C 
HETATM    8  C11 UNL     1      -4.529  17.067  15.772  1.00  0.00     0.043 C 
HETATM    9  C12 UNL     1      -3.041  17.274  17.835  1.00  0.00     0.042 C 
HETATM   10  C13 UNL     1      -4.300  17.533  18.594  1.00  0.00     0.107 C 
HETATM   11  C14 UNL     1      -4.472  16.425  19.561  1.00  0.00     0.218 C 
HETATM   12  O1  UNL     1      -5.030  15.368  19.102  1.00  0.00    -0.274 OA
HETATM   13  N1  UNL     1      -4.095  16.404  20.906  1.00  0.00    -0.348 N 
ATOM     14  H1  UNL     1      -3.646  15.560  21.260  1.00  0.00     0.163 HD
HETATM   15  C15 UNL     1      -4.298  17.510  21.842  1.00  0.00     0.176 C 
HETATM   16  C20 UNL     1      -3.738  17.262  23.179  1.00  0.00     0.241 C 
HETATM   17  O2  UNL     1      -4.503  17.165  24.171  1.00  0.00    -0.271 OA
HETATM   18  N3  UNL     1      -2.345  17.120  23.438  1.00  0.00    -0.346 N 
ATOM     19  H3  UNL     1      -2.063  16.349  24.043  1.00  0.00     0.163 HD
HETATM   20  C21 UNL     1      -1.299  17.962  22.924  1.00  0.00     0.177 C 
HETATM   21  C26 UNL     1      -0.743  17.177  21.725  1.00  0.00     0.244 C 
HETATM   22  O3  UNL     1      -0.873  17.836  20.665  1.00  0.00    -0.271 OA
HETATM   23  N4  UNL     1      -0.230  15.961  22.005  1.00  0.00    -0.324 N 
ATOM     24  H4  UNL     1      -0.863  15.585  22.711  1.00  0.00     0.169 HD
HETATM   25  C27 UNL     1       0.603  15.069  21.852  1.00  0.00     0.080 C 
HETATM   26  C32 UNL     1       1.741  15.149  20.940  1.00  0.00     0.264 C 
HETATM   27  O4  UNL     1       2.840  14.659  21.414  1.00  0.00    -0.266 OA
HETATM   28  N5  UNL     1       1.800  15.675  19.657  1.00  0.00    -0.348 N 
ATOM     29  H5  UNL     1       2.489  16.416  19.532  1.00  0.00     0.163 HD
ENDROOT
BRANCH  15  30
HETATM   30  C16 UNL     1      -5.721  17.946  21.845  1.00  0.00     0.035 C 
BRANCH  30  31
HETATM   31  C17 UNL     1      -6.662  16.811  22.005  1.00  0.00     0.004 C 
BRANCH  31  32
HETATM   32  C18 UNL     1      -7.822  16.893  20.995  1.00  0.00     0.027 C 
BRANCH  32  33
HETATM   33  C19 UNL     1      -8.161  15.438  20.646  1.00  0.00     0.229 C 
BRANCH  33  34
HETATM   34  N2  UNL     1      -7.139  14.546  21.156  1.00  0.00    -0.079 N 
ATOM     35  H23 UNL     1      -6.987  14.676  22.156  1.00  0.00     0.274 HD
ATOM     36  H22 UNL     1      -7.456  13.577  21.176  1.00  0.00     0.274 HD
ATOM     37  H21 UNL     1      -6.276  14.653  20.623  1.00  0.00     0.274 HD
ENDBRANCH  33  34
ENDBRANCH  32  33
ENDBRANCH  31  32
ENDBRANCH  30  31
ENDBRANCH  15  30
BRANCH  20  38
HETATM   38  C22 UNL     1      -0.201  18.234  23.889  1.00  0.00     0.038 C 
BRANCH  38  39
HETATM   39  C23 UNL     1       1.103  18.649  23.319  1.00  0.00    -0.020 C 
HETATM   40  C24 UNL     1       2.313  17.914  23.788  1.00  0.00     0.009 C 
HETATM   41  C25 UNL     1       1.337  20.142  23.559  1.00  0.00     0.009 C 
ENDBRANCH  38  39
ENDBRANCH  20  38
BRANCH  25  42
HETATM   42  C28 UNL     1       0.493  13.795  22.655  1.00  0.00     0.067 C 
BRANCH  42  43
HETATM   43  C29 UNL     1       0.464  13.885  24.108  1.00  0.00    -0.017 C 
HETATM   44  C30 UNL     1      -0.009  12.737  24.920  1.00  0.00     0.010 C 
HETATM   45  C31 UNL     1       1.931  14.123  24.556  1.00  0.00     0.010 C 
ENDBRANCH  42  43
ENDBRANCH  25  42
BRANCH   1  46
HETATM   46  C3  UNL     1       1.790  14.398  17.588  1.00  0.00    -0.006 C 
HETATM   47  C2  UNL     1       1.763  13.088  17.730  1.00  0.00    -0.033 C 
HETATM   48  C1  UNL     1       2.535  12.237  16.792  1.00  0.00     0.036 C 
ENDBRANCH   1  46
TORSDOF 10
ENDMDL
MODEL 4
REMARK VINA RESULT: -5.422109074      1.721      7.258
REMARK  10 active torsions:
REMARK  status: ('A' for Active; 'I' for Inactive)
REMARK    1  A    between atoms: C3_3  and  C4_4 
REMARK    2  A    between atoms: C15_18  and  C16_19 
REMARK    3  A    between atoms: C16_19  and  C17_20 
REMARK    4  A    between atoms: C17_20  and  C18_21 
REMARK    5  A    between atoms: C18_21  and  C19_22 
REMARK    6  A    between atoms: C19_22  and  N2_23 
REMARK    7  A    between atoms: C21_31  and  C22_32 
REMARK    8  A    between atoms: C22_32  and  C23_33 
REMARK    9  A    between atoms: C27_40  and  C28_41 
REMARK   10  A    between atoms: C28_41  and  C29_42 
ROOT
HETATM    1  C4  UNL     1     -13.269  11.714  31.532  1.00  0.00     0.107 C 
HETATM    2  C5  UNL     1     -14.502  10.812  31.534  1.00  0.00     0.030 C 
HETATM    3  C6  UNL     1     -14.211   9.476  30.932  1.00  0.00     0.010 C 
HETATM    4  C7  UNL     1     -15.172   8.466  31.471  1.00  0.00     0.004 C 
HETATM    5  C8  UNL     1     -16.382   8.420  30.533  1.00  0.00     0.014 C 
HETATM    6  C9  UNL     1     -14.571   7.101  31.598  1.00  0.00    -0.020 C 
HETATM    7  C10 UNL     1     -13.789   6.750  32.606  1.00  0.00    -0.087 C 
HETATM    8  C11 UNL     1     -13.240   5.376  32.644  1.00  0.00     0.043 C 
HETATM    9  C12 UNL     1     -13.451   7.693  33.692  1.00  0.00     0.042 C 
HETATM   10  C13 UNL     1     -12.949   7.061  34.948  1.00  0.00     0.107 C 
HETATM   11  C14 UNL     1     -11.645   7.685  35.270  1.00  0.00     0.218 C 
HETATM   12  O1  UNL     1     -10.627   7.185  34.676  1.00  0.00    -0.274 OA
HETATM   13  N1  UNL     1     -11.405   8.750  36.141  1.00  0.00    -0.348 N 
ATOM     14  H1  UNL     1     -10.755   9.475  35.837  1.00  0.00     0.163 HD
HETATM   15  C15 UNL     1     -12.021   8.900  37.460  1.00  0.00     0.176 C 
HETATM   16  C20 UNL     1     -11.660  10.151  38.142  1.00  0.00     0.241 C 
HETATM   17  O2  UNL     1     -10.986  10.116  39.201  1.00  0.00    -0.271 OA
HETATM   18  N3  UNL     1     -12.033  11.443  37.671  1.00  0.00    -0.346 N 
ATOM     19  H3  UNL     1     -11.309  12.160  37.668  1.00  0.00     0.163 HD
HETATM   20  C21 UNL     1     -13.336  11.828  37.200  1.00  0.00     0.177 C 
HETATM   21  C26 UNL     1     -13.216  11.750  35.670  1.00  0.00     0.244 C 
HETATM   22  O3  UNL     1     -14.032  10.919  35.202  1.00  0.00    -0.271 OA
HETATM   23  N4  UNL     1     -12.291  12.557  35.111  1.00  0.00    -0.324 N 
ATOM     24  H4  UNL     1     -11.508  12.521  35.764  1.00  0.00     0.169 HD
HETATM   25  C27 UNL     1     -11.898  13.314  34.223  1.00  0.00     0.080 C 
HETATM   26  C32 UNL     1     -12.688  13.696  33.056  1.00  0.00     0.264 C 
HETATM   27  O4  UNL     1     -12.578  14.942  32.722  1.00  0.00    -0.266 OA
HETATM   28  N5  UNL     1     -13.528  12.917  32.272  1.00  0.00    -0.348 N 
ATOM     29  H5  UNL     1     -14.488  13.255  32.212  1.00  0.00     0.163 HD
ENDROOT
BRANCH  15  30
HETATM   30  C16 UNL     1     -11.818   7.674  38.280  1.00  0.00     0.035 C 
BRANCH  30  31
HETATM   31  C17 UNL     1     -13.094   6.998  38.616  1.00  0.00     0.004 C 
BRANCH  31  32
HETATM   32  C18 UNL     1     -14.228   8.015  38.842  1.00  0.00     0.027 C 
BRANCH  32  33
HETATM   33  C19 UNL     1     -15.310   7.652  37.817  1.00  0.00     0.229 C 
BRANCH  33  34
HETATM   34  N2  UNL     1     -15.540   8.760  36.912  1.00  0.00    -0.079 N 
ATOM     35  H23 UNL     1     -14.910   9.540  37.099  1.00  0.00     0.274 HD
ATOM     36  H22 UNL     1     -15.236   8.545  35.962  1.00  0.00     0.274 HD
ATOM     37  H21 UNL     1     -16.519   9.046  36.943  1.00  0.00     0.274 HD
ENDBRANCH  33  34
ENDBRANCH  32  33
ENDBRANCH  31  32
ENDBRANCH  30  31
ENDBRANCH  15  30
BRANCH  20  38
HETATM   38  C22 UNL     1     -13.750  13.200  37.595  1.00  0.00     0.038 C 
BRANCH  38  39
HETATM   39  C23 UNL     1     -14.958  13.314  38.445  1.00  0.00    -0.020 C 
HETATM   40  C24 UNL     1     -14.874  14.224  39.624  1.00  0.00     0.009 C 
HETATM   41  C25 UNL     1     -15.389  11.934  38.947  1.00  0.00     0.009 C 
ENDBRANCH  38  39
ENDBRANCH  20  38
BRANCH  25  42
HETATM   42  C28 UNL     1     -10.522  13.927  34.315  1.00  0.00     0.067 C 
BRANCH  42  43
HETATM   43  C29 UNL     1      -9.782  14.173  33.086  1.00  0.00    -0.017 C 
HETATM   44  C30 UNL     1      -9.400  15.555  32.703  1.00  0.00     0.010 C 
HETATM   45  C31 UNL     1      -8.441  13.404  33.228  1.00  0.00     0.010 C 
ENDBRANCH  42  43
ENDBRANCH  25  42
BRANCH   1  46
HETATM   46  C3  UNL     1     -12.993  11.991  30.088  1.00  0.00    -0.006 C 
HETATM   47  C2  UNL     1     -13.798  12.685  29.307  1.00  0.00    -0.033 C 
HETATM   48  C1  UNL     1     -13.428  12.899  27.888  1.00  0.00     0.036 C 
ENDBRANCH   1  46
TORSDOF 10
ENDMDL
MODEL 5
REMARK VINA RESULT: -5.385226646     13.277     17.797
REMARK  10 active torsions:
REMARK  status: ('A' for Active; 'I' for Inactive)
REMARK    1  A    between atoms: C3_3  and  C4_4 
REMARK    2  A    between atoms: C15_18  and  C16_19 
REMARK    3  A    between atoms: C16_19  and  C17_20 
REMARK    4  A    between atoms: C17_20  and  C18_21 
REMARK    5  A    between atoms: C18_21  and  C19_22 
REMARK    6  A    between atoms: C19_22  and  N2_23 
REMARK    7  A    between atoms: C21_31  and  C22_32 
REMARK    8  A    between atoms: C22_32  and  C23_33 
REMARK    9  A    between atoms: C27_40  and  C28_41 
REMARK   10  A    between atoms: C28_41  and  C29_42 
ROOT
HETATM    1  C4  UNL     1       0.496  16.106  20.787  1.00  0.00     0.107 C 
HETATM    2  C5  UNL     1       0.389  17.409  19.996  1.00  0.00     0.030 C 
HETATM    3  C6  UNL     1       0.024  17.161  18.569  1.00  0.00     0.010 C 
HETATM    4  C7  UNL     1      -0.643  18.376  18.006  1.00  0.00     0.004 C 
HETATM    5  C8  UNL     1       0.441  19.262  17.384  1.00  0.00     0.014 C 
HETATM    6  C9  UNL     1      -1.684  18.046  16.983  1.00  0.00    -0.020 C 
HETATM    7  C10 UNL     1      -2.904  17.644  17.302  1.00  0.00    -0.087 C 
HETATM    8  C11 UNL     1      -3.866  17.339  16.219  1.00  0.00     0.043 C 
HETATM    9  C12 UNL     1      -3.329  17.492  18.709  1.00  0.00     0.042 C 
HETATM   10  C13 UNL     1      -4.806  17.468  18.927  1.00  0.00     0.107 C 
HETATM   11  C14 UNL     1      -5.125  16.232  19.677  1.00  0.00     0.218 C 
HETATM   12  O1  UNL     1      -5.267  15.173  18.971  1.00  0.00    -0.274 OA
HETATM   13  N1  UNL     1      -5.286  16.094  21.058  1.00  0.00    -0.348 N 
ATOM     14  H1  UNL     1      -4.858  15.284  21.507  1.00  0.00     0.163 HD
HETATM   15  C15 UNL     1      -6.025  17.029  21.906  1.00  0.00     0.176 C 
HETATM   16  C20 UNL     1      -5.976  16.696  23.337  1.00  0.00     0.241 C 
HETATM   17  O2  UNL     1      -7.026  16.363  23.940  1.00  0.00    -0.271 OA
HETATM   18  N3  UNL     1      -4.781  16.722  24.113  1.00  0.00    -0.346 N 
ATOM     19  H3  UNL     1      -4.614  15.929  24.731  1.00  0.00     0.163 HD
HETATM   20  C21 UNL     1      -3.791  17.764  24.106  1.00  0.00     0.177 C 
HETATM   21  C26 UNL     1      -2.692  17.228  23.176  1.00  0.00     0.244 C 
HETATM   22  O3  UNL     1      -2.530  17.991  22.193  1.00  0.00    -0.271 OA
HETATM   23  N4  UNL     1      -2.110  16.072  23.558  1.00  0.00    -0.324 N 
ATOM     24  H4  UNL     1      -2.883  15.522  23.934  1.00  0.00     0.169 HD
HETATM   25  C27 UNL     1      -1.133  15.335  23.691  1.00  0.00     0.080 C 
HETATM   26  C32 UNL     1       0.229  15.695  23.306  1.00  0.00     0.264 C 
HETATM   27  O4  UNL     1       1.138  15.310  24.143  1.00  0.00    -0.266 OA
HETATM   28  N5  UNL     1       0.671  16.383  22.185  1.00  0.00    -0.348 N 
ATOM     29  H5  UNL     1       1.209  17.226  22.388  1.00  0.00     0.163 HD
ENDROOT
BRANCH  15  30
HETATM   30  C16 UNL     1      -7.397  17.253  21.376  1.00  0.00     0.035 C 
BRANCH  30  31
HETATM   31  C17 UNL     1      -8.026  16.004  20.883  1.00  0.00     0.004 C 
BRANCH  31  32
HETATM   32  C18 UNL     1      -9.550  16.014  21.104  1.00  0.00     0.027 C 
BRANCH  32  33
HETATM   33  C19 UNL     1      -9.816  14.919  22.146  1.00  0.00     0.229 C 
BRANCH  33  34
HETATM   34  N2  UNL     1      -9.892  15.494  23.474  1.00  0.00    -0.079 N 
ATOM     35  H23 UNL     1      -9.493  16.432  23.505  1.00  0.00     0.274 HD
ATOM     36  H22 UNL     1     -10.851  15.728  23.733  1.00  0.00     0.274 HD
ATOM     37  H21 UNL     1      -9.455  14.873  24.155  1.00  0.00     0.274 HD
ENDBRANCH  33  34
ENDBRANCH  32  33
ENDBRANCH  31  32
ENDBRANCH  30  31
ENDBRANCH  15  30
BRANCH  20  38
HETATM   38  C22 UNL     1      -3.207  18.065  25.440  1.00  0.00     0.038 C 
BRANCH  38  39
HETATM   39  C23 UNL     1      -4.072  17.825  26.618  1.00  0.00    -0.020 C 
HETATM   40  C24 UNL     1      -5.258  18.713  26.781  1.00  0.00     0.009 C 
HETATM   41  C25 UNL     1      -3.249  17.899  27.906  1.00  0.00     0.009 C 
ENDBRANCH  38  39
ENDBRANCH  20  38
BRANCH  25  42
HETATM   42  C28 UNL     1      -1.304  13.967  24.304  1.00  0.00     0.067 C 
BRANCH  42  43
HETATM   43  C29 UNL     1      -0.131  13.119  24.461  1.00  0.00    -0.017 C 
HETATM   44  C30 UNL     1       0.543  13.006  25.778  1.00  0.00     0.010 C 
HETATM   45  C31 UNL     1      -0.589  11.678  24.113  1.00  0.00     0.010 C 
ENDBRANCH  42  43
ENDBRANCH  25  42
BRANCH   1  46
HETATM   46  C3  UNL     1       1.674  15.394  20.204  1.00  0.00    -0.006 C 
HETATM   47  C2  UNL     1       1.608  14.202  19.643  1.00  0.00    -0.033 C 
HETATM   48  C1  UNL     1       2.840  13.586  19.096  1.00  0.00     0.036 C 
ENDBRANCH   1  46
TORSDOF 10
ENDMDL
