MODEL 1
REMARK VINA RESULT: -7.060985877      0.000      0.000
REMARK  5 active torsions:
REMARK  status: ('A' for Active; 'I' for Inactive)
REMARK    1  A    between atoms: N1_2  and  C2_4 
REMARK    2  A    between atoms: C3_7  and  N3_8 
REMARK    3  A    between atoms: C9_14  and  N4_15 
REMARK    4  A    between atoms: N4_15  and  C10_17 
REMARK    5  A    between atoms: C10_17  and  C12_19 
ROOT
HETATM    1  C2  UNL     1      23.143 -10.595  -3.193  1.00  0.00     0.680 A 
HETATM    2  N2  UNL     1      21.969 -10.388  -2.583  1.00  0.00    -0.176 N 
ATOM      3  H2  UNL     1      21.951 -10.352  -1.564  1.00  0.00     0.186 HD
HETATM    4  C3  UNL     1      20.812 -10.225  -3.250  1.00  0.00     0.130 A 
HETATM    5  C8  UNL     1      20.848 -10.275  -4.626  1.00  0.00     0.098 A 
HETATM    6  C9  UNL     1      22.072 -10.491  -5.243  1.00  0.00     0.120 A 
HETATM    7  N5  UNL     1      23.195 -10.646  -4.533  1.00  0.00    -0.177 N 
ATOM      8  H5  UNL     1      24.084 -10.802  -5.007  1.00  0.00     0.185 HD
ENDROOT
BRANCH   6   9
HETATM    9  N4  UNL     1      22.084 -10.534  -6.537  1.00  0.00    -0.371 N 
ATOM     10  H4  UNL     1      21.863 -11.425  -6.983  1.00  0.00     0.161 HD
BRANCH   9  11
HETATM   11  C10 UNL     1      22.388  -9.411  -7.395  1.00  0.00     0.082 C 
HETATM   12  C11 UNL     1      21.133  -9.029  -8.115  1.00  0.00     0.032 C 
BRANCH  11  13
HETATM   13  C12 UNL     1      23.494  -9.840  -8.329  1.00  0.00    -0.000 C 
HETATM   14  C13 UNL     1      23.595  -8.916  -9.518  1.00  0.00     0.011 C 
HETATM   15  C14 UNL     1      24.828  -9.904  -7.669  1.00  0.00     0.011 C 
ENDBRANCH  11  13
ENDBRANCH   9  11
ENDBRANCH   6   9
BRANCH   4  16
HETATM   16  N3  UNL     1      19.570 -10.005  -2.563  1.00  0.00    -0.319 N 
HETATM   17  C4  UNL     1      19.294 -10.231  -1.277  1.00  0.00     0.098 A 
HETATM   18  C5  UNL     1      17.992  -9.894  -0.996  1.00  0.00     0.019 A 
HETATM   19  C6  UNL     1      17.436  -9.438  -2.163  1.00  0.00     0.019 A 
HETATM   20  C7  UNL     1      18.435  -9.520  -3.110  1.00  0.00     0.098 A 
ENDBRANCH   4  16
BRANCH   1  21
HETATM   21  N1  UNL     1      24.246 -10.749  -2.544  1.00  0.00    -0.230 N 
HETATM   22  C1  UNL     1      25.516 -10.980  -3.152  1.00  0.00     0.165 C 
ATOM     23  H1  UNL     1      24.209 -10.702  -1.526  1.00  0.00     0.177 HD
ENDBRANCH   1  21
TORSDOF 5
ENDMDL
MODEL 2
REMARK VINA RESULT: -6.935015805      0.966      1.086
REMARK  5 active torsions:
REMARK  status: ('A' for Active; 'I' for Inactive)
REMARK    1  A    between atoms: N1_2  and  C2_4 
REMARK    2  A    between atoms: C3_7  and  N3_8 
REMARK    3  A    between atoms: C9_14  and  N4_15 
REMARK    4  A    between atoms: N4_15  and  C10_17 
REMARK    5  A    between atoms: C10_17  and  C12_19 
ROOT
HETATM    1  C2  UNL     1      22.458 -11.177  -3.012  1.00  0.00     0.680 A 
HETATM    2  N2  UNL     1      21.457 -10.733  -2.241  1.00  0.00    -0.176 N 
ATOM      3  H2  UNL     1      21.534 -10.849  -1.230  1.00  0.00     0.186 HD
HETATM    4  C3  UNL     1      20.354 -10.142  -2.736  1.00  0.00     0.130 A 
HETATM    5  C8  UNL     1      20.261  -9.991  -4.101  1.00  0.00     0.098 A 
HETATM    6  C9  UNL     1      21.306 -10.456  -4.887  1.00  0.00     0.120 A 
HETATM    7  N5  UNL     1      22.382 -11.037  -4.344  1.00  0.00    -0.177 N 
ATOM      8  H5  UNL     1      23.139 -11.371  -4.940  1.00  0.00     0.185 HD
ENDROOT
BRANCH   6   9
HETATM    9  N4  UNL     1      21.199 -10.304  -6.168  1.00  0.00    -0.371 N 
ATOM     10  H4  UNL     1      20.541 -10.907  -6.662  1.00  0.00     0.161 HD
BRANCH   9  11
HETATM   11  C10 UNL     1      21.943  -9.341  -6.948  1.00  0.00     0.082 C 
HETATM   12  C11 UNL     1      20.970  -8.577  -7.788  1.00  0.00     0.032 C 
BRANCH  11  13
HETATM   13  C12 UNL     1      22.954 -10.107  -7.768  1.00  0.00    -0.000 C 
HETATM   14  C13 UNL     1      22.971  -9.627  -9.199  1.00  0.00     0.011 C 
HETATM   15  C14 UNL     1      24.339 -10.018  -7.226  1.00  0.00     0.011 C 
ENDBRANCH  11  13
ENDBRANCH   9  11
ENDBRANCH   6   9
BRANCH   4  16
HETATM   16  N3  UNL     1      19.299  -9.677  -1.879  1.00  0.00    -0.319 N 
HETATM   17  C4  UNL     1      18.196 -10.331  -1.512  1.00  0.00     0.098 A 
HETATM   18  C5  UNL     1      17.426  -9.552  -0.683  1.00  0.00     0.019 A 
HETATM   19  C6  UNL     1      18.083  -8.360  -0.530  1.00  0.00     0.019 A 
HETATM   20  C7  UNL     1      19.235  -8.469  -1.281  1.00  0.00     0.098 A 
ENDBRANCH   4  16
BRANCH   1  21
HETATM   21  N1  UNL     1      23.510 -11.742  -2.528  1.00  0.00    -0.230 N 
HETATM   22  C1  UNL     1      24.782 -11.773  -3.175  1.00  0.00     0.165 C 
ATOM     23  H1  UNL     1      23.429 -12.198  -1.619  1.00  0.00     0.177 HD
ENDBRANCH   1  21
TORSDOF 5
ENDMDL
MODEL 3
REMARK VINA RESULT: -6.867525392      2.008      4.079
REMARK  5 active torsions:
REMARK  status: ('A' for Active; 'I' for Inactive)
REMARK    1  A    between atoms: N1_2  and  C2_4 
REMARK    2  A    between atoms: C3_7  and  N3_8 
REMARK    3  A    between atoms: C9_14  and  N4_15 
REMARK    4  A    between atoms: N4_15  and  C10_17 
REMARK    5  A    between atoms: C10_17  and  C12_19 
ROOT
HETATM    1  C2  UNL     1      20.222  -7.951  -5.212  1.00  0.00     0.680 A 
HETATM    2  N2  UNL     1      19.376  -7.954  -4.174  1.00  0.00    -0.176 N 
ATOM      3  H2  UNL     1      18.684  -7.208  -4.110  1.00  0.00     0.186 HD
HETATM    4  C3  UNL     1      19.395  -8.895  -3.212  1.00  0.00     0.130 A 
HETATM    5  C8  UNL     1      20.334  -9.898  -3.310  1.00  0.00     0.098 A 
HETATM    6  C9  UNL     1      21.204  -9.880  -4.391  1.00  0.00     0.120 A 
HETATM    7  N5  UNL     1      21.142  -8.921  -5.321  1.00  0.00    -0.177 N 
ATOM      8  H5  UNL     1      21.791  -8.927  -6.108  1.00  0.00     0.185 HD
ENDROOT
BRANCH   6   9
HETATM    9  N4  UNL     1      22.078 -10.832  -4.464  1.00  0.00    -0.371 N 
ATOM     10  H4  UNL     1      21.736 -11.792  -4.434  1.00  0.00     0.161 HD
BRANCH   9  11
HETATM   11  C10 UNL     1      23.505 -10.631  -4.584  1.00  0.00     0.082 C 
HETATM   12  C11 UNL     1      24.037 -11.663  -5.528  1.00  0.00     0.032 C 
BRANCH  11  13
HETATM   13  C12 UNL     1      24.097 -10.739  -3.199  1.00  0.00    -0.000 C 
HETATM   14  C13 UNL     1      23.446 -11.850  -2.413  1.00  0.00     0.011 C 
HETATM   15  C14 UNL     1      25.570 -10.969  -3.207  1.00  0.00     0.011 C 
ENDBRANCH  11  13
ENDBRANCH   9  11
ENDBRANCH   6   9
BRANCH   4  16
HETATM   16  N3  UNL     1      18.472  -8.868  -2.112  1.00  0.00    -0.319 N 
HETATM   17  C4  UNL     1      17.139  -8.879  -2.162  1.00  0.00     0.098 A 
HETATM   18  C5  UNL     1      16.608  -8.845  -0.895  1.00  0.00     0.019 A 
HETATM   19  C6  UNL     1      17.662  -8.811  -0.021  1.00  0.00     0.019 A 
HETATM   20  C7  UNL     1      18.798  -8.827  -0.803  1.00  0.00     0.098 A 
ENDBRANCH   4  16
BRANCH   1  21
HETATM   21  N1  UNL     1      20.195  -7.045  -6.128  1.00  0.00    -0.230 N 
HETATM   22  C1  UNL     1      20.940  -7.102  -7.344  1.00  0.00     0.165 C 
ATOM     23  H1  UNL     1      19.600  -6.231  -5.974  1.00  0.00     0.177 HD
ENDBRANCH   1  21
TORSDOF 5
ENDMDL
MODEL 4
REMARK VINA RESULT: -6.798963193      1.931      3.915
REMARK  5 active torsions:
REMARK  status: ('A' for Active; 'I' for Inactive)
REMARK    1  A    between atoms: N1_2  and  C2_4 
REMARK    2  A    between atoms: C3_7  and  N3_8 
REMARK    3  A    between atoms: C9_14  and  N4_15 
REMARK    4  A    between atoms: N4_15  and  C10_17 
REMARK    5  A    between atoms: C10_17  and  C12_19 
ROOT
HETATM    1  C2  UNL     1      20.269  -8.078  -5.144  1.00  0.00     0.680 A 
HETATM    2  N2  UNL     1      19.421  -8.050  -4.108  1.00  0.00    -0.176 N 
ATOM      3  H2  UNL     1      18.764  -7.272  -4.040  1.00  0.00     0.186 HD
HETATM    4  C3  UNL     1      19.394  -8.998  -3.153  1.00  0.00     0.130 A 
HETATM    5  C8  UNL     1      20.285 -10.042  -3.256  1.00  0.00     0.098 A 
HETATM    6  C9  UNL     1      21.158 -10.057  -4.335  1.00  0.00     0.120 A 
HETATM    7  N5  UNL     1      21.143  -9.090  -5.259  1.00  0.00    -0.177 N 
ATOM      8  H5  UNL     1      21.793  -9.120  -6.044  1.00  0.00     0.185 HD
ENDROOT
BRANCH   6   9
HETATM    9  N4  UNL     1      21.987 -11.048  -4.414  1.00  0.00    -0.371 N 
ATOM     10  H4  UNL     1      21.613 -11.990  -4.292  1.00  0.00     0.161 HD
BRANCH   9  11
HETATM   11  C10 UNL     1      23.405 -10.917  -4.661  1.00  0.00     0.082 C 
HETATM   12  C11 UNL     1      23.685 -11.443  -6.033  1.00  0.00     0.032 C 
BRANCH  11  13
HETATM   13  C12 UNL     1      24.127 -11.684  -3.579  1.00  0.00    -0.000 C 
HETATM   14  C13 UNL     1      25.489 -11.095  -3.308  1.00  0.00     0.011 C 
HETATM   15  C14 UNL     1      23.374 -11.738  -2.294  1.00  0.00     0.011 C 
ENDBRANCH  11  13
ENDBRANCH   9  11
ENDBRANCH   6   9
BRANCH   4  16
HETATM   16  N3  UNL     1      18.471  -8.936  -2.055  1.00  0.00    -0.319 N 
HETATM   17  C4  UNL     1      18.751  -8.914  -0.751  1.00  0.00     0.098 A 
HETATM   18  C5  UNL     1      17.596  -8.852  -0.010  1.00  0.00     0.019 A 
HETATM   19  C6  UNL     1      16.552  -8.834  -0.897  1.00  0.00     0.019 A 
HETATM   20  C7  UNL     1      17.125  -8.887  -2.150  1.00  0.00     0.098 A 
ENDBRANCH   4  16
BRANCH   1  21
HETATM   21  N1  UNL     1      20.286  -7.165  -6.054  1.00  0.00    -0.230 N 
HETATM   22  C1  UNL     1      21.123  -7.191  -7.210  1.00  0.00     0.165 C 
ATOM     23  H1  UNL     1      19.658  -6.369  -5.940  1.00  0.00     0.177 HD
ENDBRANCH   1  21
TORSDOF 5
ENDMDL
MODEL 5
REMARK VINA RESULT: -6.746023173      2.359      5.333
REMARK  5 active torsions:
REMARK  status: ('A' for Active; 'I' for Inactive)
REMARK    1  A    between atoms: N1_2  and  C2_4 
REMARK    2  A    between atoms: C3_7  and  N3_8 
REMARK    3  A    between atoms: C9_14  and  N4_15 
REMARK    4  A    between atoms: N4_15  and  C10_17 
REMARK    5  A    between atoms: C10_17  and  C12_19 
ROOT
HETATM    1  C2  UNL     1      18.603  -9.497  -3.101  1.00  0.00     0.680 A 
HETATM    2  N2  UNL     1      18.510  -8.612  -4.102  1.00  0.00    -0.176 N 
ATOM      3  H2  UNL     1      17.582  -8.316  -4.403  1.00  0.00     0.186 HD
HETATM    4  C3  UNL     1      19.582  -8.096  -4.730  1.00  0.00     0.130 A 
HETATM    5  C8  UNL     1      20.831  -8.504  -4.315  1.00  0.00     0.098 A 
HETATM    6  C9  UNL     1      20.911  -9.421  -3.277  1.00  0.00     0.120 A 
HETATM    7  N5  UNL     1      19.812  -9.904  -2.686  1.00  0.00    -0.177 N 
ATOM      8  H5  UNL     1      19.894 -10.577  -1.924  1.00  0.00     0.185 HD
ENDROOT
BRANCH   6   9
HETATM    9  N4  UNL     1      22.093  -9.791  -2.902  1.00  0.00    -0.371 N 
ATOM     10  H4  UNL     1      22.577  -9.208  -2.218  1.00  0.00     0.161 HD
BRANCH   9  11
HETATM   11  C10 UNL     1      22.778 -10.971  -3.382  1.00  0.00     0.082 C 
HETATM   12  C11 UNL     1      22.921 -11.919  -2.235  1.00  0.00     0.032 C 
BRANCH  11  13
HETATM   13  C12 UNL     1      24.106 -10.526  -3.947  1.00  0.00    -0.000 C 
HETATM   14  C13 UNL     1      25.251 -10.993  -3.082  1.00  0.00     0.011 C 
HETATM   15  C14 UNL     1      24.342 -11.004  -5.339  1.00  0.00     0.011 C 
ENDBRANCH  11  13
ENDBRANCH   9  11
ENDBRANCH   6   9
BRANCH   4  16
HETATM   16  N3  UNL     1      19.446  -7.148  -5.800  1.00  0.00    -0.319 N 
HETATM   17  C4  UNL     1      18.324  -6.597  -6.268  1.00  0.00     0.098 A 
HETATM   18  C5  UNL     1      18.604  -5.736  -7.300  1.00  0.00     0.019 A 
HETATM   19  C6  UNL     1      19.962  -5.754  -7.480  1.00  0.00     0.019 A 
HETATM   20  C7  UNL     1      20.452  -6.635  -6.539  1.00  0.00     0.098 A 
ENDBRANCH   4  16
BRANCH   1  21
HETATM   21  N1  UNL     1      17.570  -9.986  -2.507  1.00  0.00    -0.230 N 
HETATM   22  C1  UNL     1      16.807  -9.299  -1.515  1.00  0.00     0.165 C 
ATOM     23  H1  UNL     1      17.275 -10.928  -2.763  1.00  0.00     0.177 HD
ENDBRANCH   1  21
TORSDOF 5
ENDMDL
