MODEL 1
REMARK VINA RESULT: -7.558737010      0.000      0.000
REMARK  4 active torsions:
REMARK  status: ('A' for Active; 'I' for Inactive)
REMARK    1  A    between atoms: O1_2  and  C2_3 
REMARK    2  A    between atoms: C7_8  and  C8_9 
REMARK    3  A    between atoms: C8_9  and  N1_10 
REMARK    4  A    between atoms: N1_10  and  C9_12 
ROOT
HETATM    1  C9  UNL     1      22.420  -9.420  -8.227  1.00  0.00     0.131 A 
HETATM    2  N2  UNL     1      22.565  -9.872  -9.485  1.00  0.00    -0.337 N 
ATOM      3  H2  UNL     1      23.337 -10.499  -9.711  1.00  0.00     0.168 HD
HETATM    4  C10 UNL     1      21.691  -9.500 -10.461  1.00  0.00     0.182 A 
HETATM    5  N3  UNL     1      20.677  -8.674 -10.156  1.00  0.00    -0.350 N 
ATOM      6  H3  UNL     1      20.025  -8.399 -10.891  1.00  0.00     0.166 HD
HETATM    7  C11 UNL     1      20.494  -8.195  -8.900  1.00  0.00     0.065 A 
HETATM    8  C12 UNL     1      19.565  -7.356  -8.316  1.00  0.00     0.056 A 
HETATM    9  C13 UNL     1      19.868  -7.210  -6.979  1.00  0.00     0.008 A 
HETATM   10  C14 UNL     1      19.127  -6.387  -5.960  1.00  0.00     0.068 C 
HETATM   11  N4  UNL     1      20.969  -7.957  -6.767  1.00  0.00    -0.355 N 
ATOM     12  H4  UNL     1      21.439  -8.055  -5.867  1.00  0.00     0.166 HD
HETATM   13  C15 UNL     1      21.362  -8.556  -7.904  1.00  0.00     0.103 A 
ENDROOT
BRANCH   1  14
HETATM   14  N1  UNL     1      23.188  -9.707  -7.244  1.00  0.00    -0.370 N 
ATOM     15  H1  UNL     1      23.757  -8.973  -6.822  1.00  0.00     0.161 HD
BRANCH  14  16
HETATM   16  C8  UNL     1      23.262 -11.043  -6.726  1.00  0.00     0.162 C 
BRANCH  16  17
HETATM   17  C7  UNL     1      23.546 -10.997  -5.285  1.00  0.00    -0.007 A 
HETATM   18  C2  UNL     1      22.484 -10.768  -4.412  1.00  0.00     0.076 A 
HETATM   19  C3  UNL     1      22.719 -10.725  -3.062  1.00  0.00     0.037 A 
HETATM   20  C4  UNL     1      24.001 -10.907  -2.575  1.00  0.00     0.003 A 
HETATM   21  C5  UNL     1      25.054 -11.134  -3.430  1.00  0.00     0.001 A 
HETATM   22  C6  UNL     1      24.827 -11.180  -4.810  1.00  0.00     0.011 A 
BRANCH  18  23
HETATM   23  O1  UNL     1      21.223 -10.592  -4.949  1.00  0.00    -0.355 OA
HETATM   24  C1  UNL     1      20.109 -10.187  -4.201  1.00  0.00     0.210 C 
ENDBRANCH  18  23
ENDBRANCH  16  17
ENDBRANCH  14  16
ENDBRANCH   1  14
TORSDOF 4
ENDMDL
MODEL 2
REMARK VINA RESULT: -7.405562023      1.319      2.217
REMARK  4 active torsions:
REMARK  status: ('A' for Active; 'I' for Inactive)
REMARK    1  A    between atoms: O1_2  and  C2_3 
REMARK    2  A    between atoms: C7_8  and  C8_9 
REMARK    3  A    between atoms: C8_9  and  N1_10 
REMARK    4  A    between atoms: N1_10  and  C9_12 
ROOT
HETATM    1  C9  UNL     1      21.122  -8.763  -7.350  1.00  0.00     0.131 A 
HETATM    2  N2  UNL     1      21.673  -9.484  -8.343  1.00  0.00    -0.337 N 
ATOM      3  H2  UNL     1      22.344 -10.219  -8.121  1.00  0.00     0.168 HD
HETATM    4  C10 UNL     1      21.345  -9.240  -9.642  1.00  0.00     0.182 A 
HETATM    5  N3  UNL     1      20.461  -8.270  -9.926  1.00  0.00    -0.350 N 
ATOM      6  H3  UNL     1      20.219  -8.092 -10.901  1.00  0.00     0.166 HD
HETATM    7  C11 UNL     1      19.881  -7.520  -8.956  1.00  0.00     0.065 A 
HETATM    8  C12 UNL     1      18.965  -6.486  -8.957  1.00  0.00     0.056 A 
HETATM    9  C13 UNL     1      18.729  -6.092  -7.657  1.00  0.00     0.008 A 
HETATM   10  C14 UNL     1      17.805  -5.001  -7.187  1.00  0.00     0.068 C 
HETATM   11  N4  UNL     1      19.498  -6.885  -6.887  1.00  0.00    -0.355 N 
ATOM     12  H4  UNL     1      19.544  -6.837  -5.869  1.00  0.00     0.166 HD
HETATM   13  C15 UNL     1      20.198  -7.748  -7.643  1.00  0.00     0.103 A 
ENDROOT
BRANCH   1  14
HETATM   14  N1  UNL     1      21.367  -8.912  -6.103  1.00  0.00    -0.370 N 
ATOM     15  H1  UNL     1      21.615  -8.098  -5.540  1.00  0.00     0.161 HD
BRANCH  14  16
HETATM   16  C8  UNL     1      21.300 -10.203  -5.482  1.00  0.00     0.162 C 
BRANCH  16  17
HETATM   17  C7  UNL     1      22.535 -10.451  -4.725  1.00  0.00    -0.007 A 
HETATM   18  C2  UNL     1      23.602 -11.056  -5.386  1.00  0.00     0.076 A 
HETATM   19  C3  UNL     1      24.768 -11.294  -4.706  1.00  0.00     0.037 A 
HETATM   20  C4  UNL     1      24.881 -10.936  -3.375  1.00  0.00     0.003 A 
HETATM   21  C5  UNL     1      23.832 -10.337  -2.715  1.00  0.00     0.001 A 
HETATM   22  C6  UNL     1      22.636 -10.089  -3.399  1.00  0.00     0.011 A 
BRANCH  18  23
HETATM   23  O1  UNL     1      23.439 -11.395  -6.716  1.00  0.00    -0.355 OA
HETATM   24  C1  UNL     1      24.506 -11.614  -7.598  1.00  0.00     0.210 C 
ENDBRANCH  18  23
ENDBRANCH  16  17
ENDBRANCH  14  16
ENDBRANCH   1  14
TORSDOF 4
ENDMDL
MODEL 3
REMARK VINA RESULT: -7.173035203      2.842      5.951
REMARK  4 active torsions:
REMARK  status: ('A' for Active; 'I' for Inactive)
REMARK    1  A    between atoms: O1_2  and  C2_3 
REMARK    2  A    between atoms: C7_8  and  C8_9 
REMARK    3  A    between atoms: C8_9  and  N1_10 
REMARK    4  A    between atoms: N1_10  and  C9_12 
ROOT
HETATM    1  C9  UNL     1      22.197 -10.287  -3.654  1.00  0.00     0.131 A 
HETATM    2  N2  UNL     1      22.609 -10.831  -2.496  1.00  0.00    -0.337 N 
ATOM      3  H2  UNL     1      22.099 -10.634  -1.635  1.00  0.00     0.168 HD
HETATM    4  C10 UNL     1      23.702 -11.643  -2.461  1.00  0.00     0.182 A 
HETATM    5  N3  UNL     1      24.370 -11.898  -3.598  1.00  0.00    -0.350 N 
ATOM      6  H3  UNL     1      25.187 -12.506  -3.565  1.00  0.00     0.166 HD
HETATM    7  C11 UNL     1      23.988 -11.370  -4.788  1.00  0.00     0.065 A 
HETATM    8  C12 UNL     1      24.471 -11.458  -6.078  1.00  0.00     0.056 A 
HETATM    9  C13 UNL     1      23.675 -10.699  -6.910  1.00  0.00     0.008 A 
HETATM   10  C14 UNL     1      23.830 -10.505  -8.394  1.00  0.00     0.068 C 
HETATM   11  N4  UNL     1      22.724 -10.163  -6.121  1.00  0.00    -0.355 N 
ATOM     12  H4  UNL     1      21.979  -9.548  -6.447  1.00  0.00     0.166 HD
HETATM   13  C15 UNL     1      22.892 -10.551  -4.845  1.00  0.00     0.103 A 
ENDROOT
BRANCH   1  14
HETATM   14  N1  UNL     1      21.188  -9.511  -3.791  1.00  0.00    -0.370 N 
ATOM     15  H1  UNL     1      21.337  -8.505  -3.865  1.00  0.00     0.161 HD
BRANCH  14  16
HETATM   16  C8  UNL     1      19.853 -10.033  -3.840  1.00  0.00     0.162 C 
BRANCH  16  17
HETATM   17  C7  UNL     1      19.067  -9.480  -2.729  1.00  0.00    -0.007 A 
HETATM   18  C2  UNL     1      18.546  -8.194  -2.867  1.00  0.00     0.076 A 
HETATM   19  C3  UNL     1      17.804  -7.655  -1.848  1.00  0.00     0.037 A 
HETATM   20  C4  UNL     1      17.577  -8.382  -0.694  1.00  0.00     0.003 A 
HETATM   21  C5  UNL     1      18.088  -9.652  -0.550  1.00  0.00     0.001 A 
HETATM   22  C6  UNL     1      18.847 -10.213  -1.583  1.00  0.00     0.011 A 
BRANCH  18  23
HETATM   23  O1  UNL     1      18.802  -7.509  -4.039  1.00  0.00    -0.355 OA
HETATM   24  C1  UNL     1      19.118  -6.144  -4.089  1.00  0.00     0.210 C 
ENDBRANCH  18  23
ENDBRANCH  16  17
ENDBRANCH  14  16
ENDBRANCH   1  14
TORSDOF 4
ENDMDL
MODEL 4
REMARK VINA RESULT: -7.146552801      1.065      1.104
REMARK  4 active torsions:
REMARK  status: ('A' for Active; 'I' for Inactive)
REMARK    1  A    between atoms: O1_2  and  C2_3 
REMARK    2  A    between atoms: C7_8  and  C8_9 
REMARK    3  A    between atoms: C8_9  and  N1_10 
REMARK    4  A    between atoms: N1_10  and  C9_12 
ROOT
HETATM    1  C9  UNL     1      21.482  -8.985  -7.656  1.00  0.00     0.131 A 
HETATM    2  N2  UNL     1      21.865  -9.568  -8.807  1.00  0.00    -0.337 N 
ATOM      3  H2  UNL     1      22.582 -10.293  -8.792  1.00  0.00     0.168 HD
HETATM    4  C10 UNL     1      21.304  -9.198  -9.992  1.00  0.00     0.182 A 
HETATM    5  N3  UNL     1      20.361  -8.242 -10.004  1.00  0.00    -0.350 N 
ATOM      6  H3  UNL     1      19.944  -7.970 -10.893  1.00  0.00     0.166 HD
HETATM    7  C11 UNL     1      19.945  -7.629  -8.867  1.00  0.00     0.065 A 
HETATM    8  C12 UNL     1      19.019  -6.643  -8.588  1.00  0.00     0.056 A 
HETATM    9  C13 UNL     1      19.010  -6.404  -7.231  1.00  0.00     0.008 A 
HETATM   10  C14 UNL     1      18.158  -5.413  -6.484  1.00  0.00     0.068 C 
HETATM   11  N4  UNL     1      19.923  -7.242  -6.703  1.00  0.00    -0.355 N 
ATOM     12  H4  UNL     1      20.148  -7.304  -5.710  1.00  0.00     0.166 HD
HETATM   13  C15 UNL     1      20.497  -7.986  -7.665  1.00  0.00     0.103 A 
ENDROOT
BRANCH   1  14
HETATM   14  N1  UNL     1      21.950  -9.258  -6.497  1.00  0.00    -0.370 N 
ATOM     15  H1  UNL     1      22.215  -8.498  -5.872  1.00  0.00     0.161 HD
BRANCH  14  16
HETATM   16  C8  UNL     1      22.107 -10.616  -6.062  1.00  0.00     0.162 C 
BRANCH  16  17
HETATM   17  C7  UNL     1      23.054 -10.667  -4.940  1.00  0.00    -0.007 A 
HETATM   18  C2  UNL     1      22.685 -10.062  -3.740  1.00  0.00     0.076 A 
HETATM   19  C3  UNL     1      23.547 -10.099  -2.674  1.00  0.00     0.037 A 
HETATM   20  C4  UNL     1      24.771 -10.731  -2.793  1.00  0.00     0.003 A 
HETATM   21  C5  UNL     1      25.142 -11.331  -3.975  1.00  0.00     0.001 A 
HETATM   22  C6  UNL     1      24.271 -11.300  -5.069  1.00  0.00     0.011 A 
BRANCH  18  23
HETATM   23  O1  UNL     1      21.452  -9.443  -3.672  1.00  0.00    -0.355 OA
HETATM   24  C1  UNL     1      20.400  -9.893  -2.861  1.00  0.00     0.210 C 
ENDBRANCH  18  23
ENDBRANCH  16  17
ENDBRANCH  14  16
ENDBRANCH   1  14
TORSDOF 4
ENDMDL
MODEL 5
REMARK VINA RESULT: -7.146223213      2.760      4.749
REMARK  4 active torsions:
REMARK  status: ('A' for Active; 'I' for Inactive)
REMARK    1  A    between atoms: O1_2  and  C2_3 
REMARK    2  A    between atoms: C7_8  and  C8_9 
REMARK    3  A    between atoms: C8_9  and  N1_10 
REMARK    4  A    between atoms: N1_10  and  C9_12 
ROOT
HETATM    1  C9  UNL     1      19.669  -9.673  -2.423  1.00  0.00     0.131 A 
HETATM    2  N2  UNL     1      18.761 -10.263  -1.626  1.00  0.00    -0.337 N 
ATOM      3  H2  UNL     1      19.067 -10.935  -0.922  1.00  0.00     0.168 HD
HETATM    4  C10 UNL     1      17.436  -9.972  -1.748  1.00  0.00     0.182 A 
HETATM    5  N3  UNL     1      17.040  -9.086  -2.676  1.00  0.00    -0.350 N 
ATOM      6  H3  UNL     1      16.047  -8.872  -2.763  1.00  0.00     0.166 HD
HETATM    7  C11 UNL     1      17.921  -8.468  -3.501  1.00  0.00     0.065 A 
HETATM    8  C12 UNL     1      17.801  -7.540  -4.517  1.00  0.00     0.056 A 
HETATM    9  C13 UNL     1      19.053  -7.259  -5.022  1.00  0.00     0.008 A 
HETATM   10  C14 UNL     1      19.395  -6.308  -6.136  1.00  0.00     0.068 C 
HETATM   11  N4  UNL     1      19.913  -8.014  -4.311  1.00  0.00    -0.355 N 
ATOM     12  H4  UNL     1      20.924  -8.027  -4.450  1.00  0.00     0.166 HD
HETATM   13  C15 UNL     1      19.259  -8.746  -3.395  1.00  0.00     0.103 A 
ENDROOT
BRANCH   1  14
HETATM   14  N1  UNL     1      20.931  -9.881  -2.390  1.00  0.00    -0.370 N 
ATOM     15  H1  UNL     1      21.566  -9.093  -2.268  1.00  0.00     0.161 HD
BRANCH  14  16
HETATM   16  C8  UNL     1      21.467 -11.205  -2.521  1.00  0.00     0.162 C 
BRANCH  16  17
HETATM   17  C7  UNL     1      22.767 -11.144  -3.203  1.00  0.00    -0.007 A 
HETATM   18  C2  UNL     1      22.784 -10.843  -4.563  1.00  0.00     0.076 A 
HETATM   19  C3  UNL     1      23.983 -10.774  -5.224  1.00  0.00     0.037 A 
HETATM   20  C4  UNL     1      25.165 -11.003  -4.543  1.00  0.00     0.003 A 
HETATM   21  C5  UNL     1      25.157 -11.301  -3.200  1.00  0.00     0.001 A 
HETATM   22  C6  UNL     1      23.939 -11.374  -2.514  1.00  0.00     0.011 A 
BRANCH  18  23
HETATM   23  O1  UNL     1      21.576 -10.623  -5.198  1.00  0.00    -0.355 OA
HETATM   24  C1  UNL     1      21.463 -10.111  -6.498  1.00  0.00     0.210 C 
ENDBRANCH  18  23
ENDBRANCH  16  17
ENDBRANCH  14  16
ENDBRANCH   1  14
TORSDOF 4
ENDMDL
