MODEL 1
REMARK VINA RESULT: -6.508657479      0.000      0.000
REMARK  7 active torsions:
REMARK  status: ('A' for Active; 'I' for Inactive)
REMARK    1  A    between atoms: O1_2  and  C2_3 
REMARK    2  A    between atoms: N1_6  and  O2_7 
REMARK    3  A    between atoms: C6_10  and  C7_11 
REMARK    4  A    between atoms: C8_12  and  C9_13 
REMARK    5  A    between atoms: C10_14  and  C11_15 
REMARK    6  A    between atoms: C11_15  and  O3_16 
REMARK    7  A    between atoms: N2_21  and  O4_22 
ROOT
HETATM    1  C2  UNL     1      -2.570   4.892  10.895  1.00  0.00     0.101 A 
HETATM    2  C3  UNL     1      -3.141   3.805  10.283  1.00  0.00     0.059 A 
HETATM    3  C4  UNL     1      -4.099   3.092  10.973  1.00  0.00     0.126 A 
HETATM    4  N1  UNL     1      -4.463   3.454  12.214  1.00  0.00    -0.232 N 
HETATM    5  C5  UNL     1      -3.923   4.511  12.836  1.00  0.00     0.112 A 
HETATM    6  C6  UNL     1      -4.292   4.889  14.110  1.00  0.00     0.051 A 
HETATM    7  C12 UNL     1      -3.693   6.001  14.712  1.00  0.00     0.050 A 
HETATM    8  C13 UNL     1      -2.737   6.719  14.034  1.00  0.00     0.038 A 
HETATM    9  C14 UNL     1      -2.082   7.914  14.659  1.00  0.00     0.071 C 
HETATM   10  N2  UNL     1      -2.416   6.308  12.799  1.00  0.00    -0.224 N 
HETATM   11  C15 UNL     1      -2.944   5.259  12.165  1.00  0.00     0.126 A 
ENDROOT
BRANCH   6  12
HETATM   12  C7  UNL     1      -5.298   4.148  14.845  1.00  0.00    -0.060 C 
HETATM   13  C8  UNL     1      -6.130   3.526  15.501  1.00  0.00    -0.073 C 
BRANCH  13  14
HETATM   14  C9  UNL     1      -7.091   2.811  16.283  1.00  0.00     0.063 C 
HETATM   15  C10 UNL     1      -6.791   1.698  16.920  1.00  0.00     0.008 C 
BRANCH  15  16
HETATM   16  C11 UNL     1      -5.423   1.129  16.850  1.00  0.00     0.192 C 
BRANCH  16  17
HETATM   17  O3  UNL     1      -5.346   0.099  15.897  1.00  0.00    -0.397 OA
ATOM     18  H3  UNL     1      -4.450  -0.049  15.620  1.00  0.00     0.209 HD
ENDBRANCH  16  17
ENDBRANCH  15  16
ENDBRANCH  13  14
ENDBRANCH   6  12
BRANCH   4  19
HETATM   19  O2  UNL     1      -5.405   2.703  12.812  1.00  0.00    -0.283 OA
ATOM     20  H2  UNL     1      -5.294   2.538  13.741  1.00  0.00     0.245 HD
ENDBRANCH   4  19
BRANCH   1  21
HETATM   21  O1  UNL     1      -1.596   5.668  10.276  1.00  0.00    -0.353 OA
HETATM   22  C1  UNL     1      -0.836   5.262   9.177  1.00  0.00     0.210 C 
ENDBRANCH   1  21
BRANCH  10  23
HETATM   23  O4  UNL     1      -1.461   7.029  12.127  1.00  0.00    -0.282 OA
ATOM     24  H4  UNL     1      -0.687   7.285  12.616  1.00  0.00     0.245 HD
ENDBRANCH  10  23
TORSDOF 7
ENDMDL
MODEL 2
REMARK VINA RESULT: -6.420546793      1.594      3.245
REMARK  7 active torsions:
REMARK  status: ('A' for Active; 'I' for Inactive)
REMARK    1  A    between atoms: O1_2  and  C2_3 
REMARK    2  A    between atoms: N1_6  and  O2_7 
REMARK    3  A    between atoms: C6_10  and  C7_11 
REMARK    4  A    between atoms: C8_12  and  C9_13 
REMARK    5  A    between atoms: C10_14  and  C11_15 
REMARK    6  A    between atoms: C11_15  and  O3_16 
REMARK    7  A    between atoms: N2_21  and  O4_22 
ROOT
HETATM    1  C2  UNL     1      -2.747   5.423  11.499  1.00  0.00     0.101 A 
HETATM    2  C3  UNL     1      -2.699   6.532  12.305  1.00  0.00     0.059 A 
HETATM    3  C4  UNL     1      -3.393   6.509  13.495  1.00  0.00     0.126 A 
HETATM    4  N1  UNL     1      -4.102   5.426  13.856  1.00  0.00    -0.232 N 
HETATM    5  C5  UNL     1      -4.167   4.329  13.090  1.00  0.00     0.112 A 
HETATM    6  C6  UNL     1      -4.892   3.214  13.454  1.00  0.00     0.051 A 
HETATM    7  C12 UNL     1      -4.926   2.095  12.613  1.00  0.00     0.050 A 
HETATM    8  C13 UNL     1      -4.237   2.107  11.425  1.00  0.00     0.038 A 
HETATM    9  C14 UNL     1      -4.260   0.920  10.509  1.00  0.00     0.071 C 
HETATM   10  N2  UNL     1      -3.549   3.217  11.120  1.00  0.00    -0.224 N 
HETATM   11  C15 UNL     1      -3.473   4.317  11.871  1.00  0.00     0.126 A 
ENDROOT
BRANCH   6  12
HETATM   12  C7  UNL     1      -5.627   3.178  14.703  1.00  0.00    -0.060 C 
HETATM   13  C8  UNL     1      -6.252   3.109  15.759  1.00  0.00    -0.073 C 
BRANCH  13  14
HETATM   14  C9  UNL     1      -6.974   3.006  16.989  1.00  0.00     0.063 C 
HETATM   15  C10 UNL     1      -6.722   2.065  17.876  1.00  0.00     0.008 C 
BRANCH  15  16
HETATM   16  C11 UNL     1      -5.663   1.055  17.630  1.00  0.00     0.192 C 
BRANCH  16  17
HETATM   17  O3  UNL     1      -6.211  -0.164  17.198  1.00  0.00    -0.397 OA
ATOM     18  H3  UNL     1      -5.963  -0.878  17.774  1.00  0.00     0.209 HD
ENDBRANCH  16  17
ENDBRANCH  15  16
ENDBRANCH  13  14
ENDBRANCH   6  12
BRANCH   4  19
HETATM   19  O2  UNL     1      -4.749   5.491  15.034  1.00  0.00    -0.283 OA
ATOM     20  H2  UNL     1      -5.546   4.980  15.113  1.00  0.00     0.245 HD
ENDBRANCH   4  19
BRANCH   1  21
HETATM   21  O1  UNL     1      -2.078   5.357  10.282  1.00  0.00    -0.353 OA
HETATM   22  C1  UNL     1      -1.101   6.262   9.862  1.00  0.00     0.210 C 
ENDBRANCH   1  21
BRANCH  10  23
HETATM   23  O4  UNL     1      -2.863   3.222   9.931  1.00  0.00    -0.282 OA
ATOM     24  H4  UNL     1      -3.361   3.040   9.143  1.00  0.00     0.245 HD
ENDBRANCH  10  23
TORSDOF 7
ENDMDL
MODEL 3
REMARK VINA RESULT: -6.409634026      2.513      6.795
REMARK  7 active torsions:
REMARK  status: ('A' for Active; 'I' for Inactive)
REMARK    1  A    between atoms: O1_2  and  C2_3 
REMARK    2  A    between atoms: N1_6  and  O2_7 
REMARK    3  A    between atoms: C6_10  and  C7_11 
REMARK    4  A    between atoms: C8_12  and  C9_13 
REMARK    5  A    between atoms: C10_14  and  C11_15 
REMARK    6  A    between atoms: C11_15  and  O3_16 
REMARK    7  A    between atoms: N2_21  and  O4_22 
ROOT
HETATM    1  C2  UNL     1      -5.342   1.968  15.199  1.00  0.00     0.101 A 
HETATM    2  C3  UNL     1      -5.693   3.206  15.674  1.00  0.00     0.059 A 
HETATM    3  C4  UNL     1      -5.559   4.293  14.836  1.00  0.00     0.126 A 
HETATM    4  N1  UNL     1      -5.095   4.141  13.584  1.00  0.00    -0.232 N 
HETATM    5  C5  UNL     1      -4.745   2.945  13.094  1.00  0.00     0.112 A 
HETATM    6  C6  UNL     1      -4.268   2.782  11.810  1.00  0.00     0.051 A 
HETATM    7  C12 UNL     1      -3.916   1.507  11.350  1.00  0.00     0.050 A 
HETATM    8  C13 UNL     1      -4.046   0.417  12.176  1.00  0.00     0.038 A 
HETATM    9  C14 UNL     1      -3.674  -0.956  11.705  1.00  0.00     0.071 C 
HETATM   10  N2  UNL     1      -4.514   0.633  13.415  1.00  0.00    -0.224 N 
HETATM   11  C15 UNL     1      -4.868   1.817  13.919  1.00  0.00     0.126 A 
ENDROOT
BRANCH   6  12
HETATM   12  C7  UNL     1      -4.123   3.916  10.919  1.00  0.00    -0.060 C 
HETATM   13  C8  UNL     1      -3.987   4.853  10.136  1.00  0.00    -0.073 C 
BRANCH  13  14
HETATM   14  C9  UNL     1      -3.829   5.930   9.208  1.00  0.00     0.063 C 
HETATM   15  C10 UNL     1      -4.749   6.858   9.045  1.00  0.00     0.008 C 
BRANCH  15  16
HETATM   16  C11 UNL     1      -6.009   6.824   9.828  1.00  0.00     0.192 C 
BRANCH  16  17
HETATM   17  O3  UNL     1      -7.017   6.127   9.142  1.00  0.00    -0.397 OA
ATOM     18  H3  UNL     1      -6.819   6.056   8.215  1.00  0.00     0.209 HD
ENDBRANCH  16  17
ENDBRANCH  15  16
ENDBRANCH  13  14
ENDBRANCH   6  12
BRANCH   4  19
HETATM   19  O2  UNL     1      -4.997   5.255  12.836  1.00  0.00    -0.283 OA
ATOM     20  H2  UNL     1      -4.637   5.153  11.963  1.00  0.00     0.245 HD
ENDBRANCH   4  19
BRANCH   1  21
HETATM   21  O1  UNL     1      -5.443   0.818  15.973  1.00  0.00    -0.353 OA
HETATM   22  C1  UNL     1      -6.140   0.731  17.180  1.00  0.00     0.210 C 
ENDBRANCH   1  21
BRANCH  10  23
HETATM   23  O4  UNL     1      -4.641  -0.460  14.235  1.00  0.00    -0.282 OA
ATOM     24  H4  UNL     1      -3.894  -0.684  14.778  1.00  0.00     0.245 HD
ENDBRANCH  10  23
TORSDOF 7
ENDMDL
MODEL 4
REMARK VINA RESULT: -6.328343152      2.160      2.648
REMARK  7 active torsions:
REMARK  status: ('A' for Active; 'I' for Inactive)
REMARK    1  A    between atoms: O1_2  and  C2_3 
REMARK    2  A    between atoms: N1_6  and  O2_7 
REMARK    3  A    between atoms: C6_10  and  C7_11 
REMARK    4  A    between atoms: C8_12  and  C9_13 
REMARK    5  A    between atoms: C10_14  and  C11_15 
REMARK    6  A    between atoms: C11_15  and  O3_16 
REMARK    7  A    between atoms: N2_21  and  O4_22 
ROOT
HETATM    1  C2  UNL     1      -2.428   6.458  12.249  1.00  0.00     0.101 A 
HETATM    2  C3  UNL     1      -1.448   5.698  12.835  1.00  0.00     0.059 A 
HETATM    3  C4  UNL     1      -1.820   4.748  13.762  1.00  0.00     0.126 A 
HETATM    4  N1  UNL     1      -3.113   4.572  14.083  1.00  0.00    -0.232 N 
HETATM    5  C5  UNL     1      -4.091   5.298  13.526  1.00  0.00     0.112 A 
HETATM    6  C6  UNL     1      -5.420   5.123  13.851  1.00  0.00     0.051 A 
HETATM    7  C12 UNL     1      -6.401   5.911  13.238  1.00  0.00     0.050 A 
HETATM    8  C13 UNL     1      -6.041   6.861  12.313  1.00  0.00     0.038 A 
HETATM    9  C14 UNL     1      -7.075   7.717  11.645  1.00  0.00     0.071 C 
HETATM   10  N2  UNL     1      -4.736   6.990  12.035  1.00  0.00    -0.224 N 
HETATM   11  C15 UNL     1      -3.749   6.275  12.579  1.00  0.00     0.126 A 
ENDROOT
BRANCH   6  12
HETATM   12  C7  UNL     1      -5.824   4.127  14.824  1.00  0.00    -0.060 C 
HETATM   13  C8  UNL     1      -6.204   3.290  15.639  1.00  0.00    -0.073 C 
BRANCH  13  14
HETATM   14  C9  UNL     1      -6.666   2.314  16.577  1.00  0.00     0.063 C 
HETATM   15  C10 UNL     1      -6.097   1.131  16.699  1.00  0.00     0.008 C 
BRANCH  15  16
HETATM   16  C11 UNL     1      -4.937   0.757  15.853  1.00  0.00     0.192 C 
BRANCH  16  17
HETATM   17  O3  UNL     1      -3.723   1.000  16.516  1.00  0.00    -0.397 OA
ATOM     18  H3  UNL     1      -3.563   1.931  16.614  1.00  0.00     0.209 HD
ENDBRANCH  16  17
ENDBRANCH  15  16
ENDBRANCH  13  14
ENDBRANCH   6  12
BRANCH   4  19
HETATM   19  O2  UNL     1      -3.386   3.623  14.996  1.00  0.00    -0.283 OA
ATOM     20  H2  UNL     1      -3.568   3.920  15.881  1.00  0.00     0.245 HD
ENDBRANCH   4  19
BRANCH   1  21
HETATM   21  O1  UNL     1      -2.145   7.439  11.305  1.00  0.00    -0.353 OA
HETATM   22  C1  UNL     1      -0.900   7.625  10.701  1.00  0.00     0.210 C 
ENDBRANCH   1  21
BRANCH  10  23
HETATM   23  O4  UNL     1      -4.384   7.940  11.110  1.00  0.00    -0.282 OA
ATOM     24  H4  UNL     1      -4.507   8.850  11.354  1.00  0.00     0.245 HD
ENDBRANCH  10  23
TORSDOF 7
ENDMDL
MODEL 5
REMARK VINA RESULT: -6.288895483      2.018      5.686
REMARK  7 active torsions:
REMARK  status: ('A' for Active; 'I' for Inactive)
REMARK    1  A    between atoms: O1_2  and  C2_3 
REMARK    2  A    between atoms: N1_6  and  O2_7 
REMARK    3  A    between atoms: C6_10  and  C7_11 
REMARK    4  A    between atoms: C8_12  and  C9_13 
REMARK    5  A    between atoms: C10_14  and  C11_15 
REMARK    6  A    between atoms: C11_15  and  O3_16 
REMARK    7  A    between atoms: N2_21  and  O4_22 
ROOT
HETATM    1  C2  UNL     1      -4.276   1.006  12.083  1.00  0.00     0.101 A 
HETATM    2  C3  UNL     1      -4.015   1.591  10.871  1.00  0.00     0.059 A 
HETATM    3  C4  UNL     1      -3.632   2.915  10.850  1.00  0.00     0.126 A 
HETATM    4  N1  UNL     1      -3.518   3.615  11.991  1.00  0.00    -0.232 N 
HETATM    5  C5  UNL     1      -3.766   3.070  13.190  1.00  0.00     0.112 A 
HETATM    6  C6  UNL     1      -3.652   3.782  14.365  1.00  0.00     0.051 A 
HETATM    7  C12 UNL     1      -3.925   3.161  15.590  1.00  0.00     0.050 A 
HETATM    8  C13 UNL     1      -4.306   1.841  15.622  1.00  0.00     0.038 A 
HETATM    9  C14 UNL     1      -4.604   1.157  16.922  1.00  0.00     0.071 C 
HETATM   10  N2  UNL     1      -4.403   1.197  14.450  1.00  0.00    -0.224 N 
HETATM   11  C15 UNL     1      -4.159   1.724  13.249  1.00  0.00     0.126 A 
ENDROOT
BRANCH   6  12
HETATM   12  C7  UNL     1      -3.250   5.174  14.357  1.00  0.00    -0.060 C 
HETATM   13  C8  UNL     1      -2.881   6.346  14.374  1.00  0.00    -0.073 C 
BRANCH  13  14
HETATM   14  C9  UNL     1      -2.431   7.704  14.402  1.00  0.00     0.063 C 
HETATM   15  C10 UNL     1      -1.437   8.130  13.650  1.00  0.00     0.008 C 
BRANCH  15  16
HETATM   16  C11 UNL     1      -0.730   7.206  12.730  1.00  0.00     0.192 C 
BRANCH  16  17
HETATM   17  O3  UNL     1      -1.314   7.213  11.452  1.00  0.00    -0.397 OA
ATOM     18  H3  UNL     1      -1.339   6.339  11.079  1.00  0.00     0.209 HD
ENDBRANCH  16  17
ENDBRANCH  15  16
ENDBRANCH  13  14
ENDBRANCH   6  12
BRANCH   4  19
HETATM   19  O2  UNL     1      -3.140   4.901  11.878  1.00  0.00    -0.283 OA
ATOM     20  H2  UNL     1      -3.283   5.316  11.036  1.00  0.00     0.245 HD
ENDBRANCH   4  19
BRANCH   1  21
HETATM   21  O1  UNL     1      -4.668  -0.323  12.200  1.00  0.00    -0.353 OA
HETATM   22  C1  UNL     1      -4.026  -1.398  11.582  1.00  0.00     0.210 C 
ENDBRANCH   1  21
BRANCH  10  23
HETATM   23  O4  UNL     1      -4.785  -0.121  14.490  1.00  0.00    -0.282 OA
ATOM     24  H4  UNL     1      -4.552  -0.662  13.745  1.00  0.00     0.245 HD
ENDBRANCH  10  23
TORSDOF 7
ENDMDL
