MODEL 1
REMARK VINA RESULT: -7.631783721      0.000      0.000
REMARK  4 active torsions:
REMARK  status: ('A' for Active; 'I' for Inactive)
REMARK    1  A    between atoms: O1_3  and  C3_4 
REMARK    2  A    between atoms: C3_4  and  C4_5 
REMARK    3  A    between atoms: C3_4  and  C6_8 
REMARK       I    between atoms: C6_8  and  N1_10 
REMARK    4  A    between atoms: N1_10  and  C7_12 
ROOT
HETATM    1  C1  UNL     1      -4.551  -0.054  11.198  1.00  0.00     0.044 C 
HETATM    2  C2  UNL     1      -4.198   0.355  12.277  1.00  0.00     0.044 C 
HETATM    3  O1  UNL     1      -3.799   0.820  13.484  1.00  0.00    -0.281 OA
ENDROOT
BRANCH   3   4
HETATM    4  C3  UNL     1      -4.524   1.734  14.275  1.00  0.00     0.300 C 
BRANCH   4   5
HETATM    5  C4  UNL     1      -4.228   1.588  15.693  1.00  0.00     0.162 C 
HETATM    6  C5  UNL     1      -5.318   1.351  16.664  1.00  0.00     0.094 C 
HETATM    7  O2  UNL     1      -3.091   1.657  16.094  1.00  0.00    -0.295 OA
ENDBRANCH   4   5
BRANCH   4   8
HETATM    8  C6  UNL     1      -4.301   3.106  13.721  1.00  0.00     0.260 C 
HETATM    9  O3  UNL     1      -5.363   3.646  13.229  1.00  0.00    -0.270 OA
HETATM   10  N1  UNL     1      -3.089   3.751  13.726  1.00  0.00    -0.319 N 
ATOM     11  H1  UNL     1      -2.622   3.649  14.626  1.00  0.00     0.169 HD
BRANCH  10  12
HETATM   12  C7  UNL     1      -2.409   4.417  12.949  1.00  0.00     0.110 C 
HETATM   13  C8  UNL     1      -2.395   5.785  13.014  1.00  0.00    -0.024 C 
HETATM   14  C9  UNL     1      -3.656   6.491  13.162  1.00  0.00     0.051 C 
HETATM   15  C10 UNL     1      -1.265   6.590  12.921  1.00  0.00    -0.052 C 
HETATM   16  C11 UNL     1      -1.388   7.915  13.527  1.00  0.00     0.049 C 
HETATM   17  C12 UNL     1      -0.039   6.280  12.314  1.00  0.00     0.032 C 
HETATM   18  C13 UNL     1       0.314   5.120  11.620  1.00  0.00     0.009 C 
HETATM   19  C14 UNL     1       1.703   5.111  11.096  1.00  0.00     0.068 C 
HETATM   20  N2  UNL     1      -0.473   4.051  11.401  1.00  0.00    -0.326 N 
HETATM   21  C15 UNL     1      -1.616   3.687  12.004  1.00  0.00     0.273 C 
ATOM     22  H2  UNL     1      -0.153   3.422  10.664  1.00  0.00     0.169 HD
HETATM   23  O4  UNL     1      -2.069   2.562  11.719  1.00  0.00    -0.266 OA
ENDBRANCH  10  12
ENDBRANCH   4   8
ENDBRANCH   3   4
TORSDOF 4
ENDMDL
MODEL 2
REMARK VINA RESULT: -7.565849691      2.225      5.901
REMARK  4 active torsions:
REMARK  status: ('A' for Active; 'I' for Inactive)
REMARK    1  A    between atoms: O1_3  and  C3_4 
REMARK    2  A    between atoms: C3_4  and  C4_5 
REMARK    3  A    between atoms: C3_4  and  C6_8 
REMARK       I    between atoms: C6_8  and  N1_10 
REMARK    4  A    between atoms: N1_10  and  C7_12 
ROOT
HETATM    1  C1  UNL     1       1.500   4.054  10.984  1.00  0.00     0.044 C 
HETATM    2  C2  UNL     1       0.417   3.591  11.247  1.00  0.00     0.044 C 
HETATM    3  O1  UNL     1      -0.797   3.075  11.549  1.00  0.00    -0.281 OA
ENDROOT
BRANCH   3   4
HETATM    4  C3  UNL     1      -1.970   3.832  11.744  1.00  0.00     0.300 C 
BRANCH   4   5
HETATM    5  C4  UNL     1      -2.572   4.246  10.485  1.00  0.00     0.162 C 
HETATM    6  C5  UNL     1      -3.536   5.367  10.450  1.00  0.00     0.094 C 
HETATM    7  O2  UNL     1      -2.293   3.680   9.455  1.00  0.00    -0.295 OA
ENDBRANCH   4   5
BRANCH   4   8
HETATM    8  C6  UNL     1      -2.873   3.061  12.654  1.00  0.00     0.260 C 
HETATM    9  O3  UNL     1      -3.558   2.148  12.055  1.00  0.00    -0.270 OA
HETATM   10  N1  UNL     1      -2.978   3.285  14.005  1.00  0.00    -0.319 N 
ATOM     11  H1  UNL     1      -2.059   3.406  14.430  1.00  0.00     0.169 HD
BRANCH  10  12
HETATM   12  C7  UNL     1      -3.869   3.380  14.845  1.00  0.00     0.110 C 
HETATM   13  C8  UNL     1      -4.745   4.433  14.832  1.00  0.00    -0.024 C 
HETATM   14  C9  UNL     1      -4.222   5.775  14.636  1.00  0.00     0.051 C 
HETATM   15  C10 UNL     1      -6.120   4.348  15.023  1.00  0.00    -0.052 C 
HETATM   16  C11 UNL     1      -6.900   5.450  14.460  1.00  0.00     0.049 C 
HETATM   17  C12 UNL     1      -6.832   3.340  15.689  1.00  0.00     0.032 C 
HETATM   18  C13 UNL     1      -6.327   2.222  16.359  1.00  0.00     0.009 C 
HETATM   19  C14 UNL     1      -7.360   1.346  16.965  1.00  0.00     0.068 C 
HETATM   20  N2  UNL     1      -5.031   1.890  16.491  1.00  0.00    -0.326 N 
HETATM   21  C15 UNL     1      -3.958   2.322  15.807  1.00  0.00     0.273 C 
ATOM     22  H2  UNL     1      -4.831   1.206  17.221  1.00  0.00     0.169 HD
HETATM   23  O4  UNL     1      -2.880   1.736  16.023  1.00  0.00    -0.266 OA
ENDBRANCH  10  12
ENDBRANCH   4   8
ENDBRANCH   3   4
TORSDOF 4
ENDMDL
MODEL 3
REMARK VINA RESULT: -7.505641070      2.418      3.943
REMARK  4 active torsions:
REMARK  status: ('A' for Active; 'I' for Inactive)
REMARK    1  A    between atoms: O1_3  and  C3_4 
REMARK    2  A    between atoms: C3_4  and  C4_5 
REMARK    3  A    between atoms: C3_4  and  C6_8 
REMARK       I    between atoms: C6_8  and  N1_10 
REMARK    4  A    between atoms: N1_10  and  C7_12 
ROOT
HETATM    1  C1  UNL     1      -4.839   1.701  14.914  1.00  0.00     0.044 C 
HETATM    2  C2  UNL     1      -4.074   1.979  14.022  1.00  0.00     0.044 C 
HETATM    3  O1  UNL     1      -3.215   2.282  13.022  1.00  0.00    -0.281 OA
ENDROOT
BRANCH   3   4
HETATM    4  C3  UNL     1      -3.499   2.153  11.648  1.00  0.00     0.300 C 
BRANCH   4   5
HETATM    5  C4  UNL     1      -4.641   1.284  11.402  1.00  0.00     0.162 C 
HETATM    6  C5  UNL     1      -4.468  -0.184  11.357  1.00  0.00     0.094 C 
HETATM    7  O2  UNL     1      -5.742   1.750  11.233  1.00  0.00    -0.295 OA
ENDBRANCH   4   5
BRANCH   4   8
HETATM    8  C6  UNL     1      -3.613   3.527  11.067  1.00  0.00     0.260 C 
HETATM    9  O3  UNL     1      -2.894   3.706  10.012  1.00  0.00    -0.270 OA
HETATM   10  N1  UNL     1      -4.403   4.521  11.589  1.00  0.00    -0.319 N 
ATOM     11  H1  UNL     1      -5.323   4.162  11.844  1.00  0.00     0.169 HD
BRANCH  10  12
HETATM   12  C7  UNL     1      -4.314   5.721  11.836  1.00  0.00     0.110 C 
HETATM   13  C8  UNL     1      -3.664   6.168  12.956  1.00  0.00    -0.024 C 
HETATM   14  C9  UNL     1      -3.924   5.508  14.224  1.00  0.00     0.051 C 
HETATM   15  C10 UNL     1      -2.778   7.238  13.007  1.00  0.00    -0.052 C 
HETATM   16  C11 UNL     1      -1.829   7.212  14.119  1.00  0.00     0.049 C 
HETATM   17  C12 UNL     1      -2.698   8.328  12.128  1.00  0.00     0.032 C 
HETATM   18  C13 UNL     1      -3.517   8.619  11.034  1.00  0.00     0.009 C 
HETATM   19  C14 UNL     1      -3.159   9.862  10.307  1.00  0.00     0.068 C 
HETATM   20  N2  UNL     1      -4.561   7.888  10.603  1.00  0.00    -0.326 N 
HETATM   21  C15 UNL     1      -4.892   6.616  10.877  1.00  0.00     0.273 C 
ATOM     22  H2  UNL     1      -5.197   8.374   9.971  1.00  0.00     0.169 HD
HETATM   23  O4  UNL     1      -5.830   6.125  10.221  1.00  0.00    -0.266 OA
ENDBRANCH  10  12
ENDBRANCH   4   8
ENDBRANCH   3   4
TORSDOF 4
ENDMDL
MODEL 4
REMARK VINA RESULT: -7.457479418      2.139      5.684
REMARK  4 active torsions:
REMARK  status: ('A' for Active; 'I' for Inactive)
REMARK    1  A    between atoms: O1_3  and  C3_4 
REMARK    2  A    between atoms: C3_4  and  C4_5 
REMARK    3  A    between atoms: C3_4  and  C6_8 
REMARK       I    between atoms: C6_8  and  N1_10 
REMARK    4  A    between atoms: N1_10  and  C7_12 
ROOT
HETATM    1  C1  UNL     1      -4.702   5.682  10.746  1.00  0.00     0.044 C 
HETATM    2  C2  UNL     1      -4.072   4.666  10.573  1.00  0.00     0.044 C 
HETATM    3  O1  UNL     1      -3.359   3.533  10.380  1.00  0.00    -0.281 OA
ENDROOT
BRANCH   3   4
HETATM    4  C3  UNL     1      -2.503   2.946  11.333  1.00  0.00     0.300 C 
BRANCH   4   5
HETATM    5  C4  UNL     1      -1.469   3.866  11.783  1.00  0.00     0.162 C 
HETATM    6  C5  UNL     1      -0.562   4.508  10.808  1.00  0.00     0.094 C 
HETATM    7  O2  UNL     1      -1.340   4.118  12.958  1.00  0.00    -0.295 OA
ENDBRANCH   4   5
BRANCH   4   8
HETATM    8  C6  UNL     1      -3.349   2.363  12.420  1.00  0.00     0.260 C 
HETATM    9  O3  UNL     1      -4.180   1.468  12.008  1.00  0.00    -0.270 OA
HETATM   10  N1  UNL     1      -3.266   2.730  13.741  1.00  0.00    -0.319 N 
ATOM     11  H1  UNL     1      -2.294   2.800  14.042  1.00  0.00     0.169 HD
BRANCH  10  12
HETATM   12  C7  UNL     1      -4.034   2.997  14.661  1.00  0.00     0.110 C 
HETATM   13  C8  UNL     1      -4.763   4.156  14.662  1.00  0.00    -0.024 C 
HETATM   14  C9  UNL     1      -4.100   5.400  14.309  1.00  0.00     0.051 C 
HETATM   15  C10 UNL     1      -6.106   4.270  15.005  1.00  0.00    -0.052 C 
HETATM   16  C11 UNL     1      -6.799   5.430  14.446  1.00  0.00     0.049 C 
HETATM   17  C12 UNL     1      -6.859   3.411  15.819  1.00  0.00     0.032 C 
HETATM   18  C13 UNL     1      -6.427   2.279  16.514  1.00  0.00     0.009 C 
HETATM   19  C14 UNL     1      -7.486   1.589  17.292  1.00  0.00     0.068 C 
HETATM   20  N2  UNL     1      -5.177   1.782  16.532  1.00  0.00    -0.326 N 
HETATM   21  C15 UNL     1      -4.145   2.022  15.706  1.00  0.00     0.273 C 
ATOM     22  H2  UNL     1      -4.983   1.124  17.287  1.00  0.00     0.169 HD
HETATM   23  O4  UNL     1      -3.132   1.309  15.849  1.00  0.00    -0.266 OA
ENDBRANCH  10  12
ENDBRANCH   4   8
ENDBRANCH   3   4
TORSDOF 4
ENDMDL
MODEL 5
REMARK VINA RESULT: -7.398650248      1.854      3.048
REMARK  4 active torsions:
REMARK  status: ('A' for Active; 'I' for Inactive)
REMARK    1  A    between atoms: O1_3  and  C3_4 
REMARK    2  A    between atoms: C3_4  and  C4_5 
REMARK    3  A    between atoms: C3_4  and  C6_8 
REMARK       I    between atoms: C6_8  and  N1_10 
REMARK    4  A    between atoms: N1_10  and  C7_12 
ROOT
HETATM    1  C1  UNL     1      -4.527   0.478  11.183  1.00  0.00     0.044 C 
HETATM    2  C2  UNL     1      -4.177   0.872  12.270  1.00  0.00     0.044 C 
HETATM    3  O1  UNL     1      -3.785   1.320  13.484  1.00  0.00    -0.281 OA
ENDROOT
BRANCH   3   4
HETATM    4  C3  UNL     1      -4.615   1.997  14.401  1.00  0.00     0.300 C 
BRANCH   4   5
HETATM    5  C4  UNL     1      -4.269   1.694  15.782  1.00  0.00     0.162 C 
HETATM    6  C5  UNL     1      -5.327   1.366  16.763  1.00  0.00     0.094 C 
HETATM    7  O2  UNL     1      -3.117   1.706  16.145  1.00  0.00    -0.295 OA
ENDBRANCH   4   5
BRANCH   4   8
HETATM    8  C6  UNL     1      -4.603   3.452  14.050  1.00  0.00     0.260 C 
HETATM    9  O3  UNL     1      -5.778   3.959  13.901  1.00  0.00    -0.270 OA
HETATM   10  N1  UNL     1      -3.461   4.198  13.898  1.00  0.00    -0.319 N 
ATOM     11  H1  UNL     1      -2.793   4.004  14.644  1.00  0.00     0.169 HD
BRANCH  10  12
HETATM   12  C7  UNL     1      -3.017   5.034  13.115  1.00  0.00     0.110 C 
HETATM   13  C8  UNL     1      -2.493   4.664  11.905  1.00  0.00    -0.024 C 
HETATM   14  C9  UNL     1      -1.583   3.532  11.854  1.00  0.00     0.051 C 
HETATM   15  C10 UNL     1      -2.729   5.298  10.690  1.00  0.00    -0.052 C 
HETATM   16  C11 UNL     1      -2.527   4.470   9.501  1.00  0.00     0.049 C 
HETATM   17  C12 UNL     1      -3.128   6.626  10.479  1.00  0.00     0.032 C 
HETATM   18  C13 UNL     1      -3.328   7.630  11.430  1.00  0.00     0.009 C 
HETATM   19  C14 UNL     1      -3.750   8.938  10.869  1.00  0.00     0.068 C 
HETATM   20  N2  UNL     1      -3.177   7.509  12.761  1.00  0.00    -0.326 N 
HETATM   21  C15 UNL     1      -3.108   6.405  13.523  1.00  0.00     0.273 C 
ATOM     22  H2  UNL     1      -3.104   8.391  13.270  1.00  0.00     0.169 HD
HETATM   23  O4  UNL     1      -3.124   6.570  14.757  1.00  0.00    -0.266 OA
ENDBRANCH  10  12
ENDBRANCH   4   8
ENDBRANCH   3   4
TORSDOF 4
ENDMDL
