MODEL 1
REMARK VINA RESULT: -6.048095328      0.000      0.000
REMARK  9 active torsions:
REMARK  status: ('A' for Active; 'I' for Inactive)
REMARK    1  A    between atoms: O1_2  and  C2_3 
REMARK    2  A    between atoms: C2_3  and  C3_5 
REMARK    3  A    between atoms: C3_5  and  O3_6 
REMARK    4  A    between atoms: C5_9  and  O5_10 
REMARK    5  A    between atoms: C5_9  and  C13_24 
REMARK    6  A    between atoms: O5_10  and  C6_11 
REMARK    7  A    between atoms: C8_13  and  C9_14 
REMARK    8  A    between atoms: N1_16  and  O6_18 
REMARK    9  A    between atoms: C17_35  and  O7_36 
ROOT
HETATM    1  C3  UNL     1       6.119   3.118 107.959  1.00  0.00     0.292 C 
HETATM    2  O4  UNL     1       7.269   2.431 107.563  1.00  0.00    -0.298 OA
HETATM    3  C5  UNL     1       8.126   3.277 106.924  1.00  0.00     0.263 C 
HETATM    4  C14 UNL     1       7.466   4.594 106.741  1.00  0.00     0.296 C 
HETATM    5  N5  UNL     1       7.529   5.109 105.398  1.00  0.00    -0.062 N 
ATOM      6  H51 UNL     1       8.310   4.728 104.864  1.00  0.00     0.277 HD
ATOM      7  H52 UNL     1       7.807   6.089 105.363  1.00  0.00     0.277 HD
HETATM    8  C15 UNL     1       6.257   4.867 104.776  1.00  0.00     0.236 C 
HETATM    9  C16 UNL     1       5.487   3.925 105.675  1.00  0.00     0.074 C 
HETATM   10  C17 UNL     1       6.013   4.312 107.038  1.00  0.00     0.162 C 
ENDROOT
BRANCH   3  11
HETATM   11  O5  UNL     1       9.287   3.514 107.749  1.00  0.00    -0.289 OA
BRANCH  11  12
HETATM   12  C6  UNL     1       9.761   2.537 108.612  1.00  0.00     0.138 C 
HETATM   13  C7  UNL     1      10.874   1.860 108.392  1.00  0.00     0.039 C 
HETATM   14  C8  UNL     1      11.358   0.819 109.333  1.00  0.00     0.061 C 
HETATM   15  C11 UNL     1      10.221   0.066 109.978  1.00  0.00     0.034 C 
HETATM   16  C12 UNL     1       9.032   0.894 110.306  1.00  0.00     0.122 C 
HETATM   17  N2  UNL     1       9.034   2.230 109.793  1.00  0.00    -0.371 N 
ATOM     18  H2  UNL     1       8.514   2.962 110.276  1.00  0.00     0.161 HD
BRANCH  14  19
HETATM   19  C9  UNL     1      12.185  -0.167 108.607  1.00  0.00     0.014 C 
HETATM   20  C10 UNL     1      12.746   0.119 107.269  1.00  0.00     0.066 C 
HETATM   21  N1  UNL     1      12.422  -1.300 109.155  1.00  0.00    -0.277 N 
ATOM     22  H1  UNL     1      12.029  -1.484 110.078  1.00  0.00     0.193 HD
BRANCH  21  23
HETATM   23  O6  UNL     1      13.170  -2.271 108.568  1.00  0.00    -0.290 OA
ATOM     24  H6  UNL     1      12.890  -3.176 108.499  1.00  0.00     0.244 HD
ENDBRANCH  21  23
ENDBRANCH  14  19
ENDBRANCH  11  12
ENDBRANCH   3  11
BRANCH   3  25
HETATM   25  C13 UNL     1       8.614   2.629 105.690  1.00  0.00     0.152 C 
HETATM   26  N3  UNL     1       7.970   1.641 105.173  1.00  0.00    -0.387 N 
ATOM     27  H32 UNL     1       7.120   1.352 105.657  1.00  0.00     0.157 HD
ATOM     28  H31 UNL     1       8.307   1.193 104.321  1.00  0.00     0.157 HD
HETATM   29  N4  UNL     1       9.803   3.033 105.012  1.00  0.00    -0.082 NA
ENDBRANCH   3  25
BRANCH   1  30
HETATM   30  C2  UNL     1       6.324   3.586 109.334  1.00  0.00     0.325 C 
HETATM   31  O2  UNL     1       5.833   2.888 110.297  1.00  0.00    -0.259 OA
BRANCH  30  32
HETATM   32  O1  UNL     1       6.993   4.710 109.750  1.00  0.00    -0.322 OA
HETATM   33  C1  UNL     1       7.046   5.128 111.098  1.00  0.00     0.213 C 
ENDBRANCH  30  32
ENDBRANCH   1  30
BRANCH   1  34
HETATM   34  O3  UNL     1       5.064   2.272 107.751  1.00  0.00    -0.350 OA
HETATM   35  C4  UNL     1       5.322   0.941 107.642  1.00  0.00     0.206 C 
ENDBRANCH   1  34
BRANCH  10  36
HETATM   36  O7  UNL     1       5.386   5.403 107.546  1.00  0.00    -0.376 OA
HETATM   37  C18 UNL     1       4.043   5.527 107.363  1.00  0.00     0.202 C 
ENDBRANCH  10  36
TORSDOF 9
ENDMDL
MODEL 2
REMARK VINA RESULT: -6.027557853      2.132      2.927
REMARK  9 active torsions:
REMARK  status: ('A' for Active; 'I' for Inactive)
REMARK    1  A    between atoms: O1_2  and  C2_3 
REMARK    2  A    between atoms: C2_3  and  C3_5 
REMARK    3  A    between atoms: C3_5  and  O3_6 
REMARK    4  A    between atoms: C5_9  and  O5_10 
REMARK    5  A    between atoms: C5_9  and  C13_24 
REMARK    6  A    between atoms: O5_10  and  C6_11 
REMARK    7  A    between atoms: C8_13  and  C9_14 
REMARK    8  A    between atoms: N1_16  and  O6_18 
REMARK    9  A    between atoms: C17_35  and  O7_36 
ROOT
HETATM    1  C3  UNL     1       7.750   3.650 106.813  1.00  0.00     0.292 C 
HETATM    2  O4  UNL     1       8.851   3.354 106.006  1.00  0.00    -0.298 OA
HETATM    3  C5  UNL     1       9.763   4.365 106.065  1.00  0.00     0.263 C 
HETATM    4  C14 UNL     1       9.194   5.491 106.847  1.00  0.00     0.296 C 
HETATM    5  N5  UNL     1       9.293   6.773 106.201  1.00  0.00    -0.062 N 
ATOM      6  H51 UNL     1      10.046   6.814 105.514  1.00  0.00     0.277 HD
ATOM      7  H52 UNL     1       9.637   7.504 106.822  1.00  0.00     0.277 HD
HETATM    8  C15 UNL     1       8.007   7.079 105.637  1.00  0.00     0.236 C 
HETATM    9  C16 UNL     1       7.174   5.818 105.701  1.00  0.00     0.074 C 
HETATM   10  C17 UNL     1       7.726   5.156 106.943  1.00  0.00     0.162 C 
ENDROOT
BRANCH   3  11
HETATM   11  O5  UNL     1      10.937   3.924 106.780  1.00  0.00    -0.289 OA
BRANCH  11  12
HETATM   12  C6  UNL     1      11.571   2.736 106.447  1.00  0.00     0.138 C 
HETATM   13  C7  UNL     1      11.476   1.639 107.178  1.00  0.00     0.039 C 
HETATM   14  C8  UNL     1      12.166   0.381 106.798  1.00  0.00     0.061 C 
HETATM   15  C11 UNL     1      13.495   0.642 106.133  1.00  0.00     0.034 C 
HETATM   16  C12 UNL     1      13.520   1.824 105.235  1.00  0.00     0.122 C 
HETATM   17  N2  UNL     1      12.365   2.668 105.271  1.00  0.00    -0.371 N 
ATOM     18  H2  UNL     1      12.112   3.221 104.453  1.00  0.00     0.161 HD
BRANCH  14  19
HETATM   19  C9  UNL     1      12.427  -0.431 108.004  1.00  0.00     0.014 C 
HETATM   20  C10 UNL     1      12.111   0.063 109.362  1.00  0.00     0.066 C 
HETATM   21  N1  UNL     1      12.942  -1.596 107.868  1.00  0.00    -0.277 N 
ATOM     22  H1  UNL     1      13.156  -1.924 106.926  1.00  0.00     0.193 HD
BRANCH  21  23
HETATM   23  O6  UNL     1      13.219  -2.417 108.915  1.00  0.00    -0.290 OA
ATOM     24  H6  UNL     1      12.803  -3.261 109.040  1.00  0.00     0.244 HD
ENDBRANCH  21  23
ENDBRANCH  14  19
ENDBRANCH  11  12
ENDBRANCH   3  11
BRANCH   3  25
HETATM   25  C13 UNL     1      10.207   4.697 104.696  1.00  0.00     0.152 C 
HETATM   26  N3  UNL     1       9.604   4.193 103.675  1.00  0.00    -0.387 N 
ATOM     27  H32 UNL     1       8.819   3.573 103.873  1.00  0.00     0.157 HD
ATOM     28  H31 UNL     1       9.910   4.422 102.729  1.00  0.00     0.157 HD
HETATM   29  N4  UNL     1      11.305   5.564 104.418  1.00  0.00    -0.082 NA
ENDBRANCH   3  25
BRANCH   1  30
HETATM   30  C2  UNL     1       7.986   3.055 108.133  1.00  0.00     0.325 C 
HETATM   31  O2  UNL     1       7.160   2.166 108.560  1.00  0.00    -0.259 OA
BRANCH  30  32
HETATM   32  O1  UNL     1       9.007   3.329 109.010  1.00  0.00    -0.322 OA
HETATM   33  C1  UNL     1       9.297   2.530 110.137  1.00  0.00     0.213 C 
ENDBRANCH  30  32
ENDBRANCH   1  30
BRANCH   1  34
HETATM   34  O3  UNL     1       6.639   3.221 106.138  1.00  0.00    -0.350 OA
HETATM   35  C4  UNL     1       6.798   2.255 105.194  1.00  0.00     0.206 C 
ENDBRANCH   1  34
BRANCH  10  36
HETATM   36  O7  UNL     1       7.174   5.647 108.082  1.00  0.00    -0.376 OA
HETATM   37  C18 UNL     1       5.843   5.931 108.091  1.00  0.00     0.202 C 
ENDBRANCH  10  36
TORSDOF 9
ENDMDL
MODEL 3
REMARK VINA RESULT: -5.944418206      3.150      4.417
REMARK  9 active torsions:
REMARK  status: ('A' for Active; 'I' for Inactive)
REMARK    1  A    between atoms: O1_2  and  C2_3 
REMARK    2  A    between atoms: C2_3  and  C3_5 
REMARK    3  A    between atoms: C3_5  and  O3_6 
REMARK    4  A    between atoms: C5_9  and  O5_10 
REMARK    5  A    between atoms: C5_9  and  C13_24 
REMARK    6  A    between atoms: O5_10  and  C6_11 
REMARK    7  A    between atoms: C8_13  and  C9_14 
REMARK    8  A    between atoms: N1_16  and  O6_18 
REMARK    9  A    between atoms: C17_35  and  O7_36 
ROOT
HETATM    1  C3  UNL     1       7.950   5.181 104.110  1.00  0.00     0.292 C 
HETATM    2  O4  UNL     1       9.298   4.912 103.865  1.00  0.00    -0.298 OA
HETATM    3  C5  UNL     1      10.079   5.897 104.392  1.00  0.00     0.263 C 
HETATM    4  C14 UNL     1       9.211   6.985 104.906  1.00  0.00     0.296 C 
HETATM    5  N5  UNL     1       9.579   8.302 104.457  1.00  0.00    -0.062 N 
ATOM      6  H51 UNL     1      10.560   8.368 104.185  1.00  0.00     0.277 HD
ATOM      7  H52 UNL     1       9.602   8.986 105.212  1.00  0.00     0.277 HD
HETATM    8  C15 UNL     1       8.680   8.670 103.397  1.00  0.00     0.236 C 
HETATM    9  C16 UNL     1       7.917   7.426 103.001  1.00  0.00     0.074 C 
HETATM   10  C17 UNL     1       7.858   6.677 104.313  1.00  0.00     0.162 C 
ENDROOT
BRANCH   3  11
HETATM   11  O5  UNL     1      10.811   5.388 105.527  1.00  0.00    -0.289 OA
BRANCH  11  12
HETATM   12  C6  UNL     1      11.142   4.043 105.618  1.00  0.00     0.138 C 
HETATM   13  C7  UNL     1      10.802   3.286 106.646  1.00  0.00     0.039 C 
HETATM   14  C8  UNL     1      11.169   1.849 106.718  1.00  0.00     0.061 C 
HETATM   15  C11 UNL     1      12.513   1.576 106.087  1.00  0.00     0.034 C 
HETATM   16  C12 UNL     1      12.803   2.376 104.870  1.00  0.00     0.122 C 
HETATM   17  N2  UNL     1      11.880   3.428 104.572  1.00  0.00    -0.371 N 
ATOM     18  H2  UNL     1      11.753   3.738 103.609  1.00  0.00     0.161 HD
BRANCH  14  19
HETATM   19  C9  UNL     1      11.250   1.423 108.130  1.00  0.00     0.014 C 
HETATM   20  C10 UNL     1      10.276   1.886 109.142  1.00  0.00     0.066 C 
HETATM   21  N1  UNL     1      12.190   0.628 108.484  1.00  0.00    -0.277 N 
ATOM     22  H1  UNL     1      12.855   0.317 107.776  1.00  0.00     0.193 HD
BRANCH  21  23
HETATM   23  O6  UNL     1      12.348   0.180 109.757  1.00  0.00    -0.290 OA
ATOM     24  H6  UNL     1      13.164  -0.176 110.088  1.00  0.00     0.244 HD
ENDBRANCH  21  23
ENDBRANCH  14  19
ENDBRANCH  11  12
ENDBRANCH   3  11
BRANCH   3  25
HETATM   25  C13 UNL     1      11.087   6.301 103.391  1.00  0.00     0.152 C 
HETATM   26  N3  UNL     1      11.013   5.872 102.179  1.00  0.00    -0.387 N 
ATOM     27  H32 UNL     1      10.228   5.256 101.965  1.00  0.00     0.157 HD
ATOM     28  H31 UNL     1      11.709   6.151 101.488  1.00  0.00     0.157 HD
HETATM   29  N4  UNL     1      12.185   7.162 103.690  1.00  0.00    -0.082 NA
ENDBRANCH   3  25
BRANCH   1  30
HETATM   30  C2  UNL     1       7.573   4.503 105.355  1.00  0.00     0.325 C 
HETATM   31  O2  UNL     1       6.996   3.356 105.276  1.00  0.00    -0.259 OA
BRANCH  30  32
HETATM   32  O1  UNL     1       7.760   4.941 106.643  1.00  0.00    -0.322 OA
HETATM   33  C1  UNL     1       7.427   4.173 107.780  1.00  0.00     0.213 C 
ENDBRANCH  30  32
ENDBRANCH   1  30
BRANCH   1  34
HETATM   34  O3  UNL     1       7.264   4.819 102.984  1.00  0.00    -0.350 OA
HETATM   35  C4  UNL     1       7.906   4.053 102.062  1.00  0.00     0.206 C 
ENDBRANCH   1  34
BRANCH  10  36
HETATM   36  O7  UNL     1       6.850   7.110 105.112  1.00  0.00    -0.376 OA
HETATM   37  C18 UNL     1       5.652   7.413 104.543  1.00  0.00     0.202 C 
ENDBRANCH  10  36
TORSDOF 9
ENDMDL
MODEL 4
REMARK VINA RESULT: -5.923416812      2.731      4.823
REMARK  9 active torsions:
REMARK  status: ('A' for Active; 'I' for Inactive)
REMARK    1  A    between atoms: O1_2  and  C2_3 
REMARK    2  A    between atoms: C2_3  and  C3_5 
REMARK    3  A    between atoms: C3_5  and  O3_6 
REMARK    4  A    between atoms: C5_9  and  O5_10 
REMARK    5  A    between atoms: C5_9  and  C13_24 
REMARK    6  A    between atoms: O5_10  and  C6_11 
REMARK    7  A    between atoms: C8_13  and  C9_14 
REMARK    8  A    between atoms: N1_16  and  O6_18 
REMARK    9  A    between atoms: C17_35  and  O7_36 
ROOT
HETATM    1  C3  UNL     1       8.924   5.491 104.639  1.00  0.00     0.292 C 
HETATM    2  O4  UNL     1       9.060   5.490 106.029  1.00  0.00    -0.298 OA
HETATM    3  C5  UNL     1       9.188   4.213 106.488  1.00  0.00     0.263 C 
HETATM    4  C14 UNL     1       8.984   3.267 105.362  1.00  0.00     0.296 C 
HETATM    5  N5  UNL     1       8.041   2.214 105.634  1.00  0.00    -0.062 N 
ATOM      6  H51 UNL     1       7.935   2.023 106.630  1.00  0.00     0.277 HD
ATOM      7  H52 UNL     1       8.382   1.295 105.355  1.00  0.00     0.277 HD
HETATM    8  C15 UNL     1       6.800   2.564 104.999  1.00  0.00     0.236 C 
HETATM    9  C16 UNL     1       6.908   4.008 104.561  1.00  0.00     0.074 C 
HETATM   10  C17 UNL     1       8.388   4.126 104.274  1.00  0.00     0.162 C 
ENDROOT
BRANCH   3  11
HETATM   11  O5  UNL     1      10.533   3.996 106.965  1.00  0.00    -0.289 OA
BRANCH  11  12
HETATM   12  C6  UNL     1      11.252   2.872 106.585  1.00  0.00     0.138 C 
HETATM   13  C7  UNL     1      11.281   1.761 107.299  1.00  0.00     0.039 C 
HETATM   14  C8  UNL     1      12.060   0.572 106.869  1.00  0.00     0.061 C 
HETATM   15  C11 UNL     1      13.333   0.956 106.157  1.00  0.00     0.034 C 
HETATM   16  C12 UNL     1      13.220   2.149 105.280  1.00  0.00     0.122 C 
HETATM   17  N2  UNL     1      11.999   2.890 105.378  1.00  0.00    -0.371 N 
ATOM     18  H2  UNL     1      11.666   3.432 104.580  1.00  0.00     0.161 HD
BRANCH  14  19
HETATM   19  C9  UNL     1      12.439  -0.232 108.049  1.00  0.00     0.014 C 
HETATM   20  C10 UNL     1      12.067   0.172 109.422  1.00  0.00     0.066 C 
HETATM   21  N1  UNL     1      13.110  -1.310 107.875  1.00  0.00    -0.277 N 
ATOM     22  H1  UNL     1      13.360  -1.576 106.922  1.00  0.00     0.193 HD
BRANCH  21  23
HETATM   23  O6  UNL     1      13.505  -2.115 108.895  1.00  0.00    -0.290 OA
ATOM     24  H6  UNL     1      14.025  -2.900 108.768  1.00  0.00     0.244 HD
ENDBRANCH  21  23
ENDBRANCH  14  19
ENDBRANCH  11  12
ENDBRANCH   3  11
BRANCH   3  25
HETATM   25  C13 UNL     1       8.296   4.026 107.650  1.00  0.00     0.152 C 
HETATM   26  N3  UNL     1       7.400   4.907 107.934  1.00  0.00    -0.387 N 
ATOM     27  H32 UNL     1       7.348   5.715 107.314  1.00  0.00     0.157 HD
ATOM     28  H31 UNL     1       6.784   4.778 108.737  1.00  0.00     0.157 HD
HETATM   29  N4  UNL     1       8.368   2.895 108.518  1.00  0.00    -0.082 NA
ENDBRANCH   3  25
BRANCH   1  30
HETATM   30  C2  UNL     1      10.260   5.656 104.055  1.00  0.00     0.325 C 
HETATM   31  O2  UNL     1      11.236   5.963 104.836  1.00  0.00    -0.259 OA
BRANCH  30  32
HETATM   32  O1  UNL     1      10.626   5.523 102.738  1.00  0.00    -0.322 OA
HETATM   33  C1  UNL     1      10.546   6.575 101.800  1.00  0.00     0.213 C 
ENDBRANCH  30  32
ENDBRANCH   1  30
BRANCH   1  34
HETATM   34  O3  UNL     1       8.000   6.454 104.333  1.00  0.00    -0.350 OA
HETATM   35  C4  UNL     1       8.081   7.647 104.980  1.00  0.00     0.206 C 
ENDBRANCH   1  34
BRANCH  10  36
HETATM   36  O7  UNL     1       8.715   3.667 103.039  1.00  0.00    -0.376 OA
HETATM   37  C18 UNL     1       7.860   3.908 102.007  1.00  0.00     0.202 C 
ENDBRANCH  10  36
TORSDOF 9
ENDMDL
MODEL 5
REMARK VINA RESULT: -5.863071332      3.765      5.808
REMARK  9 active torsions:
REMARK  status: ('A' for Active; 'I' for Inactive)
REMARK    1  A    between atoms: O1_2  and  C2_3 
REMARK    2  A    between atoms: C2_3  and  C3_5 
REMARK    3  A    between atoms: C3_5  and  O3_6 
REMARK    4  A    between atoms: C5_9  and  O5_10 
REMARK    5  A    between atoms: C5_9  and  C13_24 
REMARK    6  A    between atoms: O5_10  and  C6_11 
REMARK    7  A    between atoms: C8_13  and  C9_14 
REMARK    8  A    between atoms: N1_16  and  O6_18 
REMARK    9  A    between atoms: C17_35  and  O7_36 
ROOT
HETATM    1  C3  UNL     1       9.490   6.563 103.010  1.00  0.00     0.292 C 
HETATM    2  O4  UNL     1       9.741   6.963 104.324  1.00  0.00    -0.298 OA
HETATM    3  C5  UNL     1       9.523   5.927 105.182  1.00  0.00     0.263 C 
HETATM    4  C14 UNL     1       8.948   4.783 104.430  1.00  0.00     0.296 C 
HETATM    5  N5  UNL     1       7.762   4.220 105.019  1.00  0.00    -0.062 N 
ATOM      6  H51 UNL     1       7.694   4.399 106.021  1.00  0.00     0.277 HD
ATOM      7  H52 UNL     1       7.789   3.202 105.067  1.00  0.00     0.277 HD
HETATM    8  C15 UNL     1       6.631   4.715 104.285  1.00  0.00     0.236 C 
HETATM    9  C16 UNL     1       7.125   5.835 103.396  1.00  0.00     0.074 C 
HETATM   10  C17 UNL     1       8.541   5.390 103.110  1.00  0.00     0.162 C 
ENDROOT
BRANCH   3  11
HETATM   11  O5  UNL     1      10.779   5.468 105.725  1.00  0.00    -0.289 OA
BRANCH  11  12
HETATM   12  C6  UNL     1      11.093   4.116 105.755  1.00  0.00     0.138 C 
HETATM   13  C7  UNL     1      10.768   3.324 106.761  1.00  0.00     0.039 C 
HETATM   14  C8  UNL     1      11.116   1.880 106.767  1.00  0.00     0.061 C 
HETATM   15  C11 UNL     1      12.439   1.614 106.090  1.00  0.00     0.034 C 
HETATM   16  C12 UNL     1      12.708   2.457 104.897  1.00  0.00     0.122 C 
HETATM   17  N2  UNL     1      11.794   3.533 104.666  1.00  0.00    -0.371 N 
ATOM     18  H2  UNL     1      11.646   3.882 103.719  1.00  0.00     0.161 HD
BRANCH  14  19
HETATM   19  C9  UNL     1      11.228   1.397 108.158  1.00  0.00     0.014 C 
HETATM   20  C10 UNL     1      10.278   1.821 109.210  1.00  0.00     0.066 C 
HETATM   21  N1  UNL     1      12.174   0.588 108.459  1.00  0.00    -0.277 N 
ATOM     22  H1  UNL     1      12.822   0.304 107.724  1.00  0.00     0.193 HD
BRANCH  21  23
HETATM   23  O6  UNL     1      12.359   0.088 109.709  1.00  0.00    -0.290 OA
ATOM     24  H6  UNL     1      13.070   0.358 110.279  1.00  0.00     0.244 HD
ENDBRANCH  21  23
ENDBRANCH  14  19
ENDBRANCH  11  12
ENDBRANCH   3  11
BRANCH   3  25
HETATM   25  C13 UNL     1       8.722   6.407 106.327  1.00  0.00     0.152 C 
HETATM   26  N3  UNL     1       8.244   7.603 106.333  1.00  0.00    -0.387 N 
ATOM     27  H32 UNL     1       8.445   8.174 105.512  1.00  0.00     0.157 HD
ATOM     28  H31 UNL     1       7.691   7.934 107.123  1.00  0.00     0.157 HD
HETATM   29  N4  UNL     1       8.440   5.607 107.474  1.00  0.00    -0.082 NA
ENDBRANCH   3  25
BRANCH   1  30
HETATM   30  C2  UNL     1      10.757   6.110 102.426  1.00  0.00     0.325 C 
HETATM   31  O2  UNL     1      10.786   5.827 101.171  1.00  0.00    -0.259 OA
BRANCH  30  32
HETATM   32  O1  UNL     1      11.963   5.940 103.060  1.00  0.00    -0.322 OA
HETATM   33  C1  UNL     1      13.115   6.697 102.753  1.00  0.00     0.213 C 
ENDBRANCH  30  32
ENDBRANCH   1  30
BRANCH   1  34
HETATM   34  O3  UNL     1       8.871   7.613 102.389  1.00  0.00    -0.350 OA
HETATM   35  C4  UNL     1       9.295   8.871 102.684  1.00  0.00     0.206 C 
ENDBRANCH   1  34
BRANCH  10  36
HETATM   36  O7  UNL     1       8.606   4.483 102.101  1.00  0.00    -0.376 OA
HETATM   37  C18 UNL     1       7.659   4.526 101.125  1.00  0.00     0.202 C 
ENDBRANCH  10  36
TORSDOF 9
ENDMDL
