MODEL 1
REMARK VINA RESULT: -8.451545490      0.000      0.000
REMARK  8 active torsions:
REMARK  status: ('A' for Active; 'I' for Inactive)
REMARK    1  A    between atoms: C7_14  and  C8_15 
REMARK       I    between atoms: C8_15  and  N4_17 
REMARK    2  A    between atoms: N4_17  and  N5_19 
REMARK    3  A    between atoms: C10_26  and  C11_27 
REMARK    4  A    between atoms: C11_27  and  N8_28 
REMARK    5  A    between atoms: C11_27  and  C12_32 
REMARK    6  A    between atoms: C12_32  and  C14_34 
REMARK    7  A    between atoms: C14_34  and  C15_35 
REMARK    8  A    between atoms: C15_35  and  O2_36 
ROOT
HETATM    1  C8  UNL     1      10.181   3.090 105.244  1.00  0.00     0.276 C 
HETATM    2  O1  UNL     1       9.121   2.760 104.602  1.00  0.00    -0.266 OA
HETATM    3  N4  UNL     1      11.003   4.048 104.606  1.00  0.00    -0.264 N 
ATOM      4  H4  UNL     1      11.865   4.346 105.064  1.00  0.00     0.190 HD
ENDROOT
BRANCH   3   5
HETATM    5  N5  UNL     1      10.664   4.604 103.354  1.00  0.00    -0.276 N 
HETATM    6  C9  UNL     1      11.416   5.582 102.939  1.00  0.00     0.180 A 
HETATM    7  N6  UNL     1      12.471   6.145 103.527  1.00  0.00    -0.278 N 
HETATM    8  S1  UNL     1      11.314   6.497 101.484  1.00  0.00    -0.034 SA
HETATM    9  N7  UNL     1      13.070   7.099 102.946  1.00  0.00    -0.294 N 
ATOM     10  H6  UNL     1      12.793   5.811 104.436  1.00  0.00     0.189 HD
HETATM   11  C10 UNL     1      12.648   7.528 101.766  1.00  0.00     0.100 A 
ATOM     12  H7  UNL     1      13.878   7.536 103.388  1.00  0.00     0.187 HD
ATOM     13  H5  UNL     1       9.875   4.259 102.806  1.00  0.00     0.189 HD
BRANCH  11  14
HETATM   14  C11 UNL     1      13.231   8.637 100.923  1.00  0.00     0.245 C 
BRANCH  14  15
HETATM   15  N8  UNL     1      12.085   9.408 100.476  1.00  0.00    -0.069 N 
ATOM     16  H83 UNL     1      11.347   8.845 100.055  1.00  0.00     0.275 HD
ATOM     17  H82 UNL     1      11.522   9.790 101.235  1.00  0.00     0.275 HD
ATOM     18  H81 UNL     1      12.472  10.116  99.851  1.00  0.00     0.275 HD
ENDBRANCH  14  15
BRANCH  14  19
HETATM   19  C12 UNL     1      13.887   8.081  99.696  1.00  0.00     0.020 C 
HETATM   20  C13 UNL     1      12.844   8.160  98.582  1.00  0.00     0.012 C 
BRANCH  19  21
HETATM   21  C14 UNL     1      14.253   6.628  99.900  1.00  0.00     0.033 C 
BRANCH  21  22
HETATM   22  C15 UNL     1      15.251   6.147  98.890  1.00  0.00     0.164 C 
BRANCH  22  23
HETATM   23  O2  UNL     1      15.050   4.825  98.525  1.00  0.00    -0.401 OA
ATOM     24  H2  UNL     1      15.802   4.274  98.710  1.00  0.00     0.209 HD
ENDBRANCH  22  23
ENDBRANCH  21  22
ENDBRANCH  19  21
ENDBRANCH  14  19
ENDBRANCH  11  14
ENDBRANCH   3   5
BRANCH   1  25
HETATM   25  C7  UNL     1      10.546   2.540 106.528  1.00  0.00     0.113 C 
HETATM   26  C5  UNL     1       9.744   2.801 107.641  1.00  0.00     0.004 C 
HETATM   27  C4  UNL     1      10.030   2.519 108.982  1.00  0.00     0.121 C 
HETATM   28  C6  UNL     1       8.440   3.422 107.406  1.00  0.00     0.053 C 
HETATM   29  N2  UNL     1      10.812   1.499 109.415  1.00  0.00    -0.174 N 
HETATM   30  N3  UNL     1       9.502   3.294 109.864  1.00  0.00    -0.385 N 
HETATM   31  C3  UNL     1      11.589   0.639 108.725  1.00  0.00     0.709 A 
ATOM     32  H2  UNL     1      10.813   1.361 110.425  1.00  0.00     0.186 HD
HETATM   33  N1  UNL     1      12.099  -0.509 109.163  1.00  0.00    -0.178 N 
HETATM   34  N9  UNL     1      11.998   0.784 107.452  1.00  0.00    -0.045 N 
HETATM   35  C2  UNL     1      12.827  -1.087 108.169  1.00  0.00     0.109 A 
ATOM     36  H1  UNL     1      11.965  -0.896 110.097  1.00  0.00     0.185 HD
HETATM   37  C1  UNL     1      13.564  -2.376 108.239  1.00  0.00     0.091 C 
HETATM   38  N10 UNL     1      12.739  -0.251 107.120  1.00  0.00    -0.265 N 
ATOM     39  H10 UNL     1      13.178  -0.395 106.210  1.00  0.00     0.189 HD
HETATM   40  C16 UNL     1      11.737   1.804 106.581  1.00  0.00     0.298 C 
HETATM   41  O3  UNL     1      12.644   2.096 105.769  1.00  0.00    -0.264 OA
ATOM     42  H32 UNL     1       9.710   3.089 110.841  1.00  0.00     0.157 HD
ATOM     43  H31 UNL     1       8.914   4.061 109.538  1.00  0.00     0.157 HD
ENDBRANCH   1  25
TORSDOF 8
ENDMDL
MODEL 2
REMARK VINA RESULT: -8.316007086      1.676      3.035
REMARK  8 active torsions:
REMARK  status: ('A' for Active; 'I' for Inactive)
REMARK    1  A    between atoms: C7_14  and  C8_15 
REMARK       I    between atoms: C8_15  and  N4_17 
REMARK    2  A    between atoms: N4_17  and  N5_19 
REMARK    3  A    between atoms: C10_26  and  C11_27 
REMARK    4  A    between atoms: C11_27  and  N8_28 
REMARK    5  A    between atoms: C11_27  and  C12_32 
REMARK    6  A    between atoms: C12_32  and  C14_34 
REMARK    7  A    between atoms: C14_34  and  C15_35 
REMARK    8  A    between atoms: C15_35  and  O2_36 
ROOT
HETATM    1  C8  UNL     1       9.861   3.223 106.159  1.00  0.00     0.276 C 
HETATM    2  O1  UNL     1       9.245   2.783 105.124  1.00  0.00    -0.266 OA
HETATM    3  N4  UNL     1       9.953   4.632 106.258  1.00  0.00    -0.264 N 
ATOM      4  H4  UNL     1      10.439   5.043 107.055  1.00  0.00     0.190 HD
ENDROOT
BRANCH   3   5
HETATM    5  N5  UNL     1       9.391   5.483 105.283  1.00  0.00    -0.276 N 
HETATM    6  C9  UNL     1      10.217   5.972 104.403  1.00  0.00     0.180 A 
HETATM    7  N6  UNL     1      11.531   5.786 104.284  1.00  0.00    -0.278 N 
HETATM    8  S1  UNL     1       9.907   7.031 103.082  1.00  0.00    -0.034 SA
HETATM    9  N7  UNL     1      12.157   6.362 103.346  1.00  0.00    -0.294 N 
ATOM     10  H6  UNL     1      12.028   5.185 104.943  1.00  0.00     0.189 HD
HETATM   11  C10 UNL     1      11.507   7.140 102.492  1.00  0.00     0.100 A 
ATOM     12  H7  UNL     1      13.163   6.226 103.247  1.00  0.00     0.187 HD
ATOM     13  H5  UNL     1       8.394   5.704 105.268  1.00  0.00     0.189 HD
BRANCH  11  14
HETATM   14  C11 UNL     1      12.074   7.897 101.316  1.00  0.00     0.245 C 
BRANCH  14  15
HETATM   15  N8  UNL     1      11.287   7.461 100.176  1.00  0.00    -0.069 N 
ATOM     16  H83 UNL     1      11.082   6.462 100.174  1.00  0.00     0.275 HD
ATOM     17  H82 UNL     1      10.318   7.779 100.195  1.00  0.00     0.275 HD
ATOM     18  H81 UNL     1      11.810   7.776  99.359  1.00  0.00     0.275 HD
ENDBRANCH  14  15
BRANCH  14  19
HETATM   19  C12 UNL     1      13.490   7.485 101.052  1.00  0.00     0.020 C 
HETATM   20  C13 UNL     1      14.170   8.690 100.403  1.00  0.00     0.012 C 
BRANCH  19  21
HETATM   21  C14 UNL     1      13.535   6.332 100.075  1.00  0.00     0.033 C 
BRANCH  21  22
HETATM   22  C15 UNL     1      14.804   6.312  99.277  1.00  0.00     0.164 C 
BRANCH  22  23
HETATM   23  O2  UNL     1      15.003   5.112  98.613  1.00  0.00    -0.401 OA
ATOM     24  H2  UNL     1      15.379   4.441  99.170  1.00  0.00     0.209 HD
ENDBRANCH  22  23
ENDBRANCH  21  22
ENDBRANCH  19  21
ENDBRANCH  14  19
ENDBRANCH  11  14
ENDBRANCH   3   5
BRANCH   1  25
HETATM   25  C7  UNL     1      10.438   2.372 107.172  1.00  0.00     0.113 C 
HETATM   26  C5  UNL     1      11.623   1.686 106.901  1.00  0.00     0.004 C 
HETATM   27  C4  UNL     1      12.223   0.685 107.674  1.00  0.00     0.121 C 
HETATM   28  C6  UNL     1      12.353   2.047 105.685  1.00  0.00     0.053 C 
HETATM   29  N2  UNL     1      12.119   0.571 109.021  1.00  0.00    -0.174 N 
HETATM   30  N3  UNL     1      12.930  -0.190 107.045  1.00  0.00    -0.385 N 
HETATM   31  C3  UNL     1      11.349   1.246 109.899  1.00  0.00     0.709 A 
ATOM     32  H2  UNL     1      12.721  -0.139 109.438  1.00  0.00     0.186 HD
HETATM   33  N1  UNL     1      11.494   1.298 111.220  1.00  0.00    -0.178 N 
HETATM   34  N9  UNL     1      10.276   2.000 109.597  1.00  0.00    -0.045 N 
HETATM   35  C2  UNL     1      10.517   2.082 111.751  1.00  0.00     0.109 A 
ATOM     36  H1  UNL     1      12.224   0.824 111.752  1.00  0.00     0.185 HD
HETATM   37  C1  UNL     1      10.316   2.403 113.188  1.00  0.00     0.091 C 
HETATM   38  N10 UNL     1       9.779   2.500 110.708  1.00  0.00    -0.265 N 
ATOM     39  H10 UNL     1       8.962   3.109 110.768  1.00  0.00     0.189 HD
HETATM   40  C16 UNL     1       9.725   2.253 108.373  1.00  0.00     0.298 C 
HETATM   41  O3  UNL     1       8.481   2.385 108.332  1.00  0.00    -0.264 OA
ATOM     42  H32 UNL     1      13.367  -0.919 107.608  1.00  0.00     0.157 HD
ATOM     43  H31 UNL     1      13.008  -0.104 106.031  1.00  0.00     0.157 HD
ENDBRANCH   1  25
TORSDOF 8
ENDMDL
MODEL 3
REMARK VINA RESULT: -8.295527224      1.222      1.455
REMARK  8 active torsions:
REMARK  status: ('A' for Active; 'I' for Inactive)
REMARK    1  A    between atoms: C7_14  and  C8_15 
REMARK       I    between atoms: C8_15  and  N4_17 
REMARK    2  A    between atoms: N4_17  and  N5_19 
REMARK    3  A    between atoms: C10_26  and  C11_27 
REMARK    4  A    between atoms: C11_27  and  N8_28 
REMARK    5  A    between atoms: C11_27  and  C12_32 
REMARK    6  A    between atoms: C12_32  and  C14_34 
REMARK    7  A    between atoms: C14_34  and  C15_35 
REMARK    8  A    between atoms: C15_35  and  O2_36 
ROOT
HETATM    1  C8  UNL     1       9.869   3.140 105.766  1.00  0.00     0.276 C 
HETATM    2  O1  UNL     1       9.010   2.605 104.979  1.00  0.00    -0.266 OA
HETATM    3  N4  UNL     1      10.354   4.407 105.365  1.00  0.00    -0.264 N 
ATOM      4  H4  UNL     1      11.047   4.880 105.946  1.00  0.00     0.190 HD
ENDROOT
BRANCH   3   5
HETATM    5  N5  UNL     1       9.907   5.033 104.182  1.00  0.00    -0.276 N 
HETATM    6  C9  UNL     1      10.566   6.093 103.810  1.00  0.00     0.180 A 
HETATM    7  N6  UNL     1      11.612   6.682 104.388  1.00  0.00    -0.278 N 
HETATM    8  S1  UNL     1      10.321   7.109 102.443  1.00  0.00    -0.034 SA
HETATM    9  N7  UNL     1      12.112   7.719 103.858  1.00  0.00    -0.294 N 
ATOM     10  H6  UNL     1      12.008   6.302 105.248  1.00  0.00     0.189 HD
HETATM   11  C10 UNL     1      11.595   8.209 102.740  1.00  0.00     0.100 A 
ATOM     12  H7  UNL     1      12.912   8.178 104.292  1.00  0.00     0.187 HD
ATOM     13  H5  UNL     1       9.114   4.677 103.648  1.00  0.00     0.189 HD
BRANCH  11  14
HETATM   14  C11 UNL     1      12.052   9.420 101.962  1.00  0.00     0.245 C 
BRANCH  14  15
HETATM   15  N8  UNL     1      11.221   9.436 100.773  1.00  0.00    -0.069 N 
ATOM     16  H83 UNL     1      10.517  10.173 100.770  1.00  0.00     0.275 HD
ATOM     17  H82 UNL     1      11.710   9.738  99.930  1.00  0.00     0.275 HD
ATOM     18  H81 UNL     1      10.833   8.494 100.710  1.00  0.00     0.275 HD
ENDBRANCH  14  15
BRANCH  14  19
HETATM   19  C12 UNL     1      13.468   9.250 101.502  1.00  0.00     0.020 C 
HETATM   20  C13 UNL     1      13.918  10.620 100.996  1.00  0.00     0.012 C 
BRANCH  19  21
HETATM   21  C14 UNL     1      13.540   8.272 100.351  1.00  0.00     0.033 C 
BRANCH  21  22
HETATM   22  C15 UNL     1      14.251   7.006 100.726  1.00  0.00     0.164 C 
BRANCH  22  23
HETATM   23  O2  UNL     1      14.530   6.928 102.081  1.00  0.00    -0.401 OA
ATOM     24  H2  UNL     1      15.388   7.272 102.300  1.00  0.00     0.209 HD
ENDBRANCH  22  23
ENDBRANCH  21  22
ENDBRANCH  19  21
ENDBRANCH  14  19
ENDBRANCH  11  14
ENDBRANCH   3   5
BRANCH   1  25
HETATM   25  C7  UNL     1      10.336   2.522 106.985  1.00  0.00     0.113 C 
HETATM   26  C5  UNL     1       9.611   2.693 108.165  1.00  0.00     0.004 C 
HETATM   27  C4  UNL     1       9.999   2.336 109.462  1.00  0.00     0.121 C 
HETATM   28  C6  UNL     1       8.281   3.294 108.062  1.00  0.00     0.053 C 
HETATM   29  N2  UNL     1      10.831   1.312 109.773  1.00  0.00    -0.174 N 
HETATM   30  N3  UNL     1       9.518   3.041 110.426  1.00  0.00    -0.385 N 
HETATM   31  C3  UNL     1      11.575   0.516 108.978  1.00  0.00     0.709 A 
ATOM     32  H2  UNL     1      10.907   1.112 110.771  1.00  0.00     0.186 HD
HETATM   33  N1  UNL     1      12.139  -0.643 109.305  1.00  0.00    -0.178 N 
HETATM   34  N9  UNL     1      11.888   0.750 107.691  1.00  0.00    -0.045 N 
HETATM   35  C2  UNL     1      12.807  -1.140 108.228  1.00  0.00     0.109 A 
ATOM     36  H1  UNL     1      12.081  -1.090 110.220  1.00  0.00     0.185 HD
HETATM   37  C1  UNL     1      13.574  -2.411 108.165  1.00  0.00     0.091 C 
HETATM   38  N10 UNL     1      12.626  -0.242 107.243  1.00  0.00    -0.265 N 
ATOM     39  H10 UNL     1      13.002  -0.319 106.297  1.00  0.00     0.189 HD
HETATM   40  C16 UNL     1      11.544   1.815 106.907  1.00  0.00     0.298 C 
HETATM   41  O3  UNL     1      12.384   2.180 106.054  1.00  0.00    -0.264 OA
ATOM     42  H32 UNL     1       9.800   2.782 111.372  1.00  0.00     0.157 HD
ATOM     43  H31 UNL     1       8.892   3.812 110.191  1.00  0.00     0.157 HD
ENDBRANCH   1  25
TORSDOF 8
ENDMDL
MODEL 4
REMARK VINA RESULT: -8.116692505      1.380      2.774
REMARK  8 active torsions:
REMARK  status: ('A' for Active; 'I' for Inactive)
REMARK    1  A    between atoms: C7_14  and  C8_15 
REMARK       I    between atoms: C8_15  and  N4_17 
REMARK    2  A    between atoms: N4_17  and  N5_19 
REMARK    3  A    between atoms: C10_26  and  C11_27 
REMARK    4  A    between atoms: C11_27  and  N8_28 
REMARK    5  A    between atoms: C11_27  and  C12_32 
REMARK    6  A    between atoms: C12_32  and  C14_34 
REMARK    7  A    between atoms: C14_34  and  C15_35 
REMARK    8  A    between atoms: C15_35  and  O2_36 
ROOT
HETATM    1  C8  UNL     1      10.359   3.622 105.203  1.00  0.00     0.276 C 
HETATM    2  O1  UNL     1       9.600   3.304 104.219  1.00  0.00    -0.266 OA
HETATM    3  N4  UNL     1      10.769   4.975 105.240  1.00  0.00    -0.264 N 
ATOM      4  H4  UNL     1      11.381   5.288 105.995  1.00  0.00     0.190 HD
ENDROOT
BRANCH   3   5
HETATM    5  N5  UNL     1      10.355   5.905 104.263  1.00  0.00    -0.276 N 
HETATM    6  C9  UNL     1      11.302   6.475 103.576  1.00  0.00     0.180 A 
HETATM    7  N6  UNL     1      12.622   6.311 103.660  1.00  0.00    -0.278 N 
HETATM    8  S1  UNL     1      11.188   7.644 102.318  1.00  0.00    -0.034 SA
HETATM    9  N7  UNL     1      13.380   6.972 102.890  1.00  0.00    -0.294 N 
ATOM     10  H6  UNL     1      13.018   5.659 104.337  1.00  0.00     0.189 HD
HETATM   11  C10 UNL     1      12.861   7.818 102.011  1.00  0.00     0.100 A 
ATOM     12  H7  UNL     1      14.391   6.854 102.946  1.00  0.00     0.187 HD
ATOM     13  H5  UNL     1       9.369   6.118 104.104  1.00  0.00     0.189 HD
BRANCH  11  14
HETATM   14  C11 UNL     1      13.594   8.680 101.013  1.00  0.00     0.245 C 
BRANCH  14  15
HETATM   15  N8  UNL     1      12.748   9.846 100.833  1.00  0.00    -0.069 N 
ATOM     16  H83 UNL     1      12.178  10.072 101.647  1.00  0.00     0.275 HD
ATOM     17  H82 UNL     1      13.260  10.728 100.802  1.00  0.00     0.275 HD
ATOM     18  H81 UNL     1      12.208   9.652  99.990  1.00  0.00     0.275 HD
ENDBRANCH  14  15
BRANCH  14  19
HETATM   19  C12 UNL     1      13.680   7.996  99.683  1.00  0.00     0.020 C 
HETATM   20  C13 UNL     1      12.271   8.038  99.090  1.00  0.00     0.012 C 
BRANCH  19  21
HETATM   21  C14 UNL     1      14.080   6.548  99.853  1.00  0.00     0.033 C 
BRANCH  21  22
HETATM   22  C15 UNL     1      15.159   6.139  98.896  1.00  0.00     0.164 C 
BRANCH  22  23
HETATM   23  O2  UNL     1      15.054   4.814  98.502  1.00  0.00    -0.401 OA
ATOM     24  H2  UNL     1      15.068   4.210  99.234  1.00  0.00     0.209 HD
ENDBRANCH  22  23
ENDBRANCH  21  22
ENDBRANCH  19  21
ENDBRANCH  14  19
ENDBRANCH  11  14
ENDBRANCH   3   5
BRANCH   1  25
HETATM   25  C7  UNL     1      10.791   2.690 106.218  1.00  0.00     0.113 C 
HETATM   26  C5  UNL     1      12.013   2.032 106.073  1.00  0.00     0.004 C 
HETATM   27  C4  UNL     1      12.506   0.971 106.841  1.00  0.00     0.121 C 
HETATM   28  C6  UNL     1      12.912   2.496 105.014  1.00  0.00     0.053 C 
HETATM   29  N2  UNL     1      12.203   0.745 108.144  1.00  0.00    -0.174 N 
HETATM   30  N3  UNL     1      13.312   0.154 106.256  1.00  0.00    -0.385 N 
HETATM   31  C3  UNL     1      11.299   1.342 108.948  1.00  0.00     0.709 A 
ATOM     32  H2  UNL     1      12.746   0.004 108.587  1.00  0.00     0.186 HD
HETATM   33  N1  UNL     1      11.244   1.283 110.276  1.00  0.00    -0.178 N 
HETATM   34  N9  UNL     1      10.272   2.116 108.552  1.00  0.00    -0.045 N 
HETATM   35  C2  UNL     1      10.187   2.018 110.717  1.00  0.00     0.109 A 
ATOM     36  H1  UNL     1      11.894   0.769 110.871  1.00  0.00     0.185 HD
HETATM   37  C1  UNL     1       9.768   2.217 112.128  1.00  0.00     0.091 C 
HETATM   38  N10 UNL     1       9.607   2.520 109.612  1.00  0.00    -0.265 N 
ATOM     39  H10 UNL     1       8.782   3.119 109.598  1.00  0.00     0.189 HD
HETATM   40  C16 UNL     1       9.908   2.469 107.283  1.00  0.00     0.298 C 
HETATM   41  O3  UNL     1       8.682   2.601 107.067  1.00  0.00    -0.264 OA
ATOM     42  H32 UNL     1      13.671  -0.619 106.817  1.00  0.00     0.157 HD
ATOM     43  H31 UNL     1      13.539   0.325 105.277  1.00  0.00     0.157 HD
ENDBRANCH   1  25
TORSDOF 8
ENDMDL
MODEL 5
REMARK VINA RESULT: -8.051134688      1.052      1.232
REMARK  8 active torsions:
REMARK  status: ('A' for Active; 'I' for Inactive)
REMARK    1  A    between atoms: C7_14  and  C8_15 
REMARK       I    between atoms: C8_15  and  N4_17 
REMARK    2  A    between atoms: N4_17  and  N5_19 
REMARK    3  A    between atoms: C10_26  and  C11_27 
REMARK    4  A    between atoms: C11_27  and  N8_28 
REMARK    5  A    between atoms: C11_27  and  C12_32 
REMARK    6  A    between atoms: C12_32  and  C14_34 
REMARK    7  A    between atoms: C14_34  and  C15_35 
REMARK    8  A    between atoms: C15_35  and  O2_36 
ROOT
HETATM    1  C8  UNL     1      10.036   3.117 105.301  1.00  0.00     0.276 C 
HETATM    2  O1  UNL     1       9.028   2.697 104.629  1.00  0.00    -0.266 OA
HETATM    3  N4  UNL     1      10.770   4.168 104.703  1.00  0.00    -0.264 N 
ATOM      4  H4  UNL     1      11.589   4.539 105.186  1.00  0.00     0.190 HD
ENDROOT
BRANCH   3   5
HETATM    5  N5  UNL     1      10.400   4.717 103.456  1.00  0.00    -0.276 N 
HETATM    6  C9  UNL     1      11.270   5.510 102.899  1.00  0.00     0.180 A 
HETATM    7  N6  UNL     1      12.472   5.885 103.335  1.00  0.00    -0.278 N 
HETATM    8  S1  UNL     1      11.177   6.355 101.402  1.00  0.00    -0.034 SA
HETATM    9  N7  UNL     1      13.169   6.675 102.631  1.00  0.00    -0.294 N 
ATOM     10  H6  UNL     1      12.827   5.540 104.227  1.00  0.00     0.189 HD
HETATM   11  C10 UNL     1      12.704   7.120 101.473  1.00  0.00     0.100 A 
ATOM     12  H7  UNL     1      14.090   6.969 102.957  1.00  0.00     0.187 HD
ATOM     13  H5  UNL     1       9.504   4.506 103.018  1.00  0.00     0.189 HD
BRANCH  11  14
HETATM   14  C11 UNL     1      13.384   8.052 100.500  1.00  0.00     0.245 C 
BRANCH  14  15
HETATM   15  N8  UNL     1      12.371   9.030 100.148  1.00  0.00    -0.069 N 
ATOM     16  H83 UNL     1      12.696   9.748  99.501  1.00  0.00     0.275 HD
ATOM     17  H82 UNL     1      11.630   8.663  99.551  1.00  0.00     0.275 HD
ATOM     18  H81 UNL     1      12.039   9.398 101.041  1.00  0.00     0.275 HD
ENDBRANCH  14  15
BRANCH  14  19
HETATM   19  C12 UNL     1      13.747   7.329  99.239  1.00  0.00     0.020 C 
HETATM   20  C13 UNL     1      15.105   6.676  99.499  1.00  0.00     0.012 C 
BRANCH  19  21
HETATM   21  C14 UNL     1      13.900   8.302  98.092  1.00  0.00     0.033 C 
BRANCH  21  22
HETATM   22  C15 UNL     1      15.095   7.993  97.241  1.00  0.00     0.164 C 
BRANCH  22  23
HETATM   23  O2  UNL     1      15.677   9.129  96.700  1.00  0.00    -0.401 OA
ATOM     24  H2  UNL     1      16.587   8.997  96.460  1.00  0.00     0.209 HD
ENDBRANCH  22  23
ENDBRANCH  21  22
ENDBRANCH  19  21
ENDBRANCH  14  19
ENDBRANCH  11  14
ENDBRANCH   3   5
BRANCH   1  25
HETATM   25  C7  UNL     1      10.430   2.575 106.580  1.00  0.00     0.113 C 
HETATM   26  C5  UNL     1       9.647   2.833 107.707  1.00  0.00     0.004 C 
HETATM   27  C4  UNL     1       9.961   2.559 109.043  1.00  0.00     0.121 C 
HETATM   28  C6  UNL     1       8.333   3.442 107.494  1.00  0.00     0.053 C 
HETATM   29  N2  UNL     1      10.760   1.548 109.465  1.00  0.00    -0.174 N 
HETATM   30  N3  UNL     1       9.441   3.332 109.932  1.00  0.00    -0.385 N 
HETATM   31  C3  UNL     1      11.531   0.691 108.764  1.00  0.00     0.709 A 
ATOM     32  H2  UNL     1      10.780   1.413 110.476  1.00  0.00     0.186 HD
HETATM   33  N1  UNL     1      12.060  -0.450 109.196  1.00  0.00    -0.178 N 
HETATM   34  N9  UNL     1      11.915   0.836 107.483  1.00  0.00    -0.045 N 
HETATM   35  C2  UNL     1      12.775  -1.025 108.191  1.00  0.00     0.109 A 
ATOM     36  H1  UNL     1      11.947  -0.835 110.134  1.00  0.00     0.185 HD
HETATM   37  C1  UNL     1      13.524  -2.307 108.253  1.00  0.00     0.091 C 
HETATM   38  N10 UNL     1      12.659  -0.194 107.141  1.00  0.00    -0.265 N 
ATOM     39  H10 UNL     1      13.083  -0.337 106.224  1.00  0.00     0.189 HD
HETATM   40  C16 UNL     1      11.628   1.850 106.613  1.00  0.00     0.298 C 
HETATM   41  O3  UNL     1      12.518   2.147 105.784  1.00  0.00    -0.264 OA
ATOM     42  H32 UNL     1       9.670   3.132 110.906  1.00  0.00     0.157 HD
ATOM     43  H31 UNL     1       8.840   4.093 109.614  1.00  0.00     0.157 HD
ENDBRANCH   1  25
TORSDOF 8
ENDMDL
