MODEL 1
REMARK VINA RESULT: -7.770648558      0.000      0.000
REMARK  11 active torsions:
REMARK  status: ('A' for Active; 'I' for Inactive)
REMARK    1  A    between atoms: C3_5  and  N2_6 
REMARK    2  A    between atoms: N4_11  and  C5_12 
REMARK    3  A    between atoms: C5_12  and  C6_13 
REMARK    4  A    between atoms: C6_13  and  C7_15 
REMARK    5  A    between atoms: C10_18  and  S1_19 
REMARK    6  A    between atoms: S1_19  and  N5_22 
REMARK    7  A    between atoms: C12_24  and  C13_25 
REMARK    8  A    between atoms: C13_25  and  N6_26 
REMARK    9  A    between atoms: N6_26  and  O4_27 
REMARK   10  A    between atoms: C14_29  and  N7_30 
REMARK   11  A    between atoms: C15_35  and  N9_36 
ROOT
HETATM    1  C7  UNL     1       9.956   4.266 104.655  1.00  0.00     0.011 A 
HETATM    2  C8  UNL     1      10.686   5.424 104.814  1.00  0.00     0.017 A 
HETATM    3  C9  UNL     1      10.592   6.508 103.967  1.00  0.00     0.026 A 
HETATM    4  C10 UNL     1       9.739   6.455 102.907  1.00  0.00     0.080 A 
HETATM    5  C16 UNL     1       8.983   5.289 102.720  1.00  0.00     0.026 A 
HETATM    6  C17 UNL     1       9.090   4.220 103.574  1.00  0.00     0.017 A 
ENDROOT
BRANCH   4   7
HETATM    7  S1  UNL     1       9.503   7.721 101.756  1.00  0.00     0.282 S 
HETATM    8  O2  UNL     1       9.316   9.015 102.521  1.00  0.00    -0.199 OA
HETATM    9  O3  UNL     1       8.177   7.463 101.080  1.00  0.00    -0.199 OA
BRANCH   7  10
HETATM   10  N5  UNL     1      10.742   7.877 100.583  1.00  0.00    -0.077 N 
HETATM   11  C11 UNL     1      11.825   7.056 100.743  1.00  0.00     0.146 A 
HETATM   12  C12 UNL     1      12.914   7.160  99.897  1.00  0.00     0.057 A 
HETATM   13  C14 UNL     1      12.851   8.110  98.907  1.00  0.00     0.129 A 
HETATM   14  N8  UNL     1      11.777   8.907  98.765  1.00  0.00    -0.175 N 
HETATM   15  C15 UNL     1      10.702   8.791  99.613  1.00  0.00     0.693 A 
ATOM     16  H8  UNL     1      11.760   9.603  98.020  1.00  0.00     0.186 HD
BRANCH  12  17
HETATM   17  C13 UNL     1      14.076   6.303 100.042  1.00  0.00     0.234 C 
BRANCH  17  18
HETATM   18  N6  UNL     1      14.659   5.634  99.246  1.00  0.00    -0.296 NA
BRANCH  18  19
HETATM   19  O4  UNL     1      15.052   4.680  98.510  1.00  0.00    -0.219 OA
ATOM     20  H4  UNL     1      15.468   4.160  97.832  1.00  0.00     0.261 HD
ENDBRANCH  18  19
ENDBRANCH  17  18
ENDBRANCH  12  17
BRANCH  13  21
HETATM   21  N7  UNL     1      13.841   8.243  98.099  1.00  0.00    -0.384 N 
ATOM     22  H72 UNL     1      14.788   8.296  98.476  1.00  0.00     0.157 HD
ATOM     23  H71 UNL     1      13.663   8.291  97.095  1.00  0.00     0.157 HD
ENDBRANCH  13  21
BRANCH  15  24
HETATM   24  N9  UNL     1       9.674   9.518  99.396  1.00  0.00    -0.233 N 
ATOM     25  H92 UNL     1       8.762   9.065  99.341  1.00  0.00     0.174 HD
ATOM     26  H91 UNL     1       9.725  10.535  99.333  1.00  0.00     0.174 HD
ENDBRANCH  15  24
ENDBRANCH   7  10
ENDBRANCH   4   7
BRANCH   1  27
HETATM   27  C6  UNL     1      10.066   3.127 105.560  1.00  0.00     0.179 C 
HETATM   28  O1  UNL     1       9.493   2.066 105.288  1.00  0.00    -0.290 OA
BRANCH  27  29
HETATM   29  C5  UNL     1      10.886   3.320 106.791  1.00  0.00     0.235 C 
BRANCH  29  30
HETATM   30  N4  UNL     1      11.551   2.067 107.073  1.00  0.00    -0.257 N 
HETATM   31  C2  UNL     1      12.528   1.561 106.297  1.00  0.00     0.111 A 
HETATM   32  C1  UNL     1      13.086   2.180 105.045  1.00  0.00     0.091 C 
HETATM   33  N1  UNL     1      12.916   0.399 106.844  1.00  0.00    -0.178 N 
HETATM   34  C3  UNL     1      12.192   0.175 107.953  1.00  0.00     0.693 A 
ATOM     35  H1  UNL     1      13.643  -0.216 106.478  1.00  0.00     0.185 HD
HETATM   36  N3  UNL     1      11.357   1.222 108.070  1.00  0.00    -0.125 N 
HETATM   37  C4  UNL     1      10.370   1.438 109.116  1.00  0.00     0.198 C 
BRANCH  34  38
HETATM   38  N2  UNL     1      12.285  -0.857 108.755  1.00  0.00    -0.233 N 
ATOM     39  H22 UNL     1      12.776  -0.900 109.647  1.00  0.00     0.174 HD
ATOM     40  H21 UNL     1      11.877  -1.781 108.611  1.00  0.00     0.174 HD
ENDBRANCH  34  38
ENDBRANCH  29  30
ENDBRANCH  27  29
ENDBRANCH   1  27
TORSDOF 11
ENDMDL
MODEL 2
REMARK VINA RESULT: -7.748148235      2.595      9.376
REMARK  11 active torsions:
REMARK  status: ('A' for Active; 'I' for Inactive)
REMARK    1  A    between atoms: C3_5  and  N2_6 
REMARK    2  A    between atoms: N4_11  and  C5_12 
REMARK    3  A    between atoms: C5_12  and  C6_13 
REMARK    4  A    between atoms: C6_13  and  C7_15 
REMARK    5  A    between atoms: C10_18  and  S1_19 
REMARK    6  A    between atoms: S1_19  and  N5_22 
REMARK    7  A    between atoms: C12_24  and  C13_25 
REMARK    8  A    between atoms: C13_25  and  N6_26 
REMARK    9  A    between atoms: N6_26  and  O4_27 
REMARK   10  A    between atoms: C14_29  and  N7_30 
REMARK   11  A    between atoms: C15_35  and  N9_36 
ROOT
HETATM    1  C7  UNL     1      11.622   5.302 103.549  1.00  0.00     0.011 A 
HETATM    2  C8  UNL     1      11.440   3.948 103.735  1.00  0.00     0.017 A 
HETATM    3  C9  UNL     1      10.814   3.407 104.838  1.00  0.00     0.026 A 
HETATM    4  C10 UNL     1      10.344   4.234 105.812  1.00  0.00     0.080 A 
HETATM    5  C16 UNL     1      10.515   5.616 105.650  1.00  0.00     0.026 A 
HETATM    6  C17 UNL     1      11.140   6.137 104.545  1.00  0.00     0.017 A 
ENDROOT
BRANCH   4   7
HETATM    7  S1  UNL     1       9.540   3.719 107.252  1.00  0.00     0.282 S 
HETATM    8  O2  UNL     1       8.108   3.384 106.889  1.00  0.00    -0.199 OA
HETATM    9  O3  UNL     1       9.450   4.920 108.162  1.00  0.00    -0.199 OA
BRANCH   7  10
HETATM   10  N5  UNL     1      10.285   2.413 108.071  1.00  0.00    -0.077 N 
HETATM   11  C11 UNL     1      11.299   1.784 107.401  1.00  0.00     0.146 A 
HETATM   12  C12 UNL     1      11.912   0.668 107.942  1.00  0.00     0.057 A 
HETATM   13  C14 UNL     1      11.458   0.235 109.164  1.00  0.00     0.129 A 
HETATM   14  N8  UNL     1      10.461   0.867 109.809  1.00  0.00    -0.175 N 
HETATM   15  C15 UNL     1       9.863   1.975 109.258  1.00  0.00     0.693 A 
ATOM     16  H8  UNL     1      10.147   0.520 110.715  1.00  0.00     0.186 HD
BRANCH  12  17
HETATM   17  C13 UNL     1      12.988  -0.019 107.255  1.00  0.00     0.234 C 
BRANCH  17  18
HETATM   18  N6  UNL     1      13.345  -1.156 107.298  1.00  0.00    -0.296 NA
BRANCH  18  19
HETATM   19  O4  UNL     1      13.686  -2.312 107.688  1.00  0.00    -0.219 OA
ATOM     20  H4  UNL     1      13.830  -3.249 107.754  1.00  0.00     0.261 HD
ENDBRANCH  18  19
ENDBRANCH  17  18
ENDBRANCH  12  17
BRANCH  13  21
HETATM   21  N7  UNL     1      11.997  -0.800 109.704  1.00  0.00    -0.384 N 
ATOM     22  H72 UNL     1      11.618  -1.724 109.497  1.00  0.00     0.157 HD
ATOM     23  H71 UNL     1      12.794  -0.678 110.330  1.00  0.00     0.157 HD
ENDBRANCH  13  21
BRANCH  15  24
HETATM   24  N9  UNL     1       8.971   2.586 109.938  1.00  0.00    -0.233 N 
ATOM     25  H92 UNL     1       8.078   2.796 109.492  1.00  0.00     0.174 HD
ATOM     26  H91 UNL     1       9.097   2.821 110.923  1.00  0.00     0.174 HD
ENDBRANCH  15  24
ENDBRANCH   7  10
ENDBRANCH   4   7
BRANCH   1  27
HETATM   27  C6  UNL     1      12.285   5.861 102.376  1.00  0.00     0.179 C 
HETATM   28  O1  UNL     1      12.052   5.394 101.255  1.00  0.00    -0.290 OA
BRANCH  27  29
HETATM   29  C5  UNL     1      13.229   6.993 102.608  1.00  0.00     0.235 C 
BRANCH  29  30
HETATM   30  N4  UNL     1      13.042   7.944 101.535  1.00  0.00    -0.257 N 
HETATM   31  C2  UNL     1      12.131   8.935 101.578  1.00  0.00     0.111 A 
HETATM   32  C1  UNL     1      11.178   9.224 102.707  1.00  0.00     0.091 C 
HETATM   33  N1  UNL     1      12.226   9.621 100.429  1.00  0.00    -0.178 N 
HETATM   34  C3  UNL     1      13.186   9.069  99.669  1.00  0.00     0.693 A 
ATOM     35  H1  UNL     1      11.661  10.430 100.173  1.00  0.00     0.185 HD
HETATM   36  N3  UNL     1      13.673   8.035 100.377  1.00  0.00    -0.125 N 
HETATM   37  C4  UNL     1      14.732   7.124  99.975  1.00  0.00     0.198 C 
BRANCH  34  38
HETATM   38  N2  UNL     1      13.567   9.462  98.479  1.00  0.00    -0.233 N 
ATOM     39  H22 UNL     1      14.356  10.069  98.255  1.00  0.00     0.174 HD
ATOM     40  H21 UNL     1      13.133   9.221  97.588  1.00  0.00     0.174 HD
ENDBRANCH  34  38
ENDBRANCH  29  30
ENDBRANCH  27  29
ENDBRANCH   1  27
TORSDOF 11
ENDMDL
MODEL 3
REMARK VINA RESULT: -7.732456317      1.375      2.054
REMARK  11 active torsions:
REMARK  status: ('A' for Active; 'I' for Inactive)
REMARK    1  A    between atoms: C3_5  and  N2_6 
REMARK    2  A    between atoms: N4_11  and  C5_12 
REMARK    3  A    between atoms: C5_12  and  C6_13 
REMARK    4  A    between atoms: C6_13  and  C7_15 
REMARK    5  A    between atoms: C10_18  and  S1_19 
REMARK    6  A    between atoms: S1_19  and  N5_22 
REMARK    7  A    between atoms: C12_24  and  C13_25 
REMARK    8  A    between atoms: C13_25  and  N6_26 
REMARK    9  A    between atoms: N6_26  and  O4_27 
REMARK   10  A    between atoms: C14_29  and  N7_30 
REMARK   11  A    between atoms: C15_35  and  N9_36 
ROOT
HETATM    1  C7  UNL     1      11.507   3.688 104.710  1.00  0.00     0.011 A 
HETATM    2  C8  UNL     1      11.506   3.650 103.332  1.00  0.00     0.017 A 
HETATM    3  C9  UNL     1      11.202   4.736 102.539  1.00  0.00     0.026 A 
HETATM    4  C10 UNL     1      10.880   5.922 103.125  1.00  0.00     0.080 A 
HETATM    5  C16 UNL     1      10.873   5.990 104.525  1.00  0.00     0.026 A 
HETATM    6  C17 UNL     1      11.179   4.899 105.299  1.00  0.00     0.017 A 
ENDROOT
BRANCH   4   7
HETATM    7  S1  UNL     1      10.475   7.372 102.278  1.00  0.00     0.282 S 
HETATM    8  O2  UNL     1      10.533   8.518 103.267  1.00  0.00    -0.199 OA
HETATM    9  O3  UNL     1       9.023   7.261 101.881  1.00  0.00    -0.199 OA
BRANCH   7  10
HETATM   10  N5  UNL     1      11.439   7.702 100.901  1.00  0.00    -0.077 N 
HETATM   11  C11 UNL     1      12.561   6.932 100.757  1.00  0.00     0.146 A 
HETATM   12  C12 UNL     1      13.448   7.172  99.722  1.00  0.00     0.057 A 
HETATM   13  C14 UNL     1      13.147   8.202  98.866  1.00  0.00     0.129 A 
HETATM   14  N8  UNL     1      12.039   8.947  99.023  1.00  0.00    -0.175 N 
HETATM   15  C15 UNL     1      11.167   8.696 100.055  1.00  0.00     0.693 A 
ATOM     16  H8  UNL     1      11.843   9.706  98.370  1.00  0.00     0.186 HD
BRANCH  12  17
HETATM   17  C13 UNL     1      14.645   6.373  99.544  1.00  0.00     0.234 C 
BRANCH  17  18
HETATM   18  N6  UNL     1      14.853   5.415  98.864  1.00  0.00    -0.296 NA
BRANCH  18  19
HETATM   19  O4  UNL     1      15.201   4.272  98.443  1.00  0.00    -0.219 OA
ATOM     20  H4  UNL     1      15.299   3.335  98.317  1.00  0.00     0.261 HD
ENDBRANCH  18  19
ENDBRANCH  17  18
ENDBRANCH  12  17
BRANCH  13  21
HETATM   21  N7  UNL     1      13.944   8.463  97.891  1.00  0.00    -0.384 N 
ATOM     22  H72 UNL     1      14.951   8.431  98.050  1.00  0.00     0.157 HD
ATOM     23  H71 UNL     1      13.555   8.695  96.977  1.00  0.00     0.157 HD
ENDBRANCH  13  21
BRANCH  15  24
HETATM   24  N9  UNL     1      10.090   9.380 100.124  1.00  0.00    -0.233 N 
ATOM     25  H92 UNL     1      10.103  10.255 100.648  1.00  0.00     0.174 HD
ATOM     26  H91 UNL     1       9.240   9.115  99.628  1.00  0.00     0.174 HD
ENDBRANCH  15  24
ENDBRANCH   7  10
ENDBRANCH   4   7
BRANCH   1  27
HETATM   27  C6  UNL     1      11.832   2.530 105.537  1.00  0.00     0.179 C 
HETATM   28  O1  UNL     1      13.014   2.248 105.765  1.00  0.00    -0.290 OA
BRANCH  27  29
HETATM   29  C5  UNL     1      10.685   1.739 106.071  1.00  0.00     0.235 C 
BRANCH  29  30
HETATM   30  N4  UNL     1      10.837   1.665 107.507  1.00  0.00    -0.257 N 
HETATM   31  C2  UNL     1      10.191   2.485 108.359  1.00  0.00     0.111 A 
HETATM   32  C1  UNL     1       9.231   3.582 107.988  1.00  0.00     0.091 C 
HETATM   33  N1  UNL     1      10.560   2.144 109.603  1.00  0.00    -0.178 N 
HETATM   34  C3  UNL     1      11.428   1.121 109.537  1.00  0.00     0.693 A 
ATOM     35  H1  UNL     1      10.234   2.589 110.461  1.00  0.00     0.185 HD
HETATM   36  N3  UNL     1      11.581   0.846 108.230  1.00  0.00    -0.125 N 
HETATM   37  C4  UNL     1      12.425  -0.184 107.648  1.00  0.00     0.198 C 
BRANCH  34  38
HETATM   38  N2  UNL     1      12.007   0.518 110.545  1.00  0.00    -0.233 N 
ATOM     39  H22 UNL     1      11.697   0.509 111.517  1.00  0.00     0.174 HD
ATOM     40  H21 UNL     1      12.860  -0.040 110.514  1.00  0.00     0.174 HD
ENDBRANCH  34  38
ENDBRANCH  29  30
ENDBRANCH  27  29
ENDBRANCH   1  27
TORSDOF 11
ENDMDL
MODEL 4
REMARK VINA RESULT: -7.688086918      2.643      9.182
REMARK  11 active torsions:
REMARK  status: ('A' for Active; 'I' for Inactive)
REMARK    1  A    between atoms: C3_5  and  N2_6 
REMARK    2  A    between atoms: N4_11  and  C5_12 
REMARK    3  A    between atoms: C5_12  and  C6_13 
REMARK    4  A    between atoms: C6_13  and  C7_15 
REMARK    5  A    between atoms: C10_18  and  S1_19 
REMARK    6  A    between atoms: S1_19  and  N5_22 
REMARK    7  A    between atoms: C12_24  and  C13_25 
REMARK    8  A    between atoms: C13_25  and  N6_26 
REMARK    9  A    between atoms: N6_26  and  O4_27 
REMARK   10  A    between atoms: C14_29  and  N7_30 
REMARK   11  A    between atoms: C15_35  and  N9_36 
ROOT
HETATM    1  C7  UNL     1      10.992   5.363 104.826  1.00  0.00     0.011 A 
HETATM    2  C8  UNL     1      10.204   5.852 105.846  1.00  0.00     0.017 A 
HETATM    3  C9  UNL     1       9.795   5.097 106.924  1.00  0.00     0.026 A 
HETATM    4  C10 UNL     1      10.177   3.792 107.009  1.00  0.00     0.080 A 
HETATM    5  C16 UNL     1      10.979   3.268 105.985  1.00  0.00     0.026 A 
HETATM    6  C17 UNL     1      11.376   4.035 104.919  1.00  0.00     0.017 A 
ENDROOT
BRANCH   4   7
HETATM    7  S1  UNL     1       9.753   2.713 108.289  1.00  0.00     0.282 S 
HETATM    8  O2  UNL     1       8.324   2.265 108.064  1.00  0.00    -0.199 OA
HETATM    9  O3  UNL     1       9.721   3.527 109.561  1.00  0.00    -0.199 OA
BRANCH   7  10
HETATM   10  N5  UNL     1      10.794   1.366 108.477  1.00  0.00    -0.077 N 
HETATM   11  C11 UNL     1      11.725   1.184 107.490  1.00  0.00     0.146 A 
HETATM   12  C12 UNL     1      12.559   0.081 107.508  1.00  0.00     0.057 A 
HETATM   13  C14 UNL     1      12.408  -0.802 108.548  1.00  0.00     0.129 A 
HETATM   14  N8  UNL     1      11.489  -0.607 109.510  1.00  0.00    -0.175 N 
HETATM   15  C15 UNL     1      10.667   0.495 109.479  1.00  0.00     0.693 A 
ATOM     16  H8  UNL     1      11.401  -1.281 110.270  1.00  0.00     0.186 HD
BRANCH  12  17
HETATM   17  C13 UNL     1      13.554  -0.137 106.476  1.00  0.00     0.234 C 
BRANCH  17  18
HETATM   18  N6  UNL     1      14.267   0.627 105.901  1.00  0.00    -0.296 NA
BRANCH  18  19
HETATM   19  O4  UNL     1      15.192   1.438 105.597  1.00  0.00    -0.219 OA
ATOM     20  H4  UNL     1      15.834   1.957 105.127  1.00  0.00     0.261 HD
ENDBRANCH  18  19
ENDBRANCH  17  18
ENDBRANCH  12  17
BRANCH  13  21
HETATM   21  N7  UNL     1      13.161  -1.843 108.604  1.00  0.00    -0.384 N 
ATOM     22  H72 UNL     1      13.918  -1.945 107.928  1.00  0.00     0.157 HD
ATOM     23  H71 UNL     1      12.989  -2.546 109.323  1.00  0.00     0.157 HD
ENDBRANCH  13  21
BRANCH  15  24
HETATM   24  N9  UNL     1       9.859   0.679 110.451  1.00  0.00    -0.233 N 
ATOM     25  H92 UNL     1       8.858   0.683 110.258  1.00  0.00     0.174 HD
ATOM     26  H91 UNL     1      10.175   0.765 111.417  1.00  0.00     0.174 HD
ENDBRANCH  15  24
ENDBRANCH   7  10
ENDBRANCH   4   7
BRANCH   1  27
HETATM   27  C6  UNL     1      11.417   6.175 103.691  1.00  0.00     0.179 C 
HETATM   28  O1  UNL     1      11.517   7.402 103.813  1.00  0.00    -0.290 OA
BRANCH  27  29
HETATM   29  C5  UNL     1      11.713   5.455 102.418  1.00  0.00     0.235 C 
BRANCH  29  30
HETATM   30  N4  UNL     1      11.716   6.434 101.354  1.00  0.00    -0.257 N 
HETATM   31  C2  UNL     1      10.603   6.809 100.694  1.00  0.00     0.111 A 
HETATM   32  C1  UNL     1       9.208   6.299 100.934  1.00  0.00     0.091 C 
HETATM   33  N1  UNL     1      10.965   7.723  99.781  1.00  0.00    -0.178 N 
HETATM   34  C3  UNL     1      12.290   7.922  99.863  1.00  0.00     0.693 A 
ATOM     35  H1  UNL     1      10.335   8.190  99.129  1.00  0.00     0.185 HD
HETATM   36  N3  UNL     1      12.729   7.113 100.843  1.00  0.00    -0.125 N 
HETATM   37  C4  UNL     1      14.098   6.969 101.309  1.00  0.00     0.198 C 
BRANCH  34  38
HETATM   38  N2  UNL     1      13.007   8.741  99.134  1.00  0.00    -0.233 N 
ATOM     39  H22 UNL     1      12.703   9.255  98.307  1.00  0.00     0.174 HD
ATOM     40  H21 UNL     1      13.985   8.992  99.280  1.00  0.00     0.174 HD
ENDBRANCH  34  38
ENDBRANCH  29  30
ENDBRANCH  27  29
ENDBRANCH   1  27
TORSDOF 11
ENDMDL
MODEL 5
REMARK VINA RESULT: -7.676036141      2.633      9.281
REMARK  11 active torsions:
REMARK  status: ('A' for Active; 'I' for Inactive)
REMARK    1  A    between atoms: C3_5  and  N2_6 
REMARK    2  A    between atoms: N4_11  and  C5_12 
REMARK    3  A    between atoms: C5_12  and  C6_13 
REMARK    4  A    between atoms: C6_13  and  C7_15 
REMARK    5  A    between atoms: C10_18  and  S1_19 
REMARK    6  A    between atoms: S1_19  and  N5_22 
REMARK    7  A    between atoms: C12_24  and  C13_25 
REMARK    8  A    between atoms: C13_25  and  N6_26 
REMARK    9  A    between atoms: N6_26  and  O4_27 
REMARK   10  A    between atoms: C14_29  and  N7_30 
REMARK   11  A    between atoms: C15_35  and  N9_36 
ROOT
HETATM    1  C7  UNL     1      11.672   5.311 103.537  1.00  0.00     0.011 A 
HETATM    2  C8  UNL     1      11.578   3.957 103.780  1.00  0.00     0.017 A 
HETATM    3  C9  UNL     1      10.950   3.422 104.885  1.00  0.00     0.026 A 
HETATM    4  C10 UNL     1      10.385   4.257 105.801  1.00  0.00     0.080 A 
HETATM    5  C16 UNL     1      10.465   5.638 105.579  1.00  0.00     0.026 A 
HETATM    6  C17 UNL     1      11.094   6.153 104.474  1.00  0.00     0.017 A 
ENDROOT
BRANCH   4   7
HETATM    7  S1  UNL     1       9.564   3.750 107.234  1.00  0.00     0.282 S 
HETATM    8  O2  UNL     1       8.132   3.428 106.860  1.00  0.00    -0.199 OA
HETATM    9  O3  UNL     1       9.478   4.953 108.143  1.00  0.00    -0.199 OA
BRANCH   7  10
HETATM   10  N5  UNL     1      10.291   2.438 108.062  1.00  0.00    -0.077 N 
HETATM   11  C11 UNL     1      11.301   1.796 107.398  1.00  0.00     0.146 A 
HETATM   12  C12 UNL     1      11.898   0.675 107.946  1.00  0.00     0.057 A 
HETATM   13  C14 UNL     1      11.433   0.250 109.166  1.00  0.00     0.129 A 
HETATM   14  N8  UNL     1      10.441   0.895 109.804  1.00  0.00    -0.175 N 
HETATM   15  C15 UNL     1       9.858   2.008 109.247  1.00  0.00     0.693 A 
ATOM     16  H8  UNL     1      10.118   0.555 110.710  1.00  0.00     0.186 HD
BRANCH  12  17
HETATM   17  C13 UNL     1      12.970  -0.026 107.265  1.00  0.00     0.234 C 
BRANCH  17  18
HETATM   18  N6  UNL     1      13.330  -1.161 107.333  1.00  0.00    -0.296 NA
BRANCH  18  19
HETATM   19  O4  UNL     1      13.680  -2.306 107.748  1.00  0.00    -0.219 OA
ATOM     20  H4  UNL     1      14.097  -3.155 107.847  1.00  0.00     0.261 HD
ENDBRANCH  18  19
ENDBRANCH  17  18
ENDBRANCH  12  17
BRANCH  13  21
HETATM   21  N7  UNL     1      11.958  -0.789 109.712  1.00  0.00    -0.384 N 
ATOM     22  H72 UNL     1      12.973  -0.890 109.714  1.00  0.00     0.157 HD
ATOM     23  H71 UNL     1      11.351  -1.492 110.134  1.00  0.00     0.157 HD
ENDBRANCH  13  21
BRANCH  15  24
HETATM   24  N9  UNL     1       8.969   2.631 109.921  1.00  0.00    -0.233 N 
ATOM     25  H92 UNL     1       9.008   3.650 109.950  1.00  0.00     0.174 HD
ATOM     26  H91 UNL     1       8.195   2.154 110.381  1.00  0.00     0.174 HD
ENDBRANCH  15  24
ENDBRANCH   7  10
ENDBRANCH   4   7
BRANCH   1  27
HETATM   27  C6  UNL     1      12.339   5.863 102.362  1.00  0.00     0.179 C 
HETATM   28  O1  UNL     1      12.032   5.462 101.234  1.00  0.00    -0.290 OA
BRANCH  27  29
HETATM   29  C5  UNL     1      13.377   6.906 102.603  1.00  0.00     0.235 C 
BRANCH  29  30
HETATM   30  N4  UNL     1      13.208   7.931 101.597  1.00  0.00    -0.257 N 
HETATM   31  C2  UNL     1      13.897   7.948 100.440  1.00  0.00     0.111 A 
HETATM   32  C1  UNL     1      14.928   6.945  99.999  1.00  0.00     0.091 C 
HETATM   33  N1  UNL     1      13.496   9.026  99.749  1.00  0.00    -0.178 N 
HETATM   34  C3  UNL     1      12.565   9.681 100.461  1.00  0.00     0.693 A 
ATOM     35  H1  UNL     1      13.843   9.304  98.831  1.00  0.00     0.185 HD
HETATM   36  N3  UNL     1      12.407   8.982 101.598  1.00  0.00    -0.125 N 
HETATM   37  C4  UNL     1      11.505   9.293 102.695  1.00  0.00     0.198 C 
BRANCH  34  38
HETATM   38  N2  UNL     1      11.941  10.779 100.114  1.00  0.00    -0.233 N 
ATOM     39  H22 UNL     1      11.885  11.187  99.181  1.00  0.00     0.174 HD
ATOM     40  H21 UNL     1      11.410  11.399 100.726  1.00  0.00     0.174 HD
ENDBRANCH  34  38
ENDBRANCH  29  30
ENDBRANCH  27  29
ENDBRANCH   1  27
TORSDOF 11
ENDMDL
