MODEL 1
REMARK VINA RESULT: -9.391117507      0.000      0.000
REMARK  8 active torsions:
REMARK  status: ('A' for Active; 'I' for Inactive)
REMARK    1  A    between atoms: N1_1  and  C1_4 
REMARK    2  A    between atoms: C5_10  and  C6_11 
REMARK    3  A    between atoms: C6_11  and  N3_12 
REMARK       I    between atoms: N3_12  and  C7_14 
REMARK    4  A    between atoms: C7_14  and  C8_16 
REMARK    5  A    between atoms: C8_16  and  N4_17 
REMARK    6  A    between atoms: C9_22  and  C10_23 
REMARK    7  A    between atoms: N7_25  and  C12_26 
REMARK    8  A    between atoms: C13_32  and  N10_33 
ROOT
HETATM    1  N4  UNL     1      11.397   5.214 102.768  1.00  0.00    -0.209 N 
HETATM    2  N5  UNL     1      12.310   5.834 103.488  1.00  0.00    -0.224 N 
ATOM      3  H5  UNL     1      12.425   5.748 104.499  1.00  0.00     0.210 HD
HETATM    4  N6  UNL     1      13.065   6.596 102.681  1.00  0.00    -0.267 N 
ATOM      5  H6  UNL     1      13.847   7.185 102.971  1.00  0.00     0.190 HD
HETATM    6  C9  UNL     1      12.618   6.451 101.440  1.00  0.00     0.167 A 
HETATM    7  N13 UNL     1      11.581   5.587 101.526  1.00  0.00    -0.264 N 
ATOM      8  H13 UNL     1      11.021   5.271 100.735  1.00  0.00     0.190 HD
ENDROOT
BRANCH   1   9
HETATM    9  C8  UNL     1      10.374   4.300 103.211  1.00  0.00     0.273 C 
BRANCH   9  10
HETATM   10  C7  UNL     1      10.103   4.401 104.654  1.00  0.00     0.239 C 
HETATM   11  N3  UNL     1      10.615   3.433 105.543  1.00  0.00    -0.355 N 
ATOM     12  H3  UNL     1      11.174   2.666 105.168  1.00  0.00     0.162 HD
HETATM   13  O1  UNL     1       9.419   5.343 105.106  1.00  0.00    -0.272 OA
BRANCH  11  14
HETATM   14  C6  UNL     1      10.372   3.493 106.983  1.00  0.00     0.161 C 
BRANCH  14  15
HETATM   15  C5  UNL     1      10.884   2.235 107.580  1.00  0.00    -0.038 A 
HETATM   16  C4  UNL     1      10.449   1.887 108.861  1.00  0.00     0.011 A 
HETATM   17  C3  UNL     1      10.901   0.718 109.455  1.00  0.00     0.033 A 
HETATM   18  C2  UNL     1      11.779  -0.123 108.804  1.00  0.00     0.076 A 
HETATM   19  N2  UNL     1      12.353  -1.300 109.168  1.00  0.00    -0.190 N 
HETATM   20  C15 UNL     1      12.216   0.208 107.539  1.00  0.00     0.077 A 
HETATM   21  C1  UNL     1      13.143  -1.712 108.151  1.00  0.00     0.676 A 
ATOM     22  H2  UNL     1      12.213  -1.786 110.053  1.00  0.00     0.184 HD
HETATM   23  N14 UNL     1      13.042  -0.787 107.185  1.00  0.00    -0.190 N 
ATOM     24  H14 UNL     1      13.533  -0.835 106.292  1.00  0.00     0.184 HD
HETATM   25  C14 UNL     1      11.758   1.376 106.961  1.00  0.00     0.041 A 
BRANCH  21  26
HETATM   26  N1  UNL     1      13.853  -2.789 108.125  1.00  0.00    -0.234 N 
ATOM     27  H12 UNL     1      14.863  -2.862 108.242  1.00  0.00     0.174 HD
ATOM     28  H11 UNL     1      13.505  -3.738 107.984  1.00  0.00     0.174 HD
ENDBRANCH  21  26
ENDBRANCH  14  15
ENDBRANCH  11  14
ENDBRANCH   9  10
ENDBRANCH   1   9
BRANCH   6  29
HETATM   29  C10 UNL     1      13.108   7.071 100.210  1.00  0.00     0.110 A 
HETATM   30  C11 UNL     1      12.636   8.199  99.577  1.00  0.00     0.150 A 
HETATM   31  N7  UNL     1      13.369   8.429  98.470  1.00  0.00    -0.228 N 
HETATM   32  N11 UNL     1      14.280   7.460  98.416  1.00  0.00    -0.013 NA
HETATM   33  N12 UNL     1      14.130   6.641  99.455  1.00  0.00    -0.279 N 
ATOM     34  H12 UNL     1      14.702   5.818  99.646  1.00  0.00     0.184 HD
BRANCH  31  35
HETATM   35  C12 UNL     1      13.195   9.506  97.541  1.00  0.00     0.193 A 
HETATM   36  N8  UNL     1      12.149  10.330  97.422  1.00  0.00    -0.221 N 
HETATM   37  O2  UNL     1      12.401  11.157  96.462  1.00  0.00    -0.153 OA
ATOM     38  H8  UNL     1      11.301  10.310  97.989  1.00  0.00     0.198 HD
HETATM   39  N9  UNL     1      13.565  10.923  95.937  1.00  0.00    -0.222 N 
HETATM   40  C13 UNL     1      14.107   9.891  96.582  1.00  0.00     0.169 A 
ATOM     41  H9  UNL     1      13.990  11.437  95.166  1.00  0.00     0.198 HD
BRANCH  40  42
HETATM   42  N10 UNL     1      15.273   9.331  96.370  1.00  0.00    -0.381 N 
ATOM     43 2H10 UNL     1      16.124   9.425  96.924  1.00  0.00     0.157 HD
ATOM     44 1H10 UNL     1      15.497   8.703  95.598  1.00  0.00     0.157 HD
ENDBRANCH  40  42
ENDBRANCH  31  35
ENDBRANCH   6  29
TORSDOF 8
ENDMDL
MODEL 2
REMARK VINA RESULT: -9.153344656      1.321      1.729
REMARK  8 active torsions:
REMARK  status: ('A' for Active; 'I' for Inactive)
REMARK    1  A    between atoms: N1_1  and  C1_4 
REMARK    2  A    between atoms: C5_10  and  C6_11 
REMARK    3  A    between atoms: C6_11  and  N3_12 
REMARK       I    between atoms: N3_12  and  C7_14 
REMARK    4  A    between atoms: C7_14  and  C8_16 
REMARK    5  A    between atoms: C8_16  and  N4_17 
REMARK    6  A    between atoms: C9_22  and  C10_23 
REMARK    7  A    between atoms: N7_25  and  C12_26 
REMARK    8  A    between atoms: C13_32  and  N10_33 
ROOT
HETATM    1  N4  UNL     1      11.992   6.239 103.218  1.00  0.00    -0.209 N 
HETATM    2  N5  UNL     1      12.004   7.193 104.127  1.00  0.00    -0.224 N 
ATOM      3  H5  UNL     1      11.750   7.078 105.109  1.00  0.00     0.210 HD
HETATM    4  N6  UNL     1      12.404   8.341 103.556  1.00  0.00    -0.267 N 
ATOM      5  H6  UNL     1      12.505   9.241 104.026  1.00  0.00     0.190 HD
HETATM    6  C9  UNL     1      12.645   8.101 102.273  1.00  0.00     0.167 A 
HETATM    7  N13 UNL     1      12.380   6.787 102.094  1.00  0.00    -0.264 N 
ATOM      8  H13 UNL     1      12.469   6.293 101.206  1.00  0.00     0.190 HD
ENDROOT
BRANCH   1   9
HETATM    9  C8  UNL     1      11.630   4.853 103.378  1.00  0.00     0.273 C 
BRANCH   9  10
HETATM   10  C7  UNL     1      10.758   4.620 104.541  1.00  0.00     0.239 C 
HETATM   11  N3  UNL     1      11.211   3.837 105.623  1.00  0.00    -0.355 N 
ATOM     12  H3  UNL     1      12.149   3.438 105.584  1.00  0.00     0.162 HD
HETATM   13  O1  UNL     1       9.611   5.113 104.582  1.00  0.00    -0.272 OA
BRANCH  11  14
HETATM   14  C6  UNL     1      10.380   3.580 106.799  1.00  0.00     0.161 C 
BRANCH  14  15
HETATM   15  C5  UNL     1      10.867   2.328 107.429  1.00  0.00    -0.038 A 
HETATM   16  C4  UNL     1      10.389   2.000 108.699  1.00  0.00     0.011 A 
HETATM   17  C3  UNL     1      10.815   0.837 109.324  1.00  0.00     0.033 A 
HETATM   18  C2  UNL     1      11.711  -0.015 108.715  1.00  0.00     0.076 A 
HETATM   19  N2  UNL     1      12.268  -1.189 109.114  1.00  0.00    -0.190 N 
HETATM   20  C15 UNL     1      12.192   0.296 107.461  1.00  0.00     0.077 A 
HETATM   21  C1  UNL     1      13.090  -1.618 108.130  1.00  0.00     0.676 A 
ATOM     22  H2  UNL     1      12.096  -1.662 110.000  1.00  0.00     0.184 HD
HETATM   23  N14 UNL     1      13.025  -0.707 107.148  1.00  0.00    -0.190 N 
ATOM     24  H14 UNL     1      13.545  -0.769 106.273  1.00  0.00     0.184 HD
HETATM   25  C14 UNL     1      11.758   1.458 106.852  1.00  0.00     0.041 A 
BRANCH  21  26
HETATM   26  N1  UNL     1      13.796  -2.698 108.143  1.00  0.00    -0.234 N 
ATOM     27  H12 UNL     1      13.544  -3.602 107.742  1.00  0.00     0.174 HD
ATOM     28  H11 UNL     1      14.721  -2.810 108.559  1.00  0.00     0.174 HD
ENDBRANCH  21  26
ENDBRANCH  14  15
ENDBRANCH  11  14
ENDBRANCH   9  10
ENDBRANCH   1   9
BRANCH   6  29
HETATM   29  C10 UNL     1      13.101   9.026 101.237  1.00  0.00     0.110 A 
HETATM   30  C11 UNL     1      12.817   9.005  99.890  1.00  0.00     0.150 A 
HETATM   31  N7  UNL     1      13.438  10.038  99.287  1.00  0.00    -0.228 N 
HETATM   32  N11 UNL     1      14.096  10.688 100.243  1.00  0.00    -0.013 NA
HETATM   33  N12 UNL     1      13.901  10.088 101.415  1.00  0.00    -0.279 N 
ATOM     34  H12 UNL     1      14.296  10.388 102.306  1.00  0.00     0.184 HD
BRANCH  31  35
HETATM   35  C12 UNL     1      13.391  10.363  97.893  1.00  0.00     0.193 A 
HETATM   36  N8  UNL     1      14.376  10.276  96.992  1.00  0.00    -0.221 N 
HETATM   37  O2  UNL     1      13.910  10.666  95.852  1.00  0.00    -0.153 OA
ATOM     38  H8  UNL     1      15.329   9.958  97.174  1.00  0.00     0.198 HD
HETATM   39  N9  UNL     1      12.661  11.008  95.951  1.00  0.00    -0.222 N 
HETATM   40  C13 UNL     1      12.286  10.836  97.217  1.00  0.00     0.169 A 
ATOM     41  H9  UNL     1      12.071  11.349  95.193  1.00  0.00     0.198 HD
BRANCH  40  42
HETATM   42  N10 UNL     1      11.108  11.061  97.747  1.00  0.00    -0.381 N 
ATOM     43 2H10 UNL     1      10.301  10.437  97.772  1.00  0.00     0.157 HD
ATOM     44 1H10 UNL     1      10.827  11.919  98.222  1.00  0.00     0.157 HD
ENDBRANCH  40  42
ENDBRANCH  31  35
ENDBRANCH   6  29
TORSDOF 8
ENDMDL
MODEL 3
REMARK VINA RESULT: -9.144494056      1.770      2.757
REMARK  8 active torsions:
REMARK  status: ('A' for Active; 'I' for Inactive)
REMARK    1  A    between atoms: N1_1  and  C1_4 
REMARK    2  A    between atoms: C5_10  and  C6_11 
REMARK    3  A    between atoms: C6_11  and  N3_12 
REMARK       I    between atoms: N3_12  and  C7_14 
REMARK    4  A    between atoms: C7_14  and  C8_16 
REMARK    5  A    between atoms: C8_16  and  N4_17 
REMARK    6  A    between atoms: C9_22  and  C10_23 
REMARK    7  A    between atoms: N7_25  and  C12_26 
REMARK    8  A    between atoms: C13_32  and  N10_33 
ROOT
HETATM    1  N4  UNL     1       9.266   5.397 103.794  1.00  0.00    -0.209 N 
HETATM    2  N5  UNL     1       9.134   4.583 102.766  1.00  0.00    -0.224 N 
ATOM      3  H5  UNL     1       8.361   3.932 102.623  1.00  0.00     0.210 HD
HETATM    4  N6  UNL     1      10.179   4.746 101.937  1.00  0.00    -0.267 N 
ATOM      5  H6  UNL     1      10.334   4.244 101.063  1.00  0.00     0.190 HD
HETATM    6  C9  UNL     1      10.974   5.674 102.454  1.00  0.00     0.167 A 
HETATM    7  N13 UNL     1      10.381   6.059 103.607  1.00  0.00    -0.264 N 
ATOM      8  H13 UNL     1      10.751   6.766 104.243  1.00  0.00     0.190 HD
ENDROOT
BRANCH   1   9
HETATM    9  C8  UNL     1       8.389   5.562 104.925  1.00  0.00     0.273 C 
BRANCH   9  10
HETATM   10  C7  UNL     1       9.048   5.263 106.208  1.00  0.00     0.239 C 
HETATM   11  N3  UNL     1       8.901   3.993 106.802  1.00  0.00    -0.355 N 
ATOM     12  H3  UNL     1       8.333   3.289 106.329  1.00  0.00     0.162 HD
HETATM   13  O1  UNL     1       9.741   6.130 106.780  1.00  0.00    -0.272 OA
BRANCH  11  14
HETATM   14  C6  UNL     1       9.537   3.652 108.074  1.00  0.00     0.161 C 
BRANCH  14  15
HETATM   15  C5  UNL     1      10.481   2.535 107.821  1.00  0.00    -0.038 A 
HETATM   16  C4  UNL     1      11.219   2.552 106.636  1.00  0.00     0.011 A 
HETATM   17  C3  UNL     1      12.115   1.529 106.360  1.00  0.00     0.033 A 
HETATM   18  C2  UNL     1      12.299   0.483 107.238  1.00  0.00     0.076 A 
HETATM   19  N2  UNL     1      13.101  -0.613 107.195  1.00  0.00    -0.190 N 
HETATM   20  C15 UNL     1      11.577   0.454 108.413  1.00  0.00     0.077 A 
HETATM   21  C1  UNL     1      12.894  -1.329 108.323  1.00  0.00     0.676 A 
ATOM     22  H2  UNL     1      13.746  -0.853 106.443  1.00  0.00     0.184 HD
HETATM   23  N14 UNL     1      11.973  -0.665 109.037  1.00  0.00    -0.190 N 
ATOM     24  H14 UNL     1      11.618  -0.973 109.942  1.00  0.00     0.184 HD
HETATM   25  C14 UNL     1      10.688   1.479 108.672  1.00  0.00     0.041 A 
BRANCH  21  26
HETATM   26  N1  UNL     1      13.475  -2.436 108.641  1.00  0.00    -0.234 N 
ATOM     27  H12 UNL     1      13.710  -2.758 109.580  1.00  0.00     0.174 HD
ATOM     28  H11 UNL     1      13.788  -3.161 107.995  1.00  0.00     0.174 HD
ENDBRANCH  21  26
ENDBRANCH  14  15
ENDBRANCH  11  14
ENDBRANCH   9  10
ENDBRANCH   1   9
BRANCH   6  29
HETATM   29  C10 UNL     1      12.232   6.202 101.927  1.00  0.00     0.110 A 
HETATM   30  C11 UNL     1      12.589   6.402 100.613  1.00  0.00     0.150 A 
HETATM   31  N7  UNL     1      13.839   6.905 100.563  1.00  0.00    -0.228 N 
HETATM   32  N11 UNL     1      14.249   7.014 101.824  1.00  0.00    -0.013 NA
HETATM   33  N12 UNL     1      13.293   6.594 102.649  1.00  0.00    -0.279 N 
ATOM     34  H12 UNL     1      13.357   6.573 103.666  1.00  0.00     0.184 HD
BRANCH  31  35
HETATM   35  C12 UNL     1      14.570   7.251  99.381  1.00  0.00     0.193 A 
HETATM   36  N8  UNL     1      15.844   6.966  99.087  1.00  0.00    -0.221 N 
HETATM   37  O2  UNL     1      16.104   7.462  97.922  1.00  0.00    -0.153 OA
ATOM     38  H8  UNL     1      16.495   6.449  99.678  1.00  0.00     0.198 HD
HETATM   39  N9  UNL     1      15.065   8.063  97.428  1.00  0.00    -0.222 N 
HETATM   40  C13 UNL     1      14.071   7.958  98.308  1.00  0.00     0.169 A 
ATOM     41  H9  UNL     1      15.017   8.533  96.524  1.00  0.00     0.198 HD
BRANCH  40  42
HETATM   42  N10 UNL     1      12.850   8.424  98.205  1.00  0.00    -0.381 N 
ATOM     43 2H10 UNL     1      12.015   8.112  98.701  1.00  0.00     0.157 HD
ATOM     44 1H10 UNL     1      12.557   9.188  97.595  1.00  0.00     0.157 HD
ENDBRANCH  40  42
ENDBRANCH  31  35
ENDBRANCH   6  29
TORSDOF 8
ENDMDL
MODEL 4
REMARK VINA RESULT: -9.081967366      1.352      1.725
REMARK  8 active torsions:
REMARK  status: ('A' for Active; 'I' for Inactive)
REMARK    1  A    between atoms: N1_1  and  C1_4 
REMARK    2  A    between atoms: C5_10  and  C6_11 
REMARK    3  A    between atoms: C6_11  and  N3_12 
REMARK       I    between atoms: N3_12  and  C7_14 
REMARK    4  A    between atoms: C7_14  and  C8_16 
REMARK    5  A    between atoms: C8_16  and  N4_17 
REMARK    6  A    between atoms: C9_22  and  C10_23 
REMARK    7  A    between atoms: N7_25  and  C12_26 
REMARK    8  A    between atoms: C13_32  and  N10_33 
ROOT
HETATM    1  N4  UNL     1      11.053   5.476 102.581  1.00  0.00    -0.209 N 
HETATM    2  N5  UNL     1      10.388   6.555 102.944  1.00  0.00    -0.224 N 
ATOM      3  H5  UNL     1       9.641   6.583 103.638  1.00  0.00     0.210 HD
HETATM    4  N6  UNL     1      10.850   7.611 102.254  1.00  0.00    -0.267 N 
ATOM      5  H6  UNL     1      10.516   8.571 102.333  1.00  0.00     0.190 HD
HETATM    6  C9  UNL     1      11.817   7.186 101.450  1.00  0.00     0.167 A 
HETATM    7  N13 UNL     1      11.919   5.857 101.675  1.00  0.00    -0.264 N 
ATOM      8  H13 UNL     1      12.579   5.237 101.205  1.00  0.00     0.190 HD
ENDROOT
BRANCH   1   9
HETATM    9  C8  UNL     1      10.896   4.124 103.055  1.00  0.00     0.273 C 
BRANCH   9  10
HETATM   10  C7  UNL     1      10.197   4.050 104.349  1.00  0.00     0.239 C 
HETATM   11  N3  UNL     1      10.931   3.909 105.545  1.00  0.00    -0.355 N 
ATOM     12  H3  UNL     1      11.949   3.860 105.497  1.00  0.00     0.162 HD
HETATM   13  O1  UNL     1       8.951   4.111 104.400  1.00  0.00    -0.272 OA
BRANCH  11  14
HETATM   14  C6  UNL     1      10.280   3.832 106.852  1.00  0.00     0.161 C 
BRANCH  14  15
HETATM   15  C5  UNL     1      10.726   2.575 107.504  1.00  0.00    -0.038 A 
HETATM   16  C4  UNL     1      10.206   2.263 108.762  1.00  0.00     0.011 A 
HETATM   17  C3  UNL     1      10.594   1.097 109.405  1.00  0.00     0.033 A 
HETATM   18  C2  UNL     1      11.491   0.225 108.827  1.00  0.00     0.076 A 
HETATM   19  N2  UNL     1      12.015  -0.956 109.248  1.00  0.00    -0.190 N 
HETATM   20  C15 UNL     1      12.012   0.520 107.584  1.00  0.00     0.077 A 
HETATM   21  C1  UNL     1      12.856  -1.407 108.290  1.00  0.00     0.676 A 
ATOM     22  H2  UNL     1      11.809  -1.421 110.132  1.00  0.00     0.184 HD
HETATM   23  N14 UNL     1      12.835  -0.500 107.302  1.00  0.00    -0.190 N 
ATOM     24  H14 UNL     1      13.378  -0.577 106.442  1.00  0.00     0.184 HD
HETATM   25  C14 UNL     1      11.617   1.685 106.957  1.00  0.00     0.041 A 
BRANCH  21  26
HETATM   26  N1  UNL     1      13.541  -2.499 108.329  1.00  0.00    -0.234 N 
ATOM     27  H12 UNL     1      13.906  -2.966 109.159  1.00  0.00     0.174 HD
ATOM     28  H11 UNL     1      13.822  -3.064 107.527  1.00  0.00     0.174 HD
ENDBRANCH  21  26
ENDBRANCH  14  15
ENDBRANCH  11  14
ENDBRANCH   9  10
ENDBRANCH   1   9
BRANCH   6  29
HETATM   29  C10 UNL     1      12.626   7.953 100.504  1.00  0.00     0.110 A 
HETATM   30  C11 UNL     1      13.242   7.511  99.355  1.00  0.00     0.150 A 
HETATM   31  N7  UNL     1      13.890   8.540  98.772  1.00  0.00    -0.228 N 
HETATM   32  N11 UNL     1      13.681   9.601  99.548  1.00  0.00    -0.013 NA
HETATM   33  N12 UNL     1      12.925   9.258 100.589  1.00  0.00    -0.279 N 
ATOM     34  H12 UNL     1      12.621   9.888 101.331  1.00  0.00     0.184 HD
BRANCH  31  35
HETATM   35  C12 UNL     1      14.650   8.490  97.560  1.00  0.00     0.193 A 
HETATM   36  N8  UNL     1      15.429   7.498  97.115  1.00  0.00    -0.221 N 
HETATM   37  O2  UNL     1      15.928   7.862  95.980  1.00  0.00    -0.153 OA
ATOM     38  H8  UNL     1      15.599   6.610  97.588  1.00  0.00     0.198 HD
HETATM   39  N9  UNL     1      15.519   9.048  95.648  1.00  0.00    -0.222 N 
HETATM   40  C13 UNL     1      14.711   9.489  96.611  1.00  0.00     0.169 A 
ATOM     41  H9  UNL     1      15.771   9.555  94.800  1.00  0.00     0.198 HD
BRANCH  40  42
HETATM   42  N10 UNL     1      14.082  10.638  96.673  1.00  0.00    -0.381 N 
ATOM     43 2H10 UNL     1      13.080  10.810  96.600  1.00  0.00     0.157 HD
ATOM     44 1H10 UNL     1      14.524  11.548  96.809  1.00  0.00     0.157 HD
ENDBRANCH  40  42
ENDBRANCH  31  35
ENDBRANCH   6  29
TORSDOF 8
ENDMDL
MODEL 5
REMARK VINA RESULT: -8.862663238      2.148      2.974
REMARK  8 active torsions:
REMARK  status: ('A' for Active; 'I' for Inactive)
REMARK    1  A    between atoms: N1_1  and  C1_4 
REMARK    2  A    between atoms: C5_10  and  C6_11 
REMARK    3  A    between atoms: C6_11  and  N3_12 
REMARK       I    between atoms: N3_12  and  C7_14 
REMARK    4  A    between atoms: C7_14  and  C8_16 
REMARK    5  A    between atoms: C8_16  and  N4_17 
REMARK    6  A    between atoms: C9_22  and  C10_23 
REMARK    7  A    between atoms: N7_25  and  C12_26 
REMARK    8  A    between atoms: C13_32  and  N10_33 
ROOT
HETATM    1  N4  UNL     1      10.800   6.674 101.123  1.00  0.00    -0.209 N 
HETATM    2  N5  UNL     1      10.483   7.833 100.583  1.00  0.00    -0.224 N 
ATOM      3  H5  UNL     1       9.582   8.304 100.678  1.00  0.00     0.210 HD
HETATM    4  N6  UNL     1      11.533   8.297  99.885  1.00  0.00    -0.267 N 
ATOM      5  H6  UNL     1      11.567   9.173  99.364  1.00  0.00     0.190 HD
HETATM    6  C9  UNL     1      12.520   7.416  99.992  1.00  0.00     0.167 A 
HETATM    7  N13 UNL     1      12.034   6.419 100.766  1.00  0.00    -0.264 N 
ATOM      8  H13 UNL     1      12.556   5.584 101.035  1.00  0.00     0.190 HD
ENDROOT
BRANCH   1   9
HETATM    9  C8  UNL     1       9.986   5.818 101.949  1.00  0.00     0.273 C 
BRANCH   9  10
HETATM   10  C7  UNL     1      10.347   5.889 103.375  1.00  0.00     0.239 C 
HETATM   11  N3  UNL     1       9.914   4.887 104.268  1.00  0.00    -0.355 N 
ATOM     12  H3  UNL     1       9.349   4.116 103.909  1.00  0.00     0.162 HD
HETATM   13  O1  UNL     1      11.038   6.835 103.807  1.00  0.00    -0.272 OA
BRANCH  11  14
HETATM   14  C6  UNL     1      10.247   4.916 105.691  1.00  0.00     0.161 C 
BRANCH  14  15
HETATM   15  C5  UNL     1      10.963   3.657 106.012  1.00  0.00    -0.038 A 
HETATM   16  C4  UNL     1      11.954   3.218 105.131  1.00  0.00     0.011 A 
HETATM   17  C3  UNL     1      12.649   2.047 105.394  1.00  0.00     0.033 A 
HETATM   18  C2  UNL     1      12.386   1.296 106.519  1.00  0.00     0.076 A 
HETATM   19  N2  UNL     1      12.920   0.137 106.988  1.00  0.00    -0.190 N 
HETATM   20  C15 UNL     1      11.410   1.717 107.398  1.00  0.00     0.077 A 
HETATM   21  C1  UNL     1      12.296  -0.174 108.145  1.00  0.00     0.676 A 
ATOM     22  H2  UNL     1      13.662  -0.403 106.543  1.00  0.00     0.184 HD
HETATM   23  N14 UNL     1      11.393   0.792 108.369  1.00  0.00    -0.190 N 
ATOM     24  H14 UNL     1      10.771   0.820 109.177  1.00  0.00     0.184 HD
HETATM   25  C14 UNL     1      10.726   2.885 107.122  1.00  0.00     0.041 A 
BRANCH  21  26
HETATM   26  N1  UNL     1      12.531  -1.205 108.886  1.00  0.00    -0.234 N 
ATOM     27  H12 UNL     1      12.673  -1.216 109.896  1.00  0.00     0.174 HD
ATOM     28  H11 UNL     1      12.611  -2.171 108.568  1.00  0.00     0.174 HD
ENDBRANCH  21  26
ENDBRANCH  14  15
ENDBRANCH  11  14
ENDBRANCH   9  10
ENDBRANCH   1   9
BRANCH   6  29
HETATM   29  C10 UNL     1      13.862   7.466  99.415  1.00  0.00     0.110 A 
HETATM   30  C11 UNL     1      14.233   7.873  98.153  1.00  0.00     0.150 A 
HETATM   31  N7  UNL     1      15.570   7.764  98.024  1.00  0.00    -0.228 N 
HETATM   32  N11 UNL     1      16.021   7.296  99.186  1.00  0.00    -0.013 NA
HETATM   33  N12 UNL     1      15.004   7.114 100.025  1.00  0.00    -0.279 N 
ATOM     34  H12 UNL     1      15.080   6.763 100.979  1.00  0.00     0.184 HD
BRANCH  31  35
HETATM   35  C12 UNL     1      16.343   8.089  96.863  1.00  0.00     0.193 A 
HETATM   36  N8  UNL     1      16.031   7.880  95.579  1.00  0.00    -0.221 N 
HETATM   37  O2  UNL     1      17.005   8.324  94.855  1.00  0.00    -0.153 OA
ATOM     38  H8  UNL     1      15.175   7.446  95.233  1.00  0.00     0.198 HD
HETATM   39  N9  UNL     1      17.949   8.819  95.596  1.00  0.00    -0.222 N 
HETATM   40  C13 UNL     1      17.581   8.695  96.870  1.00  0.00     0.169 A 
ATOM     41  H9  UNL     1      18.821   9.231  95.261  1.00  0.00     0.198 HD
BRANCH  40  42
HETATM   42  N10 UNL     1      18.242   9.066  97.940  1.00  0.00    -0.381 N 
ATOM     43 2H10 UNL     1      17.872   9.489  98.791  1.00  0.00     0.157 HD
ATOM     44 1H10 UNL     1      19.250   8.981  98.072  1.00  0.00     0.157 HD
ENDBRANCH  40  42
ENDBRANCH  31  35
ENDBRANCH   6  29
TORSDOF 8
ENDMDL
