MODEL 1
REMARK VINA RESULT: -7.505596464      0.000      0.000
REMARK  8 active torsions:
REMARK  status: ('A' for Active; 'I' for Inactive)
REMARK    1  A    between atoms: C2_3  and  S1_4 
REMARK    2  A    between atoms: S1_4  and  C3_5 
REMARK    3  A    between atoms: C3_5  and  C4_6 
REMARK       I    between atoms: C4_6  and  N2_8 
REMARK    4  A    between atoms: C6_15  and  C7_16 
REMARK    5  A    between atoms: C7_16  and  C8_17 
REMARK    6  A    between atoms: N10_33  and  C11_35 
REMARK    7  A    between atoms: C11_35  and  O2_36 
REMARK    8  A    between atoms: C11_35  and  O3_38 
ROOT
HETATM    1  C4  UNL     1       7.896   2.993 107.960  1.00  0.00     0.233 C 
HETATM    2  O1  UNL     1       6.979   3.379 108.724  1.00  0.00    -0.272 OA
HETATM    3  N2  UNL     1       7.647   2.115 106.870  1.00  0.00    -0.305 N 
ATOM      4  H2  UNL     1       7.497   1.114 106.995  1.00  0.00     0.171 HD
HETATM    5  C5  UNL     1       7.625   2.692 105.688  1.00  0.00     0.167 A 
HETATM    6  N3  UNL     1       7.416   2.113 104.501  1.00  0.00    -0.279 N 
ATOM      7  H3  UNL     1       7.248   1.109 104.435  1.00  0.00     0.189 HD
HETATM    8  N4  UNL     1       7.431   2.838 103.459  1.00  0.00    -0.296 N 
ATOM      9  H4  UNL     1       7.273   2.412 102.546  1.00  0.00     0.187 HD
HETATM   10  C6  UNL     1       7.648   4.132 103.544  1.00  0.00     0.075 A 
HETATM   11  S3  UNL     1       7.846   4.329 105.242  1.00  0.00    -0.037 SA
ENDROOT
BRANCH   1  12
HETATM   12  C3  UNL     1       9.282   3.452 108.183  1.00  0.00     0.185 C 
BRANCH  12  13
HETATM   13  S1  UNL     1      10.409   2.051 108.074  1.00  0.00    -0.083 SA
BRANCH  13  14
HETATM   14  C2  UNL     1      11.430   2.221 106.629  1.00  0.00     0.177 A 
HETATM   15  N1  UNL     1      12.484   1.397 106.327  1.00  0.00    -0.164 N 
HETATM   16  C1  UNL     1      12.889   0.285 107.165  1.00  0.00     0.177 C 
HETATM   17  C10 UNL     1      13.040   1.787 105.183  1.00  0.00     0.700 A 
HETATM   18  N9  UNL     1      12.305   2.880 104.774  1.00  0.00    -0.130 N 
HETATM   19  N10 UNL     1      13.994   1.368 104.523  1.00  0.00    -0.174 N 
HETATM   20  N8  UNL     1      11.358   3.119 105.641  1.00  0.00    -0.265 N 
ATOM     21  H9  UNL     1      12.474   3.419 103.925  1.00  0.00     0.205 HD
ATOM     22  H8  UNL     1      10.673   3.871 105.575  1.00  0.00     0.189 HD
ATOM     23  H10 UNL     1      14.099   1.952 103.693  1.00  0.00     0.182 HD
BRANCH  19  24
HETATM   24  C11 UNL     1      14.972   0.389 104.506  1.00  0.00     0.381 C 
BRANCH  24  25
HETATM   25  O2  UNL     1      16.252   0.862 104.149  1.00  0.00    -0.354 OA
ATOM     26  H2  UNL     1      16.609   1.502 104.752  1.00  0.00     0.214 HD
ENDBRANCH  24  25
BRANCH  24  27
HETATM   27  O3  UNL     1      14.604  -0.694 103.686  1.00  0.00    -0.354 OA
ATOM     28  H3  UNL     1      14.196  -0.398 102.882  1.00  0.00     0.214 HD
ENDBRANCH  24  27
ENDBRANCH  19  24
ENDBRANCH  13  14
ENDBRANCH  12  13
ENDBRANCH   1  12
BRANCH  10  29
HETATM   29  C7  UNL     1       7.712   5.176 102.456  1.00  0.00     0.132 C 
BRANCH  29  30
HETATM   30  C8  UNL     1       9.176   5.317 102.121  1.00  0.00     0.075 A 
HETATM   31  N5  UNL     1      10.128   4.398 102.163  1.00  0.00    -0.296 N 
HETATM   32  N6  UNL     1      11.321   4.693 101.844  1.00  0.00    -0.279 N 
ATOM     33  H5  UNL     1       9.901   3.447 102.454  1.00  0.00     0.187 HD
HETATM   34  C9  UNL     1      11.592   5.946 101.467  1.00  0.00     0.158 A 
ATOM     35  H6  UNL     1      12.057   3.988 101.874  1.00  0.00     0.189 HD
HETATM   36  N7  UNL     1      12.745   6.439 101.105  1.00  0.00    -0.379 N 
HETATM   37  S2  UNL     1      10.055   6.684 101.591  1.00  0.00    -0.038 SA
ATOM     38  H72 UNL     1      13.662   5.999 101.031  1.00  0.00     0.158 HD
ATOM     39  H71 UNL     1      12.952   7.396 100.817  1.00  0.00     0.158 HD
ENDBRANCH  29  30
ENDBRANCH  10  29
TORSDOF 8
ENDMDL
MODEL 2
REMARK VINA RESULT: -7.295353769      3.332      6.967
REMARK  8 active torsions:
REMARK  status: ('A' for Active; 'I' for Inactive)
REMARK    1  A    between atoms: C2_3  and  S1_4 
REMARK    2  A    between atoms: S1_4  and  C3_5 
REMARK    3  A    between atoms: C3_5  and  C4_6 
REMARK       I    between atoms: C4_6  and  N2_8 
REMARK    4  A    between atoms: C6_15  and  C7_16 
REMARK    5  A    between atoms: C7_16  and  C8_17 
REMARK    6  A    between atoms: N10_33  and  C11_35 
REMARK    7  A    between atoms: C11_35  and  O2_36 
REMARK    8  A    between atoms: C11_35  and  O3_38 
ROOT
HETATM    1  C4  UNL     1       9.440   4.793 104.044  1.00  0.00     0.233 C 
HETATM    2  O1  UNL     1      10.195   4.453 103.102  1.00  0.00    -0.272 OA
HETATM    3  N2  UNL     1       8.464   3.912 104.583  1.00  0.00    -0.305 N 
ATOM      4  H2  UNL     1       7.581   3.715 104.111  1.00  0.00     0.171 HD
HETATM    5  C5  UNL     1       8.785   3.369 105.738  1.00  0.00     0.167 A 
HETATM    6  N3  UNL     1       8.062   2.512 106.465  1.00  0.00    -0.279 N 
ATOM      7  H3  UNL     1       7.144   2.202 106.144  1.00  0.00     0.189 HD
HETATM    8  N4  UNL     1       8.539   2.091 107.564  1.00  0.00    -0.296 N 
ATOM      9  H4  UNL     1       8.001   1.437 108.130  1.00  0.00     0.187 HD
HETATM   10  C6  UNL     1       9.722   2.491 107.978  1.00  0.00     0.075 A 
HETATM   11  S3  UNL     1      10.187   3.548 106.702  1.00  0.00    -0.037 SA
ENDROOT
BRANCH   1  12
HETATM   12  C3  UNL     1       9.552   6.148 104.623  1.00  0.00     0.185 C 
BRANCH  12  13
HETATM   13  S1  UNL     1       9.805   7.351 103.307  1.00  0.00    -0.083 SA
BRANCH  13  14
HETATM   14  C2  UNL     1      11.545   7.530 102.992  1.00  0.00     0.177 A 
HETATM   15  N1  UNL     1      12.147   7.238 101.794  1.00  0.00    -0.164 N 
HETATM   16  C1  UNL     1      11.422   6.743 100.640  1.00  0.00     0.177 C 
HETATM   17  C10 UNL     1      13.452   7.479 101.881  1.00  0.00     0.700 A 
HETATM   18  N9  UNL     1      13.655   7.931 103.169  1.00  0.00    -0.130 N 
HETATM   19  N10 UNL     1      14.385   7.369 101.083  1.00  0.00    -0.174 N 
HETATM   20  N8  UNL     1      12.516   7.955 103.807  1.00  0.00    -0.265 N 
ATOM     21  H9  UNL     1      14.555   8.205 103.562  1.00  0.00     0.205 HD
ATOM     22  H8  UNL     1      12.387   8.250 104.775  1.00  0.00     0.189 HD
ATOM     23  H10 UNL     1      15.247   7.662 101.544  1.00  0.00     0.182 HD
BRANCH  19  24
HETATM   24  C11 UNL     1      14.681   6.992  99.784  1.00  0.00     0.381 C 
BRANCH  24  25
HETATM   25  O2  UNL     1      14.401   5.639  99.502  1.00  0.00    -0.354 OA
ATOM     26  H2  UNL     1      13.644   5.509  98.943  1.00  0.00     0.214 HD
ENDBRANCH  24  25
BRANCH  24  27
HETATM   27  O3  UNL     1      16.013   7.295  99.448  1.00  0.00    -0.354 OA
ATOM     28  H3  UNL     1      16.447   6.556  99.041  1.00  0.00     0.214 HD
ENDBRANCH  24  27
ENDBRANCH  19  24
ENDBRANCH  13  14
ENDBRANCH  12  13
ENDBRANCH   1  12
BRANCH  10  29
HETATM   29  C7  UNL     1      10.480   2.131 109.232  1.00  0.00     0.132 C 
BRANCH  29  30
HETATM   30  C8  UNL     1      11.265   0.891 108.884  1.00  0.00     0.075 A 
HETATM   31  N5  UNL     1      11.372  -0.240 109.563  1.00  0.00    -0.296 N 
HETATM   32  N6  UNL     1      12.084  -1.193 109.117  1.00  0.00    -0.279 N 
ATOM     33  H5  UNL     1      10.879  -0.348 110.449  1.00  0.00     0.187 HD
HETATM   34  C9  UNL     1      12.720  -1.027 107.954  1.00  0.00     0.158 A 
ATOM     35  H6  UNL     1      12.168  -2.067 109.636  1.00  0.00     0.189 HD
HETATM   36  N7  UNL     1      13.491  -1.880 107.337  1.00  0.00    -0.379 N 
HETATM   37  S2  UNL     1      12.250   0.560 107.526  1.00  0.00    -0.038 SA
ATOM     38  H72 UNL     1      13.772  -2.827 107.592  1.00  0.00     0.158 HD
ATOM     39  H71 UNL     1      13.977  -1.753 106.449  1.00  0.00     0.158 HD
ENDBRANCH  29  30
ENDBRANCH  10  29
TORSDOF 8
ENDMDL
MODEL 3
REMARK VINA RESULT: -7.250117402      4.473      7.855
REMARK  8 active torsions:
REMARK  status: ('A' for Active; 'I' for Inactive)
REMARK    1  A    between atoms: C2_3  and  S1_4 
REMARK    2  A    between atoms: S1_4  and  C3_5 
REMARK    3  A    between atoms: C3_5  and  C4_6 
REMARK       I    between atoms: C4_6  and  N2_8 
REMARK    4  A    between atoms: C6_15  and  C7_16 
REMARK    5  A    between atoms: C7_16  and  C8_17 
REMARK    6  A    between atoms: N10_33  and  C11_35 
REMARK    7  A    between atoms: C11_35  and  O2_36 
REMARK    8  A    between atoms: C11_35  and  O3_38 
ROOT
HETATM    1  C4  UNL     1       9.642   7.224 102.277  1.00  0.00     0.233 C 
HETATM    2  O1  UNL     1       8.483   7.463 101.862  1.00  0.00    -0.272 OA
HETATM    3  N2  UNL     1      10.016   7.436 103.632  1.00  0.00    -0.305 N 
ATOM      4  H2  UNL     1      10.204   8.364 104.010  1.00  0.00     0.171 HD
HETATM    5  C5  UNL     1      10.099   6.344 104.361  1.00  0.00     0.167 A 
HETATM    6  N3  UNL     1      10.427   6.249 105.653  1.00  0.00    -0.279 N 
ATOM      7  H3  UNL     1      10.650   7.084 106.196  1.00  0.00     0.189 HD
HETATM    8  N4  UNL     1      10.455   5.100 106.192  1.00  0.00    -0.296 N 
ATOM      9  H4  UNL     1      10.702   5.010 107.177  1.00  0.00     0.187 HD
HETATM   10  C6  UNL     1      10.167   4.024 105.492  1.00  0.00     0.075 A 
HETATM   11  S3  UNL     1       9.832   4.705 103.948  1.00  0.00    -0.037 SA
ENDROOT
BRANCH   1  12
HETATM   12  C3  UNL     1      10.665   6.707 101.344  1.00  0.00     0.185 C 
BRANCH  12  13
HETATM   13  S1  UNL     1      11.644   8.074 100.699  1.00  0.00    -0.083 SA
BRANCH  13  14
HETATM   14  C2  UNL     1      13.053   7.435  99.825  1.00  0.00     0.177 A 
HETATM   15  N1  UNL     1      13.680   8.084  98.792  1.00  0.00    -0.164 N 
HETATM   16  C1  UNL     1      13.256   9.377  98.291  1.00  0.00     0.177 C 
HETATM   17  C10 UNL     1      14.697   7.346  98.354  1.00  0.00     0.700 A 
HETATM   18  N9  UNL     1      14.692   6.214  99.143  1.00  0.00    -0.130 N 
HETATM   19  N10 UNL     1      15.533   7.506  97.462  1.00  0.00    -0.174 N 
HETATM   20  N8  UNL     1      13.714   6.287 100.005  1.00  0.00    -0.265 N 
ATOM     21  H9  UNL     1      15.350   5.439  99.064  1.00  0.00     0.205 HD
ATOM     22  H8  UNL     1      13.490   5.580 100.705  1.00  0.00     0.189 HD
ATOM     23  H10 UNL     1      16.153   6.696  97.446  1.00  0.00     0.182 HD
BRANCH  19  24
HETATM   24  C11 UNL     1      15.930   8.392  96.475  1.00  0.00     0.381 C 
BRANCH  24  25
HETATM   25  O2  UNL     1      16.231   7.779  95.241  1.00  0.00    -0.354 OA
ATOM     26  H2  UNL     1      15.825   8.197  94.492  1.00  0.00     0.214 HD
ENDBRANCH  24  25
BRANCH  24  27
HETATM   27  O3  UNL     1      17.007   9.190  96.901  1.00  0.00    -0.354 OA
ATOM     28  H3  UNL     1      17.479   8.784  97.617  1.00  0.00     0.214 HD
ENDBRANCH  24  27
ENDBRANCH  19  24
ENDBRANCH  13  14
ENDBRANCH  12  13
ENDBRANCH   1  12
BRANCH  10  29
HETATM   29  C7  UNL     1      10.137   2.575 105.914  1.00  0.00     0.132 C 
BRANCH  29  30
HETATM   30  C8  UNL     1      11.569   2.109 105.848  1.00  0.00     0.075 A 
HETATM   31  N5  UNL     1      12.208   1.277 106.656  1.00  0.00    -0.296 N 
HETATM   32  N6  UNL     1      13.428   0.991 106.451  1.00  0.00    -0.279 N 
ATOM     33  H5  UNL     1      11.717   0.863 107.449  1.00  0.00     0.187 HD
HETATM   34  C9  UNL     1      14.049   1.547 105.406  1.00  0.00     0.158 A 
ATOM     35  H6  UNL     1      13.924   0.350 107.070  1.00  0.00     0.189 HD
HETATM   36  N7  UNL     1      15.288   1.380 105.033  1.00  0.00    -0.379 N 
HETATM   37  S2  UNL     1      12.802   2.500 104.730  1.00  0.00    -0.038 SA
ATOM     38  H72 UNL     1      16.033   0.811 105.436  1.00  0.00     0.158 HD
ATOM     39  H71 UNL     1      15.763   1.804 104.235  1.00  0.00     0.158 HD
ENDBRANCH  29  30
ENDBRANCH  10  29
TORSDOF 8
ENDMDL
MODEL 4
REMARK VINA RESULT: -7.213404141      3.593      6.977
REMARK  8 active torsions:
REMARK  status: ('A' for Active; 'I' for Inactive)
REMARK    1  A    between atoms: C2_3  and  S1_4 
REMARK    2  A    between atoms: S1_4  and  C3_5 
REMARK    3  A    between atoms: C3_5  and  C4_6 
REMARK       I    between atoms: C4_6  and  N2_8 
REMARK    4  A    between atoms: C6_15  and  C7_16 
REMARK    5  A    between atoms: C7_16  and  C8_17 
REMARK    6  A    between atoms: N10_33  and  C11_35 
REMARK    7  A    between atoms: C11_35  and  O2_36 
REMARK    8  A    between atoms: C11_35  and  O3_38 
ROOT
HETATM    1  C4  UNL     1       8.828   7.643 103.496  1.00  0.00     0.233 C 
HETATM    2  O1  UNL     1       7.623   7.899 103.258  1.00  0.00    -0.272 OA
HETATM    3  N2  UNL     1       9.351   7.644 104.817  1.00  0.00    -0.305 N 
ATOM      4  H2  UNL     1       9.561   8.504 105.324  1.00  0.00     0.171 HD
HETATM    5  C5  UNL     1       9.544   6.451 105.337  1.00  0.00     0.167 A 
HETATM    6  N3  UNL     1      10.022   6.158 106.551  1.00  0.00    -0.279 N 
ATOM      7  H3  UNL     1      10.288   6.901 107.198  1.00  0.00     0.189 HD
HETATM    8  N4  UNL     1      10.139   4.938 106.881  1.00  0.00    -0.296 N 
ATOM      9  H4  UNL     1      10.502   4.697 107.803  1.00  0.00     0.187 HD
HETATM   10  C6  UNL     1       9.797   3.981 106.046  1.00  0.00     0.075 A 
HETATM   11  S3  UNL     1       9.269   4.893 104.686  1.00  0.00    -0.037 SA
ENDROOT
BRANCH   1  12
HETATM   12  C3  UNL     1       9.746   7.331 102.382  1.00  0.00     0.185 C 
BRANCH  12  13
HETATM   13  S1  UNL     1      10.987   8.629 102.237  1.00  0.00    -0.083 SA
BRANCH  13  14
HETATM   14  C2  UNL     1      11.789   8.511 100.656  1.00  0.00     0.177 A 
HETATM   15  N1  UNL     1      12.934   7.793 100.422  1.00  0.00    -0.164 N 
HETATM   16  C1  UNL     1      13.626   7.043 101.452  1.00  0.00     0.177 C 
HETATM   17  C10 UNL     1      13.276   7.905  99.141  1.00  0.00     0.700 A 
HETATM   18  N9  UNL     1      12.312   8.714  98.575  1.00  0.00    -0.130 N 
HETATM   19  N10 UNL     1      14.208   7.450  98.474  1.00  0.00    -0.174 N 
HETATM   20  N8  UNL     1      11.444   9.061  99.486  1.00  0.00    -0.265 N 
ATOM     21  H9  UNL     1      12.283   8.999  97.597  1.00  0.00     0.205 HD
ATOM     22  H8  UNL     1      10.630   9.656  99.331  1.00  0.00     0.189 HD
ATOM     23  H10 UNL     1      14.111   7.774  97.512  1.00  0.00     0.182 HD
BRANCH  19  24
HETATM   24  C11 UNL     1      15.339   6.657  98.565  1.00  0.00     0.381 C 
BRANCH  24  25
HETATM   25  O2  UNL     1      15.065   5.283  98.725  1.00  0.00    -0.354 OA
ATOM     26  H2  UNL     1      15.794   4.781  99.069  1.00  0.00     0.214 HD
ENDBRANCH  24  25
BRANCH  24  27
HETATM   27  O3  UNL     1      16.203   7.105  99.581  1.00  0.00    -0.354 OA
ATOM     28  H3  UNL     1      17.110   6.920  99.373  1.00  0.00     0.214 HD
ENDBRANCH  24  27
ENDBRANCH  19  24
ENDBRANCH  13  14
ENDBRANCH  12  13
ENDBRANCH   1  12
BRANCH  10  29
HETATM   29  C7  UNL     1       9.849   2.482 106.218  1.00  0.00     0.132 C 
BRANCH  29  30
HETATM   30  C8  UNL     1      11.304   2.113 106.070  1.00  0.00     0.075 A 
HETATM   31  N5  UNL     1      12.029   1.288 106.809  1.00  0.00    -0.296 N 
HETATM   32  N6  UNL     1      13.254   1.091 106.539  1.00  0.00    -0.279 N 
ATOM     33  H5  UNL     1      11.601   0.807 107.600  1.00  0.00     0.187 HD
HETATM   34  C9  UNL     1      13.792   1.734 105.497  1.00  0.00     0.158 A 
ATOM     35  H6  UNL     1      13.817   0.456 107.104  1.00  0.00     0.189 HD
HETATM   36  N7  UNL     1      15.021   1.664 105.064  1.00  0.00    -0.379 N 
HETATM   37  S2  UNL     1      12.458   2.634 104.921  1.00  0.00    -0.038 SA
ATOM     38  H72 UNL     1      15.817   1.126 105.408  1.00  0.00     0.158 HD
ATOM     39  H71 UNL     1      15.432   2.154 104.269  1.00  0.00     0.158 HD
ENDBRANCH  29  30
ENDBRANCH  10  29
TORSDOF 8
ENDMDL
MODEL 5
REMARK VINA RESULT: -7.205634351      3.552      6.582
REMARK  8 active torsions:
REMARK  status: ('A' for Active; 'I' for Inactive)
REMARK    1  A    between atoms: C2_3  and  S1_4 
REMARK    2  A    between atoms: S1_4  and  C3_5 
REMARK    3  A    between atoms: C3_5  and  C4_6 
REMARK       I    between atoms: C4_6  and  N2_8 
REMARK    4  A    between atoms: C6_15  and  C7_16 
REMARK    5  A    between atoms: C7_16  and  C8_17 
REMARK    6  A    between atoms: N10_33  and  C11_35 
REMARK    7  A    between atoms: C11_35  and  O2_36 
REMARK    8  A    between atoms: C11_35  and  O3_38 
ROOT
HETATM    1  C4  UNL     1       8.441   7.800 103.682  1.00  0.00     0.233 C 
HETATM    2  O1  UNL     1       7.219   8.081 103.692  1.00  0.00    -0.272 OA
HETATM    3  N2  UNL     1       9.205   7.720 104.878  1.00  0.00    -0.305 N 
ATOM      4  H2  UNL     1       9.525   8.547 105.382  1.00  0.00     0.171 HD
HETATM    5  C5  UNL     1       9.468   6.497 105.286  1.00  0.00     0.167 A 
HETATM    6  N3  UNL     1      10.161   6.130 106.369  1.00  0.00    -0.279 N 
ATOM      7  H3  UNL     1      10.560   6.831 106.994  1.00  0.00     0.189 HD
HETATM    8  N4  UNL     1      10.313   4.892 106.604  1.00  0.00    -0.296 N 
ATOM      9  H4  UNL     1      10.838   4.595 107.426  1.00  0.00     0.187 HD
HETATM   10  C6  UNL     1       9.799   3.988 105.798  1.00  0.00     0.075 A 
HETATM   11  S3  UNL     1       9.043   4.982 104.615  1.00  0.00    -0.037 SA
ENDROOT
BRANCH   1  12
HETATM   12  C3  UNL     1       9.126   7.544 102.399  1.00  0.00     0.185 C 
BRANCH  12  13
HETATM   13  S1  UNL     1      10.431   8.762 102.155  1.00  0.00    -0.083 SA
BRANCH  13  14
HETATM   14  C2  UNL     1      11.996   7.933 102.004  1.00  0.00     0.177 A 
HETATM   15  N1  UNL     1      12.612   7.657 100.810  1.00  0.00    -0.164 N 
HETATM   16  C1  UNL     1      12.047   8.013  99.523  1.00  0.00     0.177 C 
HETATM   17  C10 UNL     1      13.765   7.033 101.037  1.00  0.00     0.700 A 
HETATM   18  N9  UNL     1      13.857   6.925 102.410  1.00  0.00    -0.130 N 
HETATM   19  N10 UNL     1      14.647   6.594 100.296  1.00  0.00    -0.174 N 
HETATM   20  N8  UNL     1      12.803   7.463 102.961  1.00  0.00    -0.265 N 
ATOM     21  H9  UNL     1      14.628   6.491 102.915  1.00  0.00     0.205 HD
ATOM     22  H8  UNL     1      12.623   7.516 103.964  1.00  0.00     0.189 HD
ATOM     23  H10 UNL     1      15.382   6.180 100.870  1.00  0.00     0.182 HD
BRANCH  19  24
HETATM   24  C11 UNL     1      14.997   6.463  98.963  1.00  0.00     0.381 C 
BRANCH  24  25
HETATM   25  O2  UNL     1      15.099   5.127  98.525  1.00  0.00    -0.354 OA
ATOM     26  H2  UNL     1      15.394   4.522  99.195  1.00  0.00     0.214 HD
ENDBRANCH  24  25
BRANCH  24  27
HETATM   27  O3  UNL     1      16.179   7.166  98.668  1.00  0.00    -0.354 OA
ATOM     28  H3  UNL     1      16.506   7.633  99.428  1.00  0.00     0.214 HD
ENDBRANCH  24  27
ENDBRANCH  19  24
ENDBRANCH  13  14
ENDBRANCH  12  13
ENDBRANCH   1  12
BRANCH  10  29
HETATM   29  C7  UNL     1       9.853   2.481 105.874  1.00  0.00     0.132 C 
BRANCH  29  30
HETATM   30  C8  UNL     1      11.319   2.130 105.844  1.00  0.00     0.075 A 
HETATM   31  N5  UNL     1      12.000   1.344 106.662  1.00  0.00    -0.296 N 
HETATM   32  N6  UNL     1      13.244   1.157 106.488  1.00  0.00    -0.279 N 
ATOM     33  H5  UNL     1      11.523   0.884 107.438  1.00  0.00     0.187 HD
HETATM   34  C9  UNL     1      13.847   1.771 105.465  1.00  0.00     0.158 A 
ATOM     35  H6  UNL     1      13.773   0.551 107.115  1.00  0.00     0.189 HD
HETATM   36  N7  UNL     1      15.105   1.706 105.124  1.00  0.00    -0.379 N 
HETATM   37  S2  UNL     1      12.546   2.629 104.763  1.00  0.00    -0.038 SA
ATOM     38  H72 UNL     1      15.881   1.194 105.543  1.00  0.00     0.158 HD
ATOM     39  H71 UNL     1      15.565   2.175 104.344  1.00  0.00     0.158 HD
ENDBRANCH  29  30
ENDBRANCH  10  29
TORSDOF 8
ENDMDL
