MODEL 1
REMARK VINA RESULT: -5.853017602      0.000      0.000
REMARK  1 active torsions:
REMARK  status: ('A' for Active; 'I' for Inactive)
REMARK    1  A    between atoms: C5_7  and  O2_8 
ROOT
HETATM    1  C1  UNL     1      15.984   6.326  14.684  1.00  0.00     0.310 C 
HETATM    2  N1  UNL     1      15.459   4.980  14.964  1.00  0.00     0.094 N 
HETATM    3  C2  UNL     1      16.338   4.014  14.430  1.00  0.00     0.307 C 
HETATM    4  C3  UNL     1      16.357   2.687  15.069  1.00  0.00     0.182 A 
HETATM    5  O1  UNL     1      17.203   2.717  16.292  1.00  0.00    -0.370 OA
HETATM    6  C4  UNL     1      15.850   2.483  16.354  1.00  0.00     0.189 A 
HETATM    7  C5  UNL     1      14.923   3.539  16.882  1.00  0.00     0.117 C 
HETATM    8  C6  UNL     1      14.845   3.585  18.376  1.00  0.00     0.043 C 
HETATM    9  C7  UNL     1      14.706   4.942  18.955  1.00  0.00     0.003 C 
HETATM   10  C8  UNL     1      13.930   5.922  18.163  1.00  0.00     0.002 C 
HETATM   11  C9  UNL     1      13.993   5.755  16.685  1.00  0.00     0.039 C 
HETATM   12  C10 UNL     1      15.225   4.907  16.370  1.00  0.00     0.259 C 
ENDROOT
BRANCH   7  13
HETATM   13  O2  UNL     1      13.629   3.202  16.418  1.00  0.00    -0.385 OA
ATOM     14  H2  UNL     1      13.557   3.560  15.541  1.00  0.00     0.210 HD
ENDBRANCH   7  13
TORSDOF 1
ENDMDL
MODEL 2
REMARK VINA RESULT: -5.732973021      3.859      5.957
REMARK  1 active torsions:
REMARK  status: ('A' for Active; 'I' for Inactive)
REMARK    1  A    between atoms: C5_7  and  O2_8 
ROOT
HETATM    1  C1  UNL     1      15.440   5.028  13.995  1.00  0.00     0.310 C 
HETATM    2  N1  UNL     1      16.372   5.445  12.935  1.00  0.00     0.094 N 
HETATM    3  C2  UNL     1      17.262   6.413  13.449  1.00  0.00     0.307 C 
HETATM    4  C3  UNL     1      18.586   6.523  12.811  1.00  0.00     0.182 A 
HETATM    5  O1  UNL     1      19.497   5.469  13.332  1.00  0.00    -0.370 OA
HETATM    6  C4  UNL     1      19.105   5.500  12.016  1.00  0.00     0.189 A 
HETATM    7  C5  UNL     1      18.122   4.493  11.495  1.00  0.00     0.117 C 
HETATM    8  C6  UNL     1      18.735   3.175  11.139  1.00  0.00     0.043 C 
HETATM    9  C7  UNL     1      17.892   1.991  11.434  1.00  0.00     0.003 C 
HETATM   10  C8  UNL     1      16.431   2.169  11.287  1.00  0.00     0.002 C 
HETATM   11  C9  UNL     1      15.911   3.533  11.578  1.00  0.00     0.039 C 
HETATM   12  C10 UNL     1      16.967   4.260  12.411  1.00  0.00     0.259 C 
ENDROOT
BRANCH   7  13
HETATM   13  O2  UNL     1      17.595   5.032  10.297  1.00  0.00    -0.385 OA
ATOM     14  H2  UNL     1      18.161   4.731   9.595  1.00  0.00     0.210 HD
ENDBRANCH   7  13
TORSDOF 1
ENDMDL
MODEL 3
REMARK VINA RESULT: -5.654666649      3.982      5.052
REMARK  1 active torsions:
REMARK  status: ('A' for Active; 'I' for Inactive)
REMARK    1  A    between atoms: C5_7  and  O2_8 
ROOT
HETATM    1  C1  UNL     1      20.012   4.710  11.623  1.00  0.00     0.310 C 
HETATM    2  N1  UNL     1      18.666   4.235  11.261  1.00  0.00     0.094 N 
HETATM    3  C2  UNL     1      18.672   2.826  11.188  1.00  0.00     0.307 C 
HETATM    4  C3  UNL     1      17.397   2.129  11.436  1.00  0.00     0.182 A 
HETATM    5  O1  UNL     1      17.152   2.010  12.899  1.00  0.00    -0.370 OA
HETATM    6  C4  UNL     1      16.332   2.756  12.086  1.00  0.00     0.189 A 
HETATM    7  C5  UNL     1      16.371   4.255  12.142  1.00  0.00     0.117 C 
HETATM    8  C6  UNL     1      15.568   4.841  13.260  1.00  0.00     0.043 C 
HETATM    9  C7  UNL     1      16.156   6.047  13.890  1.00  0.00     0.003 C 
HETATM   10  C8  UNL     1      16.918   6.951  13.000  1.00  0.00     0.002 C 
HETATM   11  C9  UNL     1      17.621   6.299  11.861  1.00  0.00     0.039 C 
HETATM   12  C10 UNL     1      17.755   4.813  12.194  1.00  0.00     0.259 C 
ENDROOT
BRANCH   7  13
HETATM   13  O2  UNL     1      15.787   4.715  10.938  1.00  0.00    -0.385 OA
ATOM     14  H2  UNL     1      16.357   4.425  10.235  1.00  0.00     0.210 HD
ENDBRANCH   7  13
TORSDOF 1
ENDMDL
MODEL 4
REMARK VINA RESULT: -5.541601990      1.126      3.556
REMARK  1 active torsions:
REMARK  status: ('A' for Active; 'I' for Inactive)
REMARK    1  A    between atoms: C5_7  and  O2_8 
ROOT
HETATM    1  C1  UNL     1      14.484   6.531  15.648  1.00  0.00     0.310 C 
HETATM    2  N1  UNL     1      15.204   5.426  16.304  1.00  0.00     0.094 N 
HETATM    3  C2  UNL     1      14.393   4.881  17.323  1.00  0.00     0.307 C 
HETATM    4  C3  UNL     1      14.617   3.470  17.685  1.00  0.00     0.182 A 
HETATM    5  O1  UNL     1      13.927   2.575  16.717  1.00  0.00    -0.370 OA
HETATM    6  C4  UNL     1      15.296   2.593  16.837  1.00  0.00     0.189 A 
HETATM    7  C5  UNL     1      16.141   3.218  15.766  1.00  0.00     0.117 C 
HETATM    8  C6  UNL     1      16.392   2.324  14.593  1.00  0.00     0.043 C 
HETATM    9  C7  UNL     1      16.429   3.010  13.279  1.00  0.00     0.003 C 
HETATM   10  C8  UNL     1      16.977   4.384  13.267  1.00  0.00     0.002 C 
HETATM   11  C9  UNL     1      16.758   5.180  14.506  1.00  0.00     0.039 C 
HETATM   12  C10 UNL     1      15.612   4.524  15.277  1.00  0.00     0.259 C 
ENDROOT
BRANCH   7  13
HETATM   13  O2  UNL     1      17.402   3.479  16.354  1.00  0.00    -0.385 OA
ATOM     14  H2  UNL     1      18.021   2.893  15.933  1.00  0.00     0.210 HD
ENDBRANCH   7  13
TORSDOF 1
ENDMDL
MODEL 5
REMARK VINA RESULT: -5.295438943      3.271      5.753
REMARK  1 active torsions:
REMARK  status: ('A' for Active; 'I' for Inactive)
REMARK    1  A    between atoms: C5_7  and  O2_8 
ROOT
HETATM    1  C1  UNL     1      16.014   3.910  15.110  1.00  0.00     0.310 C 
HETATM    2  N1  UNL     1      15.762   4.683  13.882  1.00  0.00     0.094 N 
HETATM    3  C2  UNL     1      15.675   6.055  14.203  1.00  0.00     0.307 C 
HETATM    4  C3  UNL     1      16.022   7.021  13.146  1.00  0.00     0.182 A 
HETATM    5  O1  UNL     1      17.499   7.178  13.058  1.00  0.00    -0.370 OA
HETATM    6  C4  UNL     1      16.764   6.648  12.025  1.00  0.00     0.189 A 
HETATM    7  C5  UNL     1      16.831   5.179  11.725  1.00  0.00     0.117 C 
HETATM    8  C6  UNL     1      18.018   4.780  10.906  1.00  0.00     0.043 C 
HETATM    9  C7  UNL     1      18.608   3.465  11.254  1.00  0.00     0.003 C 
HETATM   10  C8  UNL     1      17.666   2.421  11.712  1.00  0.00     0.002 C 
HETATM   11  C9  UNL     1      16.467   2.906  12.448  1.00  0.00     0.039 C 
HETATM   12  C10 UNL     1      16.773   4.320  12.944  1.00  0.00     0.259 C 
ENDROOT
BRANCH   7  13
HETATM   13  O2  UNL     1      15.685   4.876  10.953  1.00  0.00    -0.385 OA
ATOM     14  H2  UNL     1      15.038   4.529  11.557  1.00  0.00     0.210 HD
ENDBRANCH   7  13
TORSDOF 1
ENDMDL
