MODEL 1
REMARK VINA RESULT: -5.052910111      0.000      0.000
REMARK  1 active torsions:
REMARK  status: ('A' for Active; 'I' for Inactive)
REMARK    1  A    between atoms: O1_1  and  C1_3 
ROOT
HETATM    1  C1  UNL     1      18.873   6.406  12.757  1.00  0.00     0.150 C 
HETATM    2  C2  UNL     1      19.134   5.952  11.349  1.00  0.00     0.305 C 
HETATM    3  N1  UNL     1      17.921   5.382  10.752  1.00  0.00     0.102 N 
HETATM    4  C3  UNL     1      16.909   6.383  10.821  1.00  0.00     0.274 C 
HETATM    5  C4  UNL     1      16.515   6.737  12.252  1.00  0.00     0.037 C 
HETATM    6  C5  UNL     1      17.470   6.019  13.162  1.00  0.00     0.020 C 
HETATM    7  C6  UNL     1      17.303   4.529  12.912  1.00  0.00     0.051 C 
HETATM    8  C7  UNL     1      17.546   4.186  11.452  1.00  0.00     0.183 C 
HETATM    9  C8  UNL     1      18.610   3.137  11.405  1.00  0.00     0.070 C 
HETATM   10  C9  UNL     1      17.852   1.922  10.857  1.00  0.00     0.170 C 
HETATM   11  O2  UNL     1      16.960   2.549   9.983  1.00  0.00    -0.388 OA
HETATM   12  C10 UNL     1      16.375   3.530  10.809  1.00  0.00     0.209 C 
ENDROOT
BRANCH   1  13
HETATM   13  O1  UNL     1      19.769   5.791  13.645  1.00  0.00    -0.393 OA
ATOM     14  H1  UNL     1      19.603   6.076  14.536  1.00  0.00     0.210 HD
ENDBRANCH   1  13
TORSDOF 1
ENDMDL
MODEL 2
REMARK VINA RESULT: -4.632580834      1.328      4.086
REMARK  1 active torsions:
REMARK  status: ('A' for Active; 'I' for Inactive)
REMARK    1  A    between atoms: O1_1  and  C1_3 
ROOT
HETATM    1  C1  UNL     1      16.350   3.879  10.880  1.00  0.00     0.150 C 
HETATM    2  C2  UNL     1      16.769   5.243  10.412  1.00  0.00     0.305 C 
HETATM    3  N1  UNL     1      17.941   5.713  11.159  1.00  0.00     0.102 N 
HETATM    4  C3  UNL     1      18.968   4.740  10.983  1.00  0.00     0.274 C 
HETATM    5  C4  UNL     1      18.622   3.389  11.602  1.00  0.00     0.037 C 
HETATM    6  C5  UNL     1      17.195   3.467  12.063  1.00  0.00     0.020 C 
HETATM    7  C6  UNL     1      17.113   4.571  13.105  1.00  0.00     0.051 C 
HETATM    8  C7  UNL     1      17.599   5.896  12.542  1.00  0.00     0.183 C 
HETATM    9  C8  UNL     1      16.508   6.898  12.735  1.00  0.00     0.070 C 
HETATM   10  C9  UNL     1      17.130   7.875  13.739  1.00  0.00     0.170 C 
HETATM   11  O2  UNL     1      18.465   7.848  13.328  1.00  0.00    -0.388 OA
HETATM   12  C10 UNL     1      18.742   6.466  13.307  1.00  0.00     0.209 C 
ENDROOT
BRANCH   1  13
HETATM   13  O1  UNL     1      15.006   3.889  11.286  1.00  0.00    -0.393 OA
ATOM     14  H1  UNL     1      14.886   3.340  12.052  1.00  0.00     0.210 HD
ENDBRANCH   1  13
TORSDOF 1
ENDMDL
MODEL 3
REMARK VINA RESULT: -4.578050951      1.990      2.823
REMARK  1 active torsions:
REMARK  status: ('A' for Active; 'I' for Inactive)
REMARK    1  A    between atoms: O1_1  and  C1_3 
ROOT
HETATM    1  C1  UNL     1      16.335   7.681  13.026  1.00  0.00     0.150 C 
HETATM    2  C2  UNL     1      16.695   6.557  13.955  1.00  0.00     0.305 C 
HETATM    3  N1  UNL     1      17.706   5.684  13.348  1.00  0.00     0.102 N 
HETATM    4  C3  UNL     1      18.828   6.502  13.026  1.00  0.00     0.274 C 
HETATM    5  C4  UNL     1      18.517   7.546  11.958  1.00  0.00     0.037 C 
HETATM    6  C5  UNL     1      17.038   7.491  11.703  1.00  0.00     0.020 C 
HETATM    7  C6  UNL     1      16.716   6.095  11.197  1.00  0.00     0.051 C 
HETATM    8  C7  UNL     1      17.160   5.034  12.190  1.00  0.00     0.183 C 
HETATM    9  C8  UNL     1      15.969   4.190  12.514  1.00  0.00     0.070 C 
HETATM   10  C9  UNL     1      16.359   2.829  11.926  1.00  0.00     0.170 C 
HETATM   11  O2  UNL     1      17.735   2.832  12.164  1.00  0.00    -0.388 OA
HETATM   12  C10 UNL     1      18.130   4.066  11.609  1.00  0.00     0.209 C 
ENDROOT
BRANCH   1  13
HETATM   13  O1  UNL     1      14.951   7.697  12.787  1.00  0.00    -0.393 OA
ATOM     14  H1  UNL     1      14.773   7.595  11.860  1.00  0.00     0.210 HD
ENDBRANCH   1  13
TORSDOF 1
ENDMDL
MODEL 4
REMARK VINA RESULT: -4.521031884      1.740      2.407
REMARK  1 active torsions:
REMARK  status: ('A' for Active; 'I' for Inactive)
REMARK    1  A    between atoms: O1_1  and  C1_3 
ROOT
HETATM    1  C1  UNL     1      19.460   6.027  10.315  1.00  0.00     0.150 C 
HETATM    2  C2  UNL     1      17.964   6.155  10.275  1.00  0.00     0.305 C 
HETATM    3  N1  UNL     1      17.360   5.588  11.486  1.00  0.00     0.102 N 
HETATM    4  C3  UNL     1      17.934   6.269  12.599  1.00  0.00     0.274 C 
HETATM    5  C4  UNL     1      19.431   6.013  12.748  1.00  0.00     0.037 C 
HETATM    6  C5  UNL     1      19.869   5.240  11.537  1.00  0.00     0.020 C 
HETATM    7  C6  UNL     1      19.099   3.929  11.532  1.00  0.00     0.051 C 
HETATM    8  C7  UNL     1      17.599   4.173  11.536  1.00  0.00     0.183 C 
HETATM    9  C8  UNL     1      17.019   3.452  10.362  1.00  0.00     0.070 C 
HETATM   10  C9  UNL     1      16.157   2.374  11.028  1.00  0.00     0.170 C 
HETATM   11  O2  UNL     1      15.710   3.065  12.157  1.00  0.00    -0.388 OA
HETATM   12  C10 UNL     1      16.914   3.553  12.703  1.00  0.00     0.209 C 
ENDROOT
BRANCH   1  13
HETATM   13  O1  UNL     1      19.924   5.343   9.180  1.00  0.00    -0.393 OA
ATOM     14  H1  UNL     1      19.195   4.993   8.681  1.00  0.00     0.210 HD
ENDBRANCH   1  13
TORSDOF 1
ENDMDL
MODEL 5
REMARK VINA RESULT: -4.505242110      1.669      2.301
REMARK  1 active torsions:
REMARK  status: ('A' for Active; 'I' for Inactive)
REMARK    1  A    between atoms: O1_1  and  C1_3 
ROOT
HETATM    1  C1  UNL     1      16.812   6.435  12.367  1.00  0.00     0.150 C 
HETATM    2  C2  UNL     1      17.812   5.534  13.031  1.00  0.00     0.305 C 
HETATM    3  N1  UNL     1      18.381   4.586  12.067  1.00  0.00     0.102 N 
HETATM    4  C3  UNL     1      18.959   5.355  11.015  1.00  0.00     0.274 C 
HETATM    5  C4  UNL     1      17.927   6.152  10.222  1.00  0.00     0.037 C 
HETATM    6  C5  UNL     1      16.613   6.002  10.934  1.00  0.00     0.020 C 
HETATM    7  C6  UNL     1      16.262   4.523  10.934  1.00  0.00     0.051 C 
HETATM    8  C7  UNL     1      17.358   3.699  11.590  1.00  0.00     0.183 C 
HETATM    9  C8  UNL     1      16.730   2.903  12.689  1.00  0.00     0.070 C 
HETATM   10  C9  UNL     1      16.889   1.464  12.187  1.00  0.00     0.170 C 
HETATM   11  O2  UNL     1      18.120   1.555  11.533  1.00  0.00    -0.388 OA
HETATM   12  C10 UNL     1      17.924   2.662  10.683  1.00  0.00     0.209 C 
ENDROOT
BRANCH   1  13
HETATM   13  O1  UNL     1      15.572   6.361  13.022  1.00  0.00    -0.393 OA
ATOM     14  H1  UNL     1      14.882   6.704  12.466  1.00  0.00     0.210 HD
ENDBRANCH   1  13
TORSDOF 1
ENDMDL
