MODEL 1
REMARK VINA RESULT: -9.739890809      0.000      0.000
REMARK  15 active torsions:
REMARK  status: ('A' for Active; 'I' for Inactive)
REMARK    1  A    between atoms: C4_7  and  C5_8 
REMARK    2  A    between atoms: C5_8  and  C6_9 
REMARK    3  A    between atoms: C6_9  and  C7_10 
REMARK    4  A    between atoms: N2_13  and  C9_14 
REMARK    5  A    between atoms: C9_14  and  C10_15 
REMARK    6  A    between atoms: C10_15  and  C13_18 
REMARK       I    between atoms: C13_18  and  N3_20 
REMARK    7  A    between atoms: N3_20  and  C14_22 
REMARK    8  A    between atoms: N4_29  and  C20_30 
REMARK    9  A    between atoms: C20_30  and  C21_31 
REMARK   10  A    between atoms: C21_31  and  C22_32 
REMARK   11  A    between atoms: C22_32  and  C23_33 
REMARK   12  A    between atoms: C23_33  and  N5_34 
REMARK       I    between atoms: N5_34  and  C24_36 
REMARK       I    between atoms: C24_36  and  N6_38 
REMARK   13  A    between atoms: N6_38  and  C25_40 
REMARK   14  A    between atoms: C25_40  and  C26_41 
REMARK   15  A    between atoms: C34_50  and  C35_51 
ROOT
HETATM    1  C1  UNL     1      19.094  35.965  18.443  1.00  0.00     0.014 C 
HETATM    2  C2  UNL     1      18.566  35.004  17.925  1.00  0.00    -0.084 C 
HETATM    3  C3  UNL     1      17.929  33.847  17.299  1.00  0.00     0.267 C 
HETATM    4  N1  UNL     1      18.935  32.851  17.080  1.00  0.00    -0.056 N 
ATOM      5  H11 UNL     1      19.498  32.698  17.917  1.00  0.00     0.279 HD
ATOM      6  H12 UNL     1      19.668  33.190  16.458  1.00  0.00     0.279 HD
HETATM    7  C4  UNL     1      18.349  31.601  16.590  1.00  0.00     0.187 C 
HETATM    8  C32 UNL     1      17.639  31.827  15.294  1.00  0.00     0.033 C 
HETATM    9  C33 UNL     1      16.642  32.947  15.442  1.00  0.00     0.010 C 
HETATM   10  C34 UNL     1      17.364  34.191  15.918  1.00  0.00     0.028 C 
ENDROOT
BRANCH  10  11
HETATM   11  C35 UNL     1      16.433  35.375  16.023  1.00  0.00     0.003 C 
HETATM   12  C36 UNL     1      15.206  34.927  16.784  1.00  0.00     0.005 C 
ENDBRANCH  10  11
BRANCH   7  13
HETATM   13  C5  UNL     1      19.532  30.651  16.425  1.00  0.00     0.035 C 
BRANCH  13  14
HETATM   14  C6  UNL     1      19.468  30.053  15.056  1.00  0.00     0.037 C 
BRANCH  14  15
HETATM   15  C7  UNL     1      20.726  30.212  14.243  1.00  0.00     0.179 C 
HETATM   16  C8  UNL     1      20.943  28.930  13.452  1.00  0.00     0.243 C 
HETATM   17  O1  UNL     1      21.917  28.232  13.779  1.00  0.00    -0.271 OA
HETATM   18  N2  UNL     1      20.056  28.585  12.406  1.00  0.00    -0.341 N 
HETATM   19  C18 UNL     1      19.385  29.658  11.710  1.00  0.00     0.228 C 
HETATM   20  C19 UNL     1      19.851  31.002  12.118  1.00  0.00     0.238 C 
HETATM   21  O3  UNL     1      19.619  31.979  11.335  1.00  0.00    -0.272 OA
HETATM   22  N4  UNL     1      20.536  31.304  13.310  1.00  0.00    -0.337 N 
BRANCH  18  23
HETATM   23  C9  UNL     1      19.808  27.244  12.038  1.00  0.00     0.144 C 
BRANCH  23  24
HETATM   24  C10 UNL     1      20.286  26.732  10.740  1.00  0.00     0.050 C 
HETATM   25  C11 UNL     1      19.500  27.076   9.523  1.00  0.00     0.027 C 
HETATM   26  C12 UNL     1      20.543  25.237  10.848  1.00  0.00     0.027 C 
BRANCH  24  27
HETATM   27  C13 UNL     1      21.662  27.334  10.536  1.00  0.00     0.228 C 
HETATM   28  O2  UNL     1      21.842  28.286   9.737  1.00  0.00    -0.273 OA
HETATM   29  N3  UNL     1      22.799  26.855  11.232  1.00  0.00    -0.352 N 
ATOM     30  H3  UNL     1      22.683  26.082  11.886  1.00  0.00     0.163 HD
BRANCH  29  31
HETATM   31  C14 UNL     1      24.118  27.418  11.051  1.00  0.00     0.022 C 
HETATM   32  C15 UNL     1      24.639  27.068   9.651  1.00  0.00     0.037 C 
HETATM   33  C16 UNL     1      24.145  28.916  11.142  1.00  0.00     0.037 C 
HETATM   34  C17 UNL     1      25.109  26.827  12.020  1.00  0.00     0.037 C 
ENDBRANCH  29  31
ENDBRANCH  24  27
ENDBRANCH  23  24
ENDBRANCH  18  23
BRANCH  22  35
HETATM   35  C20 UNL     1      21.028  32.600  13.627  1.00  0.00     0.127 C 
BRANCH  35  36
HETATM   36  C21 UNL     1      22.501  32.689  13.919  1.00  0.00     0.021 C 
BRANCH  36  37
HETATM   37  C22 UNL     1      22.980  34.051  14.288  1.00  0.00     0.021 C 
BRANCH  37  38
HETATM   38  C23 UNL     1      22.123  34.638  15.379  1.00  0.00     0.124 C 
BRANCH  38  39
HETATM   39  N5  UNL     1      21.598  35.933  15.018  1.00  0.00    -0.343 N 
HETATM   40  C24 UNL     1      21.783  37.079  15.882  1.00  0.00     0.319 C 
HETATM   41  O4  UNL     1      22.410  36.865  16.925  1.00  0.00    -0.247 OA
HETATM   42  N6  UNL     1      21.278  38.340  15.539  1.00  0.00    -0.322 N 
ATOM     43  H6  UNL     1      20.822  38.363  14.627  1.00  0.00     0.169 HD
ATOM     44  H5  UNL     1      21.089  36.042  14.140  1.00  0.00     0.164 HD
BRANCH  42  45
HETATM   45  C25 UNL     1      21.274  39.574  16.201  1.00  0.00     0.070 C 
BRANCH  45  46
HETATM   46  C26 UNL     1      20.018  40.238  16.623  1.00  0.00     0.027 C 
HETATM   47  C27 UNL     1      19.048  39.185  17.136  1.00  0.00     0.040 C 
HETATM   48  C28 UNL     1      17.619  39.616  17.020  1.00  0.00     0.272 C 
HETATM   49  N7  UNL     1      17.489  41.027  17.288  1.00  0.00     0.084 N 
HETATM   50  C29 UNL     1      17.909  41.438  18.590  1.00  0.00     0.309 C 
HETATM   51  C30 UNL     1      18.063  41.741  16.191  1.00  0.00     0.272 C 
HETATM   52  C31 UNL     1      19.407  41.217  15.729  1.00  0.00     0.040 C 
ENDBRANCH  45  46
ENDBRANCH  42  45
ENDBRANCH  38  39
ENDBRANCH  37  38
ENDBRANCH  36  37
ENDBRANCH  35  36
ENDBRANCH  22  35
ENDBRANCH  14  15
ENDBRANCH  13  14
ENDBRANCH   7  13
TORSDOF 15
ENDMDL
MODEL 2
REMARK VINA RESULT: -9.516574636      1.377      2.137
REMARK  15 active torsions:
REMARK  status: ('A' for Active; 'I' for Inactive)
REMARK    1  A    between atoms: C4_7  and  C5_8 
REMARK    2  A    between atoms: C5_8  and  C6_9 
REMARK    3  A    between atoms: C6_9  and  C7_10 
REMARK    4  A    between atoms: N2_13  and  C9_14 
REMARK    5  A    between atoms: C9_14  and  C10_15 
REMARK    6  A    between atoms: C10_15  and  C13_18 
REMARK       I    between atoms: C13_18  and  N3_20 
REMARK    7  A    between atoms: N3_20  and  C14_22 
REMARK    8  A    between atoms: N4_29  and  C20_30 
REMARK    9  A    between atoms: C20_30  and  C21_31 
REMARK   10  A    between atoms: C21_31  and  C22_32 
REMARK   11  A    between atoms: C22_32  and  C23_33 
REMARK   12  A    between atoms: C23_33  and  N5_34 
REMARK       I    between atoms: N5_34  and  C24_36 
REMARK       I    between atoms: C24_36  and  N6_38 
REMARK   13  A    between atoms: N6_38  and  C25_40 
REMARK   14  A    between atoms: C25_40  and  C26_41 
REMARK   15  A    between atoms: C34_50  and  C35_51 
ROOT
HETATM    1  C1  UNL     1      18.783  36.103  18.293  1.00  0.00     0.014 C 
HETATM    2  C2  UNL     1      18.315  35.106  17.786  1.00  0.00    -0.084 C 
HETATM    3  C3  UNL     1      17.750  33.906  17.173  1.00  0.00     0.267 C 
HETATM    4  N1  UNL     1      18.806  32.953  17.007  1.00  0.00    -0.056 N 
ATOM      5  H11 UNL     1      19.352  32.847  17.862  1.00  0.00     0.279 HD
ATOM      6  H12 UNL     1      19.540  33.310  16.396  1.00  0.00     0.279 HD
HETATM    7  C4  UNL     1      18.293  31.665  16.534  1.00  0.00     0.187 C 
HETATM    8  C32 UNL     1      17.610  31.826  15.214  1.00  0.00     0.033 C 
HETATM    9  C33 UNL     1      16.558  32.901  15.306  1.00  0.00     0.010 C 
HETATM   10  C34 UNL     1      17.208  34.189  15.769  1.00  0.00     0.028 C 
ENDROOT
BRANCH  10  11
HETATM   11  C35 UNL     1      16.221  35.331  15.819  1.00  0.00     0.003 C 
HETATM   12  C36 UNL     1      15.114  34.937  16.770  1.00  0.00     0.005 C 
ENDBRANCH  10  11
BRANCH   7  13
HETATM   13  C5  UNL     1      19.522  30.768  16.425  1.00  0.00     0.035 C 
BRANCH  13  14
HETATM   14  C6  UNL     1      19.480  30.070  15.103  1.00  0.00     0.037 C 
BRANCH  14  15
HETATM   15  C7  UNL     1      20.725  30.229  14.270  1.00  0.00     0.179 C 
HETATM   16  C8  UNL     1      20.918  28.955  13.461  1.00  0.00     0.243 C 
HETATM   17  O1  UNL     1      21.893  28.246  13.763  1.00  0.00    -0.271 OA
HETATM   18  N2  UNL     1      20.010  28.628  12.427  1.00  0.00    -0.341 N 
HETATM   19  C18 UNL     1      19.335  29.713  11.755  1.00  0.00     0.228 C 
HETATM   20  C19 UNL     1      19.818  31.049  12.170  1.00  0.00     0.238 C 
HETATM   21  O3  UNL     1      19.580  32.036  11.402  1.00  0.00    -0.272 OA
HETATM   22  N4  UNL     1      20.526  31.333  13.352  1.00  0.00    -0.337 N 
BRANCH  18  23
HETATM   23  C9  UNL     1      19.746  27.293  12.048  1.00  0.00     0.144 C 
BRANCH  23  24
HETATM   24  C10 UNL     1      20.240  26.778  10.757  1.00  0.00     0.050 C 
HETATM   25  C11 UNL     1      19.463  27.112   9.531  1.00  0.00     0.027 C 
HETATM   26  C12 UNL     1      20.504  25.285  10.874  1.00  0.00     0.027 C 
BRANCH  24  27
HETATM   27  C13 UNL     1      21.614  27.387  10.563  1.00  0.00     0.228 C 
HETATM   28  O2  UNL     1      21.776  28.410   9.853  1.00  0.00    -0.273 OA
HETATM   29  N3  UNL     1      22.769  26.835  11.169  1.00  0.00    -0.352 N 
ATOM     30  H3  UNL     1      22.667  26.004  11.751  1.00  0.00     0.163 HD
BRANCH  29  31
HETATM   31  C14 UNL     1      24.087  27.404  10.997  1.00  0.00     0.022 C 
HETATM   32  C15 UNL     1      24.641  27.010   9.622  1.00  0.00     0.037 C 
HETATM   33  C16 UNL     1      24.099  28.904  11.035  1.00  0.00     0.037 C 
HETATM   34  C17 UNL     1      25.061  26.857  12.008  1.00  0.00     0.037 C 
ENDBRANCH  29  31
ENDBRANCH  24  27
ENDBRANCH  23  24
ENDBRANCH  18  23
BRANCH  22  35
HETATM   35  C20 UNL     1      21.033  32.621  13.676  1.00  0.00     0.127 C 
BRANCH  35  36
HETATM   36  C21 UNL     1      22.513  32.698  13.937  1.00  0.00     0.021 C 
BRANCH  36  37
HETATM   37  C22 UNL     1      22.996  34.034  14.385  1.00  0.00     0.021 C 
BRANCH  37  38
HETATM   38  C23 UNL     1      22.137  34.563  15.504  1.00  0.00     0.124 C 
BRANCH  38  39
HETATM   39  N5  UNL     1      21.488  35.802  15.149  1.00  0.00    -0.343 N 
HETATM   40  C24 UNL     1      21.776  37.025  15.867  1.00  0.00     0.319 C 
HETATM   41  O4  UNL     1      22.599  36.926  16.783  1.00  0.00    -0.247 OA
HETATM   42  N6  UNL     1      21.151  38.233  15.529  1.00  0.00    -0.322 N 
ATOM     43  H6  UNL     1      20.529  38.160  14.724  1.00  0.00     0.169 HD
ATOM     44  H5  UNL     1      20.817  35.816  14.381  1.00  0.00     0.164 HD
BRANCH  42  45
HETATM   45  C25 UNL     1      21.210  39.520  16.079  1.00  0.00     0.070 C 
BRANCH  45  46
HETATM   46  C26 UNL     1      21.937  40.627  15.414  1.00  0.00     0.027 C 
HETATM   47  C27 UNL     1      21.714  40.536  13.913  1.00  0.00     0.040 C 
HETATM   48  C28 UNL     1      22.818  41.177  13.129  1.00  0.00     0.272 C 
HETATM   49  N7  UNL     1      23.300  42.359  13.801  1.00  0.00     0.084 N 
HETATM   50  C29 UNL     1      22.325  43.383  13.998  1.00  0.00     0.309 C 
HETATM   51  C30 UNL     1      24.018  41.946  14.966  1.00  0.00     0.272 C 
HETATM   52  C31 UNL     1      23.325  40.881  15.791  1.00  0.00     0.040 C 
ENDBRANCH  45  46
ENDBRANCH  42  45
ENDBRANCH  38  39
ENDBRANCH  37  38
ENDBRANCH  36  37
ENDBRANCH  35  36
ENDBRANCH  22  35
ENDBRANCH  14  15
ENDBRANCH  13  14
ENDBRANCH   7  13
TORSDOF 15
ENDMDL
MODEL 3
REMARK VINA RESULT: -9.311878520      1.452      2.697
REMARK  15 active torsions:
REMARK  status: ('A' for Active; 'I' for Inactive)
REMARK    1  A    between atoms: C4_7  and  C5_8 
REMARK    2  A    between atoms: C5_8  and  C6_9 
REMARK    3  A    between atoms: C6_9  and  C7_10 
REMARK    4  A    between atoms: N2_13  and  C9_14 
REMARK    5  A    between atoms: C9_14  and  C10_15 
REMARK    6  A    between atoms: C10_15  and  C13_18 
REMARK       I    between atoms: C13_18  and  N3_20 
REMARK    7  A    between atoms: N3_20  and  C14_22 
REMARK    8  A    between atoms: N4_29  and  C20_30 
REMARK    9  A    between atoms: C20_30  and  C21_31 
REMARK   10  A    between atoms: C21_31  and  C22_32 
REMARK   11  A    between atoms: C22_32  and  C23_33 
REMARK   12  A    between atoms: C23_33  and  N5_34 
REMARK       I    between atoms: N5_34  and  C24_36 
REMARK       I    between atoms: C24_36  and  N6_38 
REMARK   13  A    between atoms: N6_38  and  C25_40 
REMARK   14  A    between atoms: C25_40  and  C26_41 
REMARK   15  A    between atoms: C34_50  and  C35_51 
ROOT
HETATM    1  C1  UNL     1      19.091  35.910  18.574  1.00  0.00     0.014 C 
HETATM    2  C2  UNL     1      18.562  34.976  18.009  1.00  0.00    -0.084 C 
HETATM    3  C3  UNL     1      17.923  33.853  17.328  1.00  0.00     0.267 C 
HETATM    4  N1  UNL     1      18.920  32.851  17.094  1.00  0.00    -0.056 N 
ATOM      5  H11 UNL     1      19.462  32.659  17.936  1.00  0.00     0.279 HD
ATOM      6  H12 UNL     1      19.671  33.202  16.500  1.00  0.00     0.279 HD
HETATM    7  C4  UNL     1      18.328  31.628  16.545  1.00  0.00     0.187 C 
HETATM    8  C32 UNL     1      17.650  31.912  15.244  1.00  0.00     0.033 C 
HETATM    9  C33 UNL     1      16.665  33.040  15.411  1.00  0.00     0.010 C 
HETATM   10  C34 UNL     1      17.393  34.255  15.948  1.00  0.00     0.028 C 
ENDROOT
BRANCH  10  11
HETATM   11  C35 UNL     1      16.477  35.448  16.077  1.00  0.00     0.003 C 
HETATM   12  C36 UNL     1      15.210  34.980  16.756  1.00  0.00     0.005 C 
ENDBRANCH  10  11
BRANCH   7  13
HETATM   13  C5  UNL     1      19.501  30.668  16.370  1.00  0.00     0.035 C 
BRANCH  13  14
HETATM   14  C6  UNL     1      19.434  30.089  14.993  1.00  0.00     0.037 C 
BRANCH  14  15
HETATM   15  C7  UNL     1      20.693  30.250  14.183  1.00  0.00     0.179 C 
HETATM   16  C8  UNL     1      20.893  28.984  13.363  1.00  0.00     0.243 C 
HETATM   17  O1  UNL     1      21.858  28.266  13.672  1.00  0.00    -0.271 OA
HETATM   18  N2  UNL     1      20.001  28.674  12.310  1.00  0.00    -0.341 N 
HETATM   19  C18 UNL     1      19.343  29.772  11.640  1.00  0.00     0.228 C 
HETATM   20  C19 UNL     1      19.826  31.100  12.078  1.00  0.00     0.238 C 
HETATM   21  O3  UNL     1      19.607  32.097  11.317  1.00  0.00    -0.272 OA
HETATM   22  N4  UNL     1      20.516  31.366  13.275  1.00  0.00    -0.337 N 
BRANCH  18  23
HETATM   23  C9  UNL     1      19.735  27.345  11.911  1.00  0.00     0.144 C 
BRANCH  23  24
HETATM   24  C10 UNL     1      20.562  26.705  10.871  1.00  0.00     0.050 C 
HETATM   25  C11 UNL     1      21.490  25.619  11.290  1.00  0.00     0.027 C 
HETATM   26  C12 UNL     1      21.271  27.776  10.057  1.00  0.00     0.027 C 
BRANCH  24  27
HETATM   27  C13 UNL     1      19.590  26.075   9.894  1.00  0.00     0.228 C 
HETATM   28  O2  UNL     1      19.100  24.939  10.108  1.00  0.00    -0.273 OA
HETATM   29  N3  UNL     1      19.193  26.734   8.704  1.00  0.00    -0.352 N 
ATOM     30  H3  UNL     1      19.576  27.657   8.504  1.00  0.00     0.163 HD
BRANCH  29  31
HETATM   31  C14 UNL     1      18.266  26.148   7.762  1.00  0.00     0.022 C 
HETATM   32  C15 UNL     1      18.938  24.972   7.042  1.00  0.00     0.037 C 
HETATM   33  C16 UNL     1      17.032  25.589   8.408  1.00  0.00     0.037 C 
HETATM   34  C17 UNL     1      17.882  27.128   6.684  1.00  0.00     0.037 C 
ENDBRANCH  29  31
ENDBRANCH  24  27
ENDBRANCH  23  24
ENDBRANCH  18  23
BRANCH  22  35
HETATM   35  C20 UNL     1      21.025  32.647  13.622  1.00  0.00     0.127 C 
BRANCH  35  36
HETATM   36  C21 UNL     1      22.141  32.660  14.632  1.00  0.00     0.021 C 
BRANCH  36  37
HETATM   37  C22 UNL     1      22.045  33.742  15.650  1.00  0.00     0.021 C 
BRANCH  37  38
HETATM   38  C23 UNL     1      22.614  35.030  15.114  1.00  0.00     0.124 C 
BRANCH  38  39
HETATM   39  N5  UNL     1      21.640  36.094  15.112  1.00  0.00    -0.343 N 
HETATM   40  C24 UNL     1      21.602  37.070  16.180  1.00  0.00     0.319 C 
HETATM   41  O4  UNL     1      22.446  36.922  17.069  1.00  0.00    -0.247 OA
HETATM   42  N6  UNL     1      20.659  38.107  16.186  1.00  0.00    -0.322 N 
ATOM     43  H6  UNL     1      20.058  38.118  15.361  1.00  0.00     0.169 HD
ATOM     44  H5  UNL     1      20.969  36.160  14.347  1.00  0.00     0.164 HD
BRANCH  42  45
HETATM   45  C25 UNL     1      20.379  39.131  17.100  1.00  0.00     0.070 C 
BRANCH  45  46
HETATM   46  C26 UNL     1      19.007  39.656  17.297  1.00  0.00     0.027 C 
HETATM   47  C27 UNL     1      18.880  40.190  18.715  1.00  0.00     0.040 C 
HETATM   48  C28 UNL     1      17.465  40.181  19.206  1.00  0.00     0.272 C 
HETATM   49  N7  UNL     1      16.552  40.508  18.138  1.00  0.00     0.084 N 
HETATM   50  C29 UNL     1      16.745  41.794  17.549  1.00  0.00     0.309 C 
HETATM   51  C30 UNL     1      16.517  39.403  17.231  1.00  0.00     0.272 C 
HETATM   52  C31 UNL     1      17.875  38.838  16.871  1.00  0.00     0.040 C 
ENDBRANCH  45  46
ENDBRANCH  42  45
ENDBRANCH  38  39
ENDBRANCH  37  38
ENDBRANCH  36  37
ENDBRANCH  35  36
ENDBRANCH  22  35
ENDBRANCH  14  15
ENDBRANCH  13  14
ENDBRANCH   7  13
TORSDOF 15
ENDMDL
MODEL 4
REMARK VINA RESULT: -9.248677598      2.844     11.795
REMARK  15 active torsions:
REMARK  status: ('A' for Active; 'I' for Inactive)
REMARK    1  A    between atoms: C4_7  and  C5_8 
REMARK    2  A    between atoms: C5_8  and  C6_9 
REMARK    3  A    between atoms: C6_9  and  C7_10 
REMARK    4  A    between atoms: N2_13  and  C9_14 
REMARK    5  A    between atoms: C9_14  and  C10_15 
REMARK    6  A    between atoms: C10_15  and  C13_18 
REMARK       I    between atoms: C13_18  and  N3_20 
REMARK    7  A    between atoms: N3_20  and  C14_22 
REMARK    8  A    between atoms: N4_29  and  C20_30 
REMARK    9  A    between atoms: C20_30  and  C21_31 
REMARK   10  A    between atoms: C21_31  and  C22_32 
REMARK   11  A    between atoms: C22_32  and  C23_33 
REMARK   12  A    between atoms: C23_33  and  N5_34 
REMARK       I    between atoms: N5_34  and  C24_36 
REMARK       I    between atoms: C24_36  and  N6_38 
REMARK   13  A    between atoms: N6_38  and  C25_40 
REMARK   14  A    between atoms: C25_40  and  C26_41 
REMARK   15  A    between atoms: C34_50  and  C35_51 
ROOT
HETATM    1  C1  UNL     1      21.582  25.215  11.098  1.00  0.00     0.014 C 
HETATM    2  C2  UNL     1      20.879  26.199  11.186  1.00  0.00    -0.084 C 
HETATM    3  C3  UNL     1      20.032  27.384  11.292  1.00  0.00     0.267 C 
HETATM    4  N1  UNL     1      19.676  27.555  12.669  1.00  0.00    -0.056 N 
ATOM      5  H11 UNL     1      20.493  27.491  13.277  1.00  0.00     0.279 HD
ATOM      6  H12 UNL     1      19.154  26.755  13.023  1.00  0.00     0.279 HD
HETATM    7  C4  UNL     1      18.947  28.808  12.880  1.00  0.00     0.187 C 
HETATM    8  C32 UNL     1      17.687  28.823  12.076  1.00  0.00     0.033 C 
HETATM    9  C33 UNL     1      17.995  28.537  10.629  1.00  0.00     0.010 C 
HETATM   10  C34 UNL     1      18.714  27.207  10.532  1.00  0.00     0.028 C 
ENDROOT
BRANCH  10  11
HETATM   11  C35 UNL     1      18.995  26.823   9.098  1.00  0.00     0.003 C 
HETATM   12  C36 UNL     1      17.698  26.943   8.331  1.00  0.00     0.005 C 
ENDBRANCH  10  11
BRANCH   7  13
HETATM   13  C5  UNL     1      18.660  28.848  14.377  1.00  0.00     0.035 C 
BRANCH  13  14
HETATM   14  C6  UNL     1      19.299  30.075  14.947  1.00  0.00     0.037 C 
BRANCH  14  15
HETATM   15  C7  UNL     1      20.035  30.922  13.943  1.00  0.00     0.179 C 
HETATM   16  C8  UNL     1      19.182  32.144  13.640  1.00  0.00     0.243 C 
HETATM   17  O1  UNL     1      18.696  32.216  12.499  1.00  0.00    -0.271 OA
HETATM   18  N2  UNL     1      18.973  33.127  14.636  1.00  0.00    -0.341 N 
HETATM   19  C18 UNL     1      19.998  33.298  15.639  1.00  0.00     0.228 C 
HETATM   20  C19 UNL     1      21.210  32.490  15.381  1.00  0.00     0.238 C 
HETATM   21  O3  UNL     1      22.291  32.831  15.962  1.00  0.00    -0.272 OA
HETATM   22  N4  UNL     1      21.280  31.364  14.539  1.00  0.00    -0.337 N 
BRANCH  18  23
HETATM   23  C9  UNL     1      17.807  33.924  14.678  1.00  0.00     0.144 C 
BRANCH  23  24
HETATM   24  C10 UNL     1      16.744  33.628  15.656  1.00  0.00     0.050 C 
HETATM   25  C11 UNL     1      16.775  32.306  16.340  1.00  0.00     0.027 C 
HETATM   26  C12 UNL     1      15.387  33.914  15.032  1.00  0.00     0.027 C 
BRANCH  24  27
HETATM   27  C13 UNL     1      16.880  34.671  16.749  1.00  0.00     0.228 C 
HETATM   28  O2  UNL     1      16.954  34.338  17.957  1.00  0.00    -0.273 OA
HETATM   29  N3  UNL     1      16.929  36.056  16.459  1.00  0.00    -0.352 N 
ATOM     30  H3  UNL     1      16.870  36.355  15.486  1.00  0.00     0.163 HD
BRANCH  29  31
HETATM   31  C14 UNL     1      17.061  37.063  17.487  1.00  0.00     0.022 C 
HETATM   32  C15 UNL     1      16.798  38.450  16.886  1.00  0.00     0.037 C 
HETATM   33  C16 UNL     1      16.075  36.904  18.608  1.00  0.00     0.037 C 
HETATM   34  C17 UNL     1      18.462  37.110  18.039  1.00  0.00     0.037 C 
ENDBRANCH  29  31
ENDBRANCH  24  27
ENDBRANCH  23  24
ENDBRANCH  18  23
BRANCH  22  35
HETATM   35  C20 UNL     1      22.485  30.661  14.265  1.00  0.00     0.127 C 
BRANCH  35  36
HETATM   36  C21 UNL     1      22.559  29.983  12.923  1.00  0.00     0.021 C 
BRANCH  36  37
HETATM   37  C22 UNL     1      23.447  28.789  12.879  1.00  0.00     0.021 C 
BRANCH  37  38
HETATM   38  C23 UNL     1      24.534  28.972  11.851  1.00  0.00     0.124 C 
BRANCH  38  39
HETATM   39  N5  UNL     1      24.682  27.813  11.006  1.00  0.00    -0.343 N 
HETATM   40  C24 UNL     1      23.979  27.716   9.745  1.00  0.00     0.319 C 
HETATM   41  O4  UNL     1      23.261  28.680   9.458  1.00  0.00    -0.247 OA
HETATM   42  N6  UNL     1      24.117  26.594   8.918  1.00  0.00    -0.322 N 
ATOM     43  H6  UNL     1      24.778  25.902   9.273  1.00  0.00     0.169 HD
ATOM     44  H5  UNL     1      25.291  27.050  11.301  1.00  0.00     0.164 HD
BRANCH  42  45
HETATM   45  C25 UNL     1      23.528  26.233   7.699  1.00  0.00     0.070 C 
BRANCH  45  46
HETATM   46  C26 UNL     1      23.941  25.020   6.953  1.00  0.00     0.027 C 
HETATM   47  C27 UNL     1      23.673  25.234   5.472  1.00  0.00     0.040 C 
HETATM   48  C28 UNL     1      23.480  23.946   4.732  1.00  0.00     0.272 C 
HETATM   49  N7  UNL     1      24.353  22.923   5.253  1.00  0.00     0.084 N 
HETATM   50  C29 UNL     1      25.748  23.213   5.159  1.00  0.00     0.309 C 
HETATM   51  C30 UNL     1      23.877  22.550   6.548  1.00  0.00     0.272 C 
HETATM   52  C31 UNL     1      23.515  23.714   7.448  1.00  0.00     0.040 C 
ENDBRANCH  45  46
ENDBRANCH  42  45
ENDBRANCH  38  39
ENDBRANCH  37  38
ENDBRANCH  36  37
ENDBRANCH  35  36
ENDBRANCH  22  35
ENDBRANCH  14  15
ENDBRANCH  13  14
ENDBRANCH   7  13
TORSDOF 15
ENDMDL
MODEL 5
REMARK VINA RESULT: -9.210180958      2.806     11.606
REMARK  15 active torsions:
REMARK  status: ('A' for Active; 'I' for Inactive)
REMARK    1  A    between atoms: C4_7  and  C5_8 
REMARK    2  A    between atoms: C5_8  and  C6_9 
REMARK    3  A    between atoms: C6_9  and  C7_10 
REMARK    4  A    between atoms: N2_13  and  C9_14 
REMARK    5  A    between atoms: C9_14  and  C10_15 
REMARK    6  A    between atoms: C10_15  and  C13_18 
REMARK       I    between atoms: C13_18  and  N3_20 
REMARK    7  A    between atoms: N3_20  and  C14_22 
REMARK    8  A    between atoms: N4_29  and  C20_30 
REMARK    9  A    between atoms: C20_30  and  C21_31 
REMARK   10  A    between atoms: C21_31  and  C22_32 
REMARK   11  A    between atoms: C22_32  and  C23_33 
REMARK   12  A    between atoms: C23_33  and  N5_34 
REMARK       I    between atoms: N5_34  and  C24_36 
REMARK       I    between atoms: C24_36  and  N6_38 
REMARK   13  A    between atoms: N6_38  and  C25_40 
REMARK   14  A    between atoms: C25_40  and  C26_41 
REMARK   15  A    between atoms: C34_50  and  C35_51 
ROOT
HETATM    1  C1  UNL     1      20.968  24.847  11.271  1.00  0.00     0.014 C 
HETATM    2  C2  UNL     1      20.388  25.911  11.287  1.00  0.00    -0.084 C 
HETATM    3  C3  UNL     1      19.688  27.194  11.306  1.00  0.00     0.267 C 
HETATM    4  N1  UNL     1      19.225  27.427  12.641  1.00  0.00    -0.056 N 
ATOM      5  H11 UNL     1      19.964  27.272  13.326  1.00  0.00     0.279 HD
ATOM      6  H12 UNL     1      18.575  26.703  12.944  1.00  0.00     0.279 HD
HETATM    7  C4  UNL     1      18.640  28.764  12.776  1.00  0.00     0.187 C 
HETATM    8  C32 UNL     1      17.475  28.922  11.853  1.00  0.00     0.033 C 
HETATM    9  C33 UNL     1      17.884  28.579  10.444  1.00  0.00     0.010 C 
HETATM   10  C34 UNL     1      18.438  27.169  10.421  1.00  0.00     0.028 C 
ENDROOT
BRANCH  10  11
HETATM   11  C35 UNL     1      18.807  26.733   9.023  1.00  0.00     0.003 C 
HETATM   12  C36 UNL     1      17.788  25.708   8.580  1.00  0.00     0.005 C 
ENDBRANCH  10  11
BRANCH   7  13
HETATM   13  C5  UNL     1      18.216  28.861  14.238  1.00  0.00     0.035 C 
BRANCH  13  14
HETATM   14  C6  UNL     1      19.108  29.847  14.923  1.00  0.00     0.037 C 
BRANCH  14  15
HETATM   15  C7  UNL     1      20.025  30.608  14.002  1.00  0.00     0.179 C 
HETATM   16  C8  UNL     1      19.366  31.939  13.672  1.00  0.00     0.243 C 
HETATM   17  O1  UNL     1      18.984  32.096  12.500  1.00  0.00    -0.271 OA
HETATM   18  N2  UNL     1      19.211  32.921  14.677  1.00  0.00    -0.341 N 
HETATM   19  C18 UNL     1      20.168  32.935  15.759  1.00  0.00     0.228 C 
HETATM   20  C19 UNL     1      21.280  31.978  15.568  1.00  0.00     0.238 C 
HETATM   21  O3  UNL     1      22.348  32.161  16.238  1.00  0.00    -0.272 OA
HETATM   22  N4  UNL     1      21.267  30.869  14.702  1.00  0.00    -0.337 N 
BRANCH  18  23
HETATM   23  C9  UNL     1      18.160  33.866  14.656  1.00  0.00     0.144 C 
BRANCH  23  24
HETATM   24  C10 UNL     1      16.961  33.657  15.488  1.00  0.00     0.050 C 
HETATM   25  C11 UNL     1      16.782  32.325  16.129  1.00  0.00     0.027 C 
HETATM   26  C12 UNL     1      15.725  34.085  14.713  1.00  0.00     0.027 C 
BRANCH  24  27
HETATM   27  C13 UNL     1      17.059  34.660  16.621  1.00  0.00     0.228 C 
HETATM   28  O2  UNL     1      17.212  34.283  17.809  1.00  0.00    -0.273 OA
HETATM   29  N3  UNL     1      16.982  36.055  16.393  1.00  0.00    -0.352 N 
ATOM     30  H3  UNL     1      16.857  36.389  15.437  1.00  0.00     0.163 HD
BRANCH  29  31
HETATM   31  C14 UNL     1      17.076  37.025  17.460  1.00  0.00     0.022 C 
HETATM   32  C15 UNL     1      16.801  38.429  16.905  1.00  0.00     0.037 C 
HETATM   33  C16 UNL     1      16.072  36.808  18.554  1.00  0.00     0.037 C 
HETATM   34  C17 UNL     1      18.465  37.076  18.041  1.00  0.00     0.037 C 
ENDBRANCH  29  31
ENDBRANCH  24  27
ENDBRANCH  23  24
ENDBRANCH  18  23
BRANCH  22  35
HETATM   35  C20 UNL     1      22.387  30.017  14.498  1.00  0.00     0.127 C 
BRANCH  35  36
HETATM   36  C21 UNL     1      22.711  29.690  13.065  1.00  0.00     0.021 C 
BRANCH  36  37
HETATM   37  C22 UNL     1      24.166  29.582  12.766  1.00  0.00     0.021 C 
BRANCH  37  38
HETATM   38  C23 UNL     1      24.554  28.147  12.520  1.00  0.00     0.124 C 
BRANCH  38  39
HETATM   39  N5  UNL     1      24.267  27.732  11.169  1.00  0.00    -0.343 N 
HETATM   40  C24 UNL     1      24.200  26.329  10.820  1.00  0.00     0.319 C 
HETATM   41  O4  UNL     1      24.403  25.538  11.746  1.00  0.00    -0.247 OA
HETATM   42  N6  UNL     1      23.921  25.917   9.510  1.00  0.00    -0.322 N 
ATOM     43  H6  UNL     1      23.735  26.688   8.869  1.00  0.00     0.169 HD
ATOM     44  H5  UNL     1      24.108  28.437  10.449  1.00  0.00     0.164 HD
BRANCH  42  45
HETATM   45  C25 UNL     1      23.848  24.655   8.906  1.00  0.00     0.070 C 
BRANCH  45  46
HETATM   46  C26 UNL     1      23.188  24.446   7.595  1.00  0.00     0.027 C 
HETATM   47  C27 UNL     1      21.794  25.052   7.639  1.00  0.00     0.040 C 
HETATM   48  C28 UNL     1      20.859  24.411   6.661  1.00  0.00     0.272 C 
HETATM   49  N7  UNL     1      21.551  24.071   5.442  1.00  0.00     0.084 N 
HETATM   50  C29 UNL     1      22.133  25.176   4.748  1.00  0.00     0.309 C 
HETATM   51  C30 UNL     1      22.426  22.975   5.718  1.00  0.00     0.272 C 
HETATM   52  C31 UNL     1      23.236  23.118   6.990  1.00  0.00     0.040 C 
ENDBRANCH  45  46
ENDBRANCH  42  45
ENDBRANCH  38  39
ENDBRANCH  37  38
ENDBRANCH  36  37
ENDBRANCH  35  36
ENDBRANCH  22  35
ENDBRANCH  14  15
ENDBRANCH  13  14
ENDBRANCH   7  13
TORSDOF 15
ENDMDL
