MODEL 1
REMARK VINA RESULT: -10.110852903      0.000      0.000
REMARK  15 active torsions:
REMARK  status: ('A' for Active; 'I' for Inactive)
REMARK    1  A    between atoms: C3_4  and  C4_5 
REMARK       I    between atoms: C4_5  and  N2_7 
REMARK    2  A    between atoms: N2_7  and  C5_9 
REMARK    3  A    between atoms: C5_9  and  C6_10 
REMARK    4  A    between atoms: C6_10  and  C7_11 
REMARK    5  A    between atoms: C7_11  and  C8_12 
REMARK    6  A    between atoms: C8_12  and  C9_13 
REMARK    7  A    between atoms: C9_13  and  C10_14 
REMARK    8  A    between atoms: C10_14  and  C11_15 
REMARK    9  A    between atoms: C11_15  and  C12_16 
REMARK   10  A    between atoms: C12_16  and  C13_17 
REMARK   11  A    between atoms: C13_17  and  C14_18 
REMARK   12  A    between atoms: C14_18  and  N3_19 
REMARK       I    between atoms: N3_19  and  C15_21 
REMARK       I    between atoms: C15_21  and  N5_28 
REMARK   13  A    between atoms: N4_22  and  S1_24 
REMARK   14  A    between atoms: N5_28  and  C17_30 
REMARK   15  A    between atoms: C17_30  and  C18_31 
REMARK       I    between atoms: N6_45  and  C32_46 
ROOT
HETATM    1  C12 UNL     1      24.116  27.409   8.694  1.00  0.00     0.002 C 
ENDROOT
BRANCH   1   2
HETATM    2  C11 UNL     1      24.259  28.369   9.803  1.00  0.00     0.000 C 
BRANCH   2   3
HETATM    3  C10 UNL     1      25.311  27.968  10.822  1.00  0.00     0.000 C 
BRANCH   3   4
HETATM    4  C9  UNL     1      24.877  28.374  12.203  1.00  0.00     0.000 C 
BRANCH   4   5
HETATM    5  C8  UNL     1      23.410  28.062  12.378  1.00  0.00     0.000 C 
BRANCH   5   6
HETATM    6  C7  UNL     1      22.686  29.127  13.150  1.00  0.00     0.002 C 
BRANCH   6   7
HETATM    7  C6  UNL     1      22.423  30.379  12.381  1.00  0.00     0.020 C 
BRANCH   7   8
HETATM    8  C5  UNL     1      22.558  31.632  13.196  1.00  0.00     0.123 C 
BRANCH   8   9
HETATM    9  N2  UNL     1      21.254  32.144  13.539  1.00  0.00    -0.357 N 
HETATM   10  C4  UNL     1      20.647  31.896  14.806  1.00  0.00     0.253 C 
HETATM   11  O1  UNL     1      21.264  31.210  15.657  1.00  0.00    -0.268 OA
ATOM     12  H2  UNL     1      20.748  32.703  12.852  1.00  0.00     0.162 HD
BRANCH  10  13
HETATM   13  C3  UNL     1      19.330  32.411  15.151  1.00  0.00     0.048 A 
HETATM   14  C2  UNL     1      19.221  33.422  16.053  1.00  0.00     0.109 A 
HETATM   15  N1  UNL     1      18.047  33.991  16.462  1.00  0.00    -0.345 N 
HETATM   16  C1  UNL     1      18.086  35.066  17.427  1.00  0.00     0.157 C 
HETATM   17  C33 UNL     1      16.906  33.514  15.932  1.00  0.00     0.127 A 
HETATM   18  C29 UNL     1      16.973  32.470  14.996  1.00  0.00     0.011 A 
HETATM   19  N6  UNL     1      15.604  33.871  16.140  1.00  0.00    -0.262 N 
HETATM   20  C28 UNL     1      18.172  31.923  14.610  1.00  0.00     0.033 A 
HETATM   21  C30 UNL     1      15.676  32.187  14.627  1.00  0.00     0.033 A 
HETATM   22  C31 UNL     1      14.868  33.023  15.310  1.00  0.00     0.104 A 
HETATM   23  C32 UNL     1      15.002  34.831  16.951  1.00  0.00     0.340 C 
HETATM   24  N7  UNL     1      13.535  34.894  16.874  1.00  0.00    -0.039 NA
HETATM   25  O4  UNL     1      15.413  35.644  17.724  1.00  0.00    -0.250 OA
ENDBRANCH  10  13
ENDBRANCH   8   9
ENDBRANCH   7   8
ENDBRANCH   6   7
ENDBRANCH   5   6
ENDBRANCH   4   5
ENDBRANCH   3   4
ENDBRANCH   2   3
ENDBRANCH   1   2
BRANCH   1  26
HETATM   26  C13 UNL     1      24.535  25.999   8.871  1.00  0.00     0.020 C 
BRANCH  26  27
HETATM   27  C14 UNL     1      23.521  24.986   9.221  1.00  0.00     0.138 C 
BRANCH  27  28
HETATM   28  N3  UNL     1      22.873  24.234   8.208  1.00  0.00    -0.226 N 
HETATM   29  C15 UNL     1      21.634  24.724   7.618  1.00  0.00     0.683 C 
HETATM   30  N4  UNL     1      21.286  24.309   6.476  1.00  0.00    -0.117 N 
HETATM   31  N5  UNL     1      20.874  25.657   8.381  1.00  0.00    -0.225 N 
ATOM     32  H4  UNL     1      20.409  24.692   6.121  1.00  0.00     0.197 HD
ATOM     33  H5  UNL     1      21.031  26.660   8.283  1.00  0.00     0.177 HD
ATOM     34  H3  UNL     1      23.274  23.351   7.891  1.00  0.00     0.177 HD
BRANCH  30  35
HETATM   35  S1  UNL     1      22.063  23.210   5.450  1.00  0.00     0.240 S 
HETATM   36  C16 UNL     1      21.110  23.024   3.931  1.00  0.00     0.186 C 
HETATM   37  O2  UNL     1      23.462  23.635   5.071  1.00  0.00    -0.206 OA
HETATM   38  O3  UNL     1      22.105  21.820   6.056  1.00  0.00    -0.206 OA
ENDBRANCH  30  35
BRANCH  31  39
HETATM   39  C17 UNL     1      19.875  25.151   9.298  1.00  0.00     0.147 C 
BRANCH  39  40
HETATM   40  C18 UNL     1      19.198  26.265  10.059  1.00  0.00    -0.023 C 
HETATM   41  C19 UNL     1      18.149  25.672  10.955  1.00  0.00     0.015 C 
HETATM   42  C20 UNL     1      17.396  26.784  11.677  1.00  0.00    -0.013 C 
HETATM   43  C21 UNL     1      18.390  27.560  12.485  1.00  0.00     0.009 C 
HETATM   44  C25 UNL     1      16.723  27.709  10.692  1.00  0.00     0.009 C 
HETATM   45  C22 UNL     1      19.440  28.165  11.577  1.00  0.00    -0.013 C 
HETATM   46  C23 UNL     1      18.813  29.058  10.534  1.00  0.00     0.009 C 
HETATM   47  C27 UNL     1      20.186  27.065  10.843  1.00  0.00     0.015 C 
HETATM   48  C24 UNL     1      17.790  28.265   9.780  1.00  0.00    -0.013 C 
HETATM   49  C26 UNL     1      18.499  27.159   9.042  1.00  0.00     0.015 C 
ENDBRANCH  39  40
ENDBRANCH  31  39
ENDBRANCH  27  28
ENDBRANCH  26  27
ENDBRANCH   1  26
TORSDOF 15
ENDMDL
MODEL 2
REMARK VINA RESULT: -10.061879199      1.091      1.731
REMARK  15 active torsions:
REMARK  status: ('A' for Active; 'I' for Inactive)
REMARK    1  A    between atoms: C3_4  and  C4_5 
REMARK       I    between atoms: C4_5  and  N2_7 
REMARK    2  A    between atoms: N2_7  and  C5_9 
REMARK    3  A    between atoms: C5_9  and  C6_10 
REMARK    4  A    between atoms: C6_10  and  C7_11 
REMARK    5  A    between atoms: C7_11  and  C8_12 
REMARK    6  A    between atoms: C8_12  and  C9_13 
REMARK    7  A    between atoms: C9_13  and  C10_14 
REMARK    8  A    between atoms: C10_14  and  C11_15 
REMARK    9  A    between atoms: C11_15  and  C12_16 
REMARK   10  A    between atoms: C12_16  and  C13_17 
REMARK   11  A    between atoms: C13_17  and  C14_18 
REMARK   12  A    between atoms: C14_18  and  N3_19 
REMARK       I    between atoms: N3_19  and  C15_21 
REMARK       I    between atoms: C15_21  and  N5_28 
REMARK   13  A    between atoms: N4_22  and  S1_24 
REMARK   14  A    between atoms: N5_28  and  C17_30 
REMARK   15  A    between atoms: C17_30  and  C18_31 
REMARK       I    between atoms: N6_45  and  C32_46 
ROOT
HETATM    1  C12 UNL     1      24.309  25.362  10.356  1.00  0.00     0.002 C 
ENDROOT
BRANCH   1   2
HETATM    2  C11 UNL     1      24.871  26.378   9.449  1.00  0.00     0.000 C 
BRANCH   2   3
HETATM    3  C10 UNL     1      24.798  27.792   9.999  1.00  0.00     0.000 C 
BRANCH   3   4
HETATM    4  C9  UNL     1      25.644  27.911  11.236  1.00  0.00     0.000 C 
BRANCH   4   5
HETATM    5  C8  UNL     1      24.817  28.503  12.353  1.00  0.00     0.000 C 
BRANCH   5   6
HETATM    6  C7  UNL     1      23.467  28.963  11.883  1.00  0.00     0.002 C 
BRANCH   6   7
HETATM    7  C6  UNL     1      22.417  28.987  12.944  1.00  0.00     0.020 C 
BRANCH   7   8
HETATM    8  C5  UNL     1      22.711  29.936  14.069  1.00  0.00     0.123 C 
BRANCH   8   9
HETATM    9  N2  UNL     1      21.482  30.481  14.592  1.00  0.00    -0.357 N 
HETATM   10  C4  UNL     1      20.839  31.612  14.005  1.00  0.00     0.253 C 
HETATM   11  O1  UNL     1      21.355  32.155  12.999  1.00  0.00    -0.268 OA
ATOM     12  H2  UNL     1      21.059  30.043  15.410  1.00  0.00     0.162 HD
BRANCH  10  13
HETATM   13  C3  UNL     1      19.601  32.163  14.534  1.00  0.00     0.048 A 
HETATM   14  C2  UNL     1      19.649  33.105  15.512  1.00  0.00     0.109 A 
HETATM   15  N1  UNL     1      18.563  33.698  16.092  1.00  0.00    -0.345 N 
HETATM   16  C1  UNL     1      18.769  34.691  17.120  1.00  0.00     0.157 C 
HETATM   17  C33 UNL     1      17.344  33.319  15.662  1.00  0.00     0.127 A 
HETATM   18  C29 UNL     1      17.247  32.348  14.653  1.00  0.00     0.011 A 
HETATM   19  N6  UNL     1      16.095  33.723  16.042  1.00  0.00    -0.262 N 
HETATM   20  C28 UNL     1      18.363  31.776  14.095  1.00  0.00     0.033 A 
HETATM   21  C30 UNL     1      15.904  32.159  14.415  1.00  0.00     0.033 A 
HETATM   22  C31 UNL     1      15.226  32.979  15.244  1.00  0.00     0.104 A 
HETATM   23  C32 UNL     1      15.643  34.645  16.983  1.00  0.00     0.340 C 
HETATM   24  N7  UNL     1      14.182  34.786  17.079  1.00  0.00    -0.039 NA
HETATM   25  O4  UNL     1      16.182  35.375  17.760  1.00  0.00    -0.250 OA
ENDBRANCH  10  13
ENDBRANCH   8   9
ENDBRANCH   7   8
ENDBRANCH   6   7
ENDBRANCH   5   6
ENDBRANCH   4   5
ENDBRANCH   3   4
ENDBRANCH   2   3
ENDBRANCH   1   2
BRANCH   1  26
HETATM   26  C13 UNL     1      22.938  25.522  10.895  1.00  0.00     0.020 C 
BRANCH  26  27
HETATM   27  C14 UNL     1      21.863  24.643  10.395  1.00  0.00     0.138 C 
BRANCH  27  28
HETATM   28  N3  UNL     1      21.870  24.188   9.051  1.00  0.00    -0.226 N 
HETATM   29  C15 UNL     1      21.614  25.125   7.964  1.00  0.00     0.683 C 
HETATM   30  N4  UNL     1      22.017  24.845   6.799  1.00  0.00    -0.117 N 
HETATM   31  N5  UNL     1      20.909  26.319   8.287  1.00  0.00    -0.225 N 
ATOM     32  H4  UNL     1      21.806  25.543   6.085  1.00  0.00     0.197 HD
ATOM     33  H5  UNL     1      21.412  27.161   8.568  1.00  0.00     0.177 HD
ATOM     34  H3  UNL     1      22.054  23.205   8.846  1.00  0.00     0.177 HD
BRANCH  30  35
HETATM   35  S1  UNL     1      22.856  23.481   6.252  1.00  0.00     0.240 S 
HETATM   36  C16 UNL     1      23.075  23.584   4.465  1.00  0.00     0.186 C 
HETATM   37  O2  UNL     1      24.221  23.328   6.880  1.00  0.00    -0.206 OA
HETATM   38  O3  UNL     1      22.055  22.211   6.473  1.00  0.00    -0.206 OA
ENDBRANCH  30  35
BRANCH  31  39
HETATM   39  C17 UNL     1      19.463  26.314   8.208  1.00  0.00     0.147 C 
BRANCH  39  40
HETATM   40  C18 UNL     1      18.832  26.921   9.438  1.00  0.00    -0.023 C 
HETATM   41  C19 UNL     1      19.832  27.822  10.102  1.00  0.00     0.015 C 
HETATM   42  C20 UNL     1      19.244  28.387  11.391  1.00  0.00    -0.013 C 
HETATM   43  C21 UNL     1      18.010  29.155  11.033  1.00  0.00     0.009 C 
HETATM   44  C25 UNL     1      18.883  27.278  12.350  1.00  0.00     0.009 C 
HETATM   45  C22 UNL     1      17.000  28.239  10.374  1.00  0.00    -0.013 C 
HETATM   46  C23 UNL     1      16.644  27.080  11.271  1.00  0.00     0.009 C 
HETATM   47  C27 UNL     1      17.581  27.662   9.096  1.00  0.00     0.015 C 
HETATM   48  C24 UNL     1      17.905  26.365  11.649  1.00  0.00    -0.013 C 
HETATM   49  C26 UNL     1      18.511  25.782  10.399  1.00  0.00     0.015 C 
ENDBRANCH  39  40
ENDBRANCH  31  39
ENDBRANCH  27  28
ENDBRANCH  26  27
ENDBRANCH   1  26
TORSDOF 15
ENDMDL
MODEL 3
REMARK VINA RESULT: -9.994957852      1.411      1.976
REMARK  15 active torsions:
REMARK  status: ('A' for Active; 'I' for Inactive)
REMARK    1  A    between atoms: C3_4  and  C4_5 
REMARK       I    between atoms: C4_5  and  N2_7 
REMARK    2  A    between atoms: N2_7  and  C5_9 
REMARK    3  A    between atoms: C5_9  and  C6_10 
REMARK    4  A    between atoms: C6_10  and  C7_11 
REMARK    5  A    between atoms: C7_11  and  C8_12 
REMARK    6  A    between atoms: C8_12  and  C9_13 
REMARK    7  A    between atoms: C9_13  and  C10_14 
REMARK    8  A    between atoms: C10_14  and  C11_15 
REMARK    9  A    between atoms: C11_15  and  C12_16 
REMARK   10  A    between atoms: C12_16  and  C13_17 
REMARK   11  A    between atoms: C13_17  and  C14_18 
REMARK   12  A    between atoms: C14_18  and  N3_19 
REMARK       I    between atoms: N3_19  and  C15_21 
REMARK       I    between atoms: C15_21  and  N5_28 
REMARK   13  A    between atoms: N4_22  and  S1_24 
REMARK   14  A    between atoms: N5_28  and  C17_30 
REMARK   15  A    between atoms: C17_30  and  C18_31 
REMARK       I    between atoms: N6_45  and  C32_46 
ROOT
HETATM    1  C12 UNL     1      24.630  26.300   8.263  1.00  0.00     0.002 C 
ENDROOT
BRANCH   1   2
HETATM    2  C11 UNL     1      23.980  27.622   8.257  1.00  0.00     0.000 C 
BRANCH   2   3
HETATM    3  C10 UNL     1      24.142  28.385   9.561  1.00  0.00     0.000 C 
BRANCH   3   4
HETATM    4  C9  UNL     1      25.297  27.829  10.347  1.00  0.00     0.000 C 
BRANCH   4   5
HETATM    5  C8  UNL     1      24.809  27.377  11.702  1.00  0.00     0.000 C 
BRANCH   5   6
HETATM    6  C7  UNL     1      24.789  28.493  12.705  1.00  0.00     0.002 C 
BRANCH   6   7
HETATM    7  C6  UNL     1      23.424  28.925  13.126  1.00  0.00     0.020 C 
BRANCH   7   8
HETATM    8  C5  UNL     1      23.025  30.274  12.604  1.00  0.00     0.123 C 
BRANCH   8   9
HETATM    9  N2  UNL     1      21.978  30.834  13.422  1.00  0.00    -0.357 N 
HETATM   10  C4  UNL     1      20.808  31.428  12.862  1.00  0.00     0.253 C 
HETATM   11  O1  UNL     1      20.679  31.467  11.614  1.00  0.00    -0.268 OA
ATOM     12  H2  UNL     1      22.077  30.804  14.437  1.00  0.00     0.162 HD
BRANCH  10  13
HETATM   13  C3  UNL     1      19.752  31.994  13.687  1.00  0.00     0.048 A 
HETATM   14  C2  UNL     1      20.072  32.856  14.688  1.00  0.00     0.109 A 
HETATM   15  N1  UNL     1      19.178  33.453  15.532  1.00  0.00    -0.345 N 
HETATM   16  C1  UNL     1      19.665  34.354  16.550  1.00  0.00     0.157 C 
HETATM   17  C33 UNL     1      17.874  33.165  15.362  1.00  0.00     0.127 A 
HETATM   18  C29 UNL     1      17.498  32.280  14.340  1.00  0.00     0.011 A 
HETATM   19  N6  UNL     1      16.766  33.597  16.036  1.00  0.00    -0.262 N 
HETATM   20  C28 UNL     1      18.427  31.700  13.511  1.00  0.00     0.033 A 
HETATM   21  C30 UNL     1      16.125  32.172  14.395  1.00  0.00     0.033 A 
HETATM   22  C31 UNL     1      15.698  32.957  15.405  1.00  0.00     0.104 A 
HETATM   23  C32 UNL     1      16.589  34.465  17.111  1.00  0.00     0.340 C 
HETATM   24  N7  UNL     1      15.197  34.666  17.538  1.00  0.00    -0.039 NA
HETATM   25  O4  UNL     1      17.330  35.108  17.793  1.00  0.00    -0.250 OA
ENDBRANCH  10  13
ENDBRANCH   8   9
ENDBRANCH   7   8
ENDBRANCH   6   7
ENDBRANCH   5   6
ENDBRANCH   4   5
ENDBRANCH   3   4
ENDBRANCH   2   3
ENDBRANCH   1   2
BRANCH   1  26
HETATM   26  C13 UNL     1      24.167  25.239   7.339  1.00  0.00     0.020 C 
BRANCH  26  27
HETATM   27  C14 UNL     1      23.140  24.284   7.799  1.00  0.00     0.138 C 
BRANCH  27  28
HETATM   28  N3  UNL     1      21.950  24.089   7.051  1.00  0.00    -0.226 N 
HETATM   29  C15 UNL     1      20.838  25.020   7.199  1.00  0.00     0.683 C 
HETATM   30  N4  UNL     1      19.979  25.108   6.276  1.00  0.00    -0.117 N 
HETATM   31  N5  UNL     1      20.785  25.785   8.399  1.00  0.00    -0.225 N 
ATOM     32  H4  UNL     1      19.227  25.778   6.442  1.00  0.00     0.197 HD
ATOM     33  H5  UNL     1      21.237  26.698   8.456  1.00  0.00     0.177 HD
ATOM     34  H3  UNL     1      21.873  23.300   6.410  1.00  0.00     0.177 HD
BRANCH  30  35
HETATM   35  S1  UNL     1      19.894  24.277   4.804  1.00  0.00     0.240 S 
HETATM   36  C16 UNL     1      18.417  24.787   3.906  1.00  0.00     0.186 C 
HETATM   37  O2  UNL     1      21.089  24.521   3.912  1.00  0.00    -0.206 OA
HETATM   38  O3  UNL     1      19.723  22.785   5.019  1.00  0.00    -0.206 OA
ENDBRANCH  30  35
BRANCH  31  39
HETATM   39  C17 UNL     1      20.075  25.240   9.537  1.00  0.00     0.147 C 
BRANCH  39  40
HETATM   40  C18 UNL     1      19.193  26.273  10.195  1.00  0.00    -0.023 C 
HETATM   41  C19 UNL     1      18.598  27.150   9.133  1.00  0.00     0.015 C 
HETATM   42  C20 UNL     1      17.764  28.252   9.778  1.00  0.00    -0.013 C 
HETATM   43  C21 UNL     1      16.681  27.598  10.578  1.00  0.00     0.009 C 
HETATM   44  C25 UNL     1      18.612  29.107  10.690  1.00  0.00     0.009 C 
HETATM   45  C22 UNL     1      17.286  26.723  11.655  1.00  0.00    -0.013 C 
HETATM   46  C23 UNL     1      18.189  27.519  12.565  1.00  0.00     0.009 C 
HETATM   47  C27 UNL     1      18.128  25.630  11.022  1.00  0.00     0.015 C 
HETATM   48  C24 UNL     1      19.228  28.199  11.728  1.00  0.00    -0.013 C 
HETATM   49  C26 UNL     1      20.082  27.140  11.080  1.00  0.00     0.015 C 
ENDBRANCH  39  40
ENDBRANCH  31  39
ENDBRANCH  27  28
ENDBRANCH  26  27
ENDBRANCH   1  26
TORSDOF 15
ENDMDL
MODEL 4
REMARK VINA RESULT: -9.988013856      1.507      1.898
REMARK  15 active torsions:
REMARK  status: ('A' for Active; 'I' for Inactive)
REMARK    1  A    between atoms: C3_4  and  C4_5 
REMARK       I    between atoms: C4_5  and  N2_7 
REMARK    2  A    between atoms: N2_7  and  C5_9 
REMARK    3  A    between atoms: C5_9  and  C6_10 
REMARK    4  A    between atoms: C6_10  and  C7_11 
REMARK    5  A    between atoms: C7_11  and  C8_12 
REMARK    6  A    between atoms: C8_12  and  C9_13 
REMARK    7  A    between atoms: C9_13  and  C10_14 
REMARK    8  A    between atoms: C10_14  and  C11_15 
REMARK    9  A    between atoms: C11_15  and  C12_16 
REMARK   10  A    between atoms: C12_16  and  C13_17 
REMARK   11  A    between atoms: C13_17  and  C14_18 
REMARK   12  A    between atoms: C14_18  and  N3_19 
REMARK       I    between atoms: N3_19  and  C15_21 
REMARK       I    between atoms: C15_21  and  N5_28 
REMARK   13  A    between atoms: N4_22  and  S1_24 
REMARK   14  A    between atoms: N5_28  and  C17_30 
REMARK   15  A    between atoms: C17_30  and  C18_31 
REMARK       I    between atoms: N6_45  and  C32_46 
ROOT
HETATM    1  C12 UNL     1      24.314  25.063  10.264  1.00  0.00     0.002 C 
ENDROOT
BRANCH   1   2
HETATM    2  C11 UNL     1      24.954  26.127   9.470  1.00  0.00     0.000 C 
BRANCH   2   3
HETATM    3  C10 UNL     1      26.043  26.874  10.220  1.00  0.00     0.000 C 
BRANCH   3   4
HETATM    4  C9  UNL     1      25.474  28.102  10.873  1.00  0.00     0.000 C 
BRANCH   4   5
HETATM    5  C8  UNL     1      25.567  27.961  12.374  1.00  0.00     0.000 C 
BRANCH   5   6
HETATM    6  C7  UNL     1      24.519  28.763  13.090  1.00  0.00     0.002 C 
BRANCH   6   7
HETATM    7  C6  UNL     1      23.138  28.605  12.546  1.00  0.00     0.020 C 
BRANCH   7   8
HETATM    8  C5  UNL     1      22.572  29.861  11.951  1.00  0.00     0.123 C 
BRANCH   8   9
HETATM    9  N2  UNL     1      21.654  30.479  12.875  1.00  0.00    -0.357 N 
HETATM   10  C4  UNL     1      20.538  31.253  12.438  1.00  0.00     0.253 C 
HETATM   11  O1  UNL     1      20.343  31.406  11.208  1.00  0.00    -0.268 OA
ATOM     12  H2  UNL     1      21.807  30.358  13.876  1.00  0.00     0.162 HD
BRANCH  10  13
HETATM   13  C3  UNL     1      19.612  31.878  13.371  1.00  0.00     0.048 A 
HETATM   14  C2  UNL     1      20.093  32.667  14.367  1.00  0.00     0.109 A 
HETATM   15  N1  UNL     1      19.332  33.307  15.305  1.00  0.00    -0.345 N 
HETATM   16  C1  UNL     1      19.984  34.120  16.304  1.00  0.00     0.157 C 
HETATM   17  C33 UNL     1      17.997  33.143  15.240  1.00  0.00     0.127 A 
HETATM   18  C29 UNL     1      17.457  32.336  14.227  1.00  0.00     0.011 A 
HETATM   19  N6  UNL     1      16.995  33.644  16.022  1.00  0.00    -0.262 N 
HETATM   20  C28 UNL     1      18.255  31.709  13.302  1.00  0.00     0.033 A 
HETATM   21  C30 UNL     1      16.090  32.349  14.399  1.00  0.00     0.033 A 
HETATM   22  C31 UNL     1      15.823  33.128  15.467  1.00  0.00     0.104 A 
HETATM   23  C32 UNL     1      16.990  34.481  17.135  1.00  0.00     0.340 C 
HETATM   24  N7  UNL     1      15.662  34.788  17.689  1.00  0.00    -0.039 NA
HETATM   25  O4  UNL     1      17.841  35.028  17.771  1.00  0.00    -0.250 OA
ENDBRANCH  10  13
ENDBRANCH   8   9
ENDBRANCH   7   8
ENDBRANCH   6   7
ENDBRANCH   5   6
ENDBRANCH   4   5
ENDBRANCH   3   4
ENDBRANCH   2   3
ENDBRANCH   1   2
BRANCH   1  26
HETATM   26  C13 UNL     1      22.987  25.290  10.881  1.00  0.00     0.020 C 
BRANCH  26  27
HETATM   27  C14 UNL     1      21.800  24.641  10.292  1.00  0.00     0.138 C 
BRANCH  27  28
HETATM   28  N3  UNL     1      21.805  24.223   8.936  1.00  0.00    -0.226 N 
HETATM   29  C15 UNL     1      21.558  25.192   7.876  1.00  0.00     0.683 C 
HETATM   30  N4  UNL     1      21.960  24.942   6.703  1.00  0.00    -0.117 N 
HETATM   31  N5  UNL     1      20.862  26.383   8.231  1.00  0.00    -0.225 N 
ATOM     32  H4  UNL     1      21.756  25.661   6.009  1.00  0.00     0.197 HD
ATOM     33  H5  UNL     1      21.371  27.213   8.536  1.00  0.00     0.177 HD
ATOM     34  H3  UNL     1      21.981  23.246   8.704  1.00  0.00     0.177 HD
BRANCH  30  35
HETATM   35  S1  UNL     1      22.789  23.587   6.119  1.00  0.00     0.240 S 
HETATM   36  C16 UNL     1      24.534  23.712   6.556  1.00  0.00     0.186 C 
HETATM   37  O2  UNL     1      22.264  22.283   6.670  1.00  0.00    -0.206 OA
HETATM   38  O3  UNL     1      22.771  23.537   4.603  1.00  0.00    -0.206 OA
ENDBRANCH  30  35
BRANCH  31  39
HETATM   39  C17 UNL     1      19.416  26.391   8.150  1.00  0.00     0.147 C 
BRANCH  39  40
HETATM   40  C18 UNL     1      18.786  26.891   9.427  1.00  0.00    -0.023 C 
HETATM   41  C19 UNL     1      18.391  25.711  10.267  1.00  0.00     0.015 C 
HETATM   42  C20 UNL     1      17.680  26.189  11.529  1.00  0.00    -0.013 C 
HETATM   43  C21 UNL     1      18.627  27.069  12.283  1.00  0.00     0.009 C 
HETATM   44  C25 UNL     1      16.437  26.973  11.184  1.00  0.00     0.009 C 
HETATM   45  C22 UNL     1      19.015  28.263  11.437  1.00  0.00    -0.013 C 
HETATM   46  C23 UNL     1      17.800  29.053  11.017  1.00  0.00     0.009 C 
HETATM   47  C27 UNL     1      19.712  27.796  10.172  1.00  0.00     0.015 C 
HETATM   48  C24 UNL     1      16.853  28.133  10.311  1.00  0.00    -0.013 C 
HETATM   49  C26 UNL     1      17.518  27.647   9.049  1.00  0.00     0.015 C 
ENDBRANCH  39  40
ENDBRANCH  31  39
ENDBRANCH  27  28
ENDBRANCH  26  27
ENDBRANCH   1  26
TORSDOF 15
ENDMDL
MODEL 5
REMARK VINA RESULT: -9.861349241      0.968      1.533
REMARK  15 active torsions:
REMARK  status: ('A' for Active; 'I' for Inactive)
REMARK    1  A    between atoms: C3_4  and  C4_5 
REMARK       I    between atoms: C4_5  and  N2_7 
REMARK    2  A    between atoms: N2_7  and  C5_9 
REMARK    3  A    between atoms: C5_9  and  C6_10 
REMARK    4  A    between atoms: C6_10  and  C7_11 
REMARK    5  A    between atoms: C7_11  and  C8_12 
REMARK    6  A    between atoms: C8_12  and  C9_13 
REMARK    7  A    between atoms: C9_13  and  C10_14 
REMARK    8  A    between atoms: C10_14  and  C11_15 
REMARK    9  A    between atoms: C11_15  and  C12_16 
REMARK   10  A    between atoms: C12_16  and  C13_17 
REMARK   11  A    between atoms: C13_17  and  C14_18 
REMARK   12  A    between atoms: C14_18  and  N3_19 
REMARK       I    between atoms: N3_19  and  C15_21 
REMARK       I    between atoms: C15_21  and  N5_28 
REMARK   13  A    between atoms: N4_22  and  S1_24 
REMARK   14  A    between atoms: N5_28  and  C17_30 
REMARK   15  A    between atoms: C17_30  and  C18_31 
REMARK       I    between atoms: N6_45  and  C32_46 
ROOT
HETATM    1  C12 UNL     1      24.500  25.364  10.319  1.00  0.00     0.002 C 
ENDROOT
BRANCH   1   2
HETATM    2  C11 UNL     1      24.982  26.318   9.304  1.00  0.00     0.000 C 
BRANCH   2   3
HETATM    3  C10 UNL     1      24.166  27.597   9.235  1.00  0.00     0.000 C 
BRANCH   3   4
HETATM    4  C9  UNL     1      24.579  28.535  10.336  1.00  0.00     0.000 C 
BRANCH   4   5
HETATM    5  C8  UNL     1      23.364  28.924  11.143  1.00  0.00     0.000 C 
BRANCH   5   6
HETATM    6  C7  UNL     1      23.572  28.733  12.618  1.00  0.00     0.002 C 
BRANCH   6   7
HETATM    7  C6  UNL     1      22.636  29.512  13.482  1.00  0.00     0.020 C 
BRANCH   7   8
HETATM    8  C5  UNL     1      22.454  30.938  13.049  1.00  0.00     0.123 C 
BRANCH   8   9
HETATM    9  N2  UNL     1      21.141  31.405  13.420  1.00  0.00    -0.357 N 
HETATM   10  C4  UNL     1      20.884  32.045  14.669  1.00  0.00     0.253 C 
HETATM   11  O1  UNL     1      21.829  32.210  15.477  1.00  0.00    -0.268 OA
ATOM     12  H2  UNL     1      20.369  31.273  12.766  1.00  0.00     0.162 HD
BRANCH  10  13
HETATM   13  C3  UNL     1      19.559  32.515  15.043  1.00  0.00     0.048 A 
HETATM   14  C2  UNL     1      19.431  33.458  16.014  1.00  0.00     0.109 A 
HETATM   15  N1  UNL     1      18.247  33.979  16.456  1.00  0.00    -0.345 N 
HETATM   16  C1  UNL     1      18.266  34.983  17.494  1.00  0.00     0.157 C 
HETATM   17  C33 UNL     1      17.115  33.524  15.888  1.00  0.00     0.127 A 
HETATM   18  C29 UNL     1      17.201  32.549  14.882  1.00  0.00     0.011 A 
HETATM   19  N6  UNL     1      15.807  33.846  16.115  1.00  0.00    -0.262 N 
HETATM   20  C28 UNL     1      18.410  32.049  14.463  1.00  0.00     0.033 A 
HETATM   21  C30 UNL     1      15.910  32.274  14.487  1.00  0.00     0.033 A 
HETATM   22  C31 UNL     1      15.087  33.048  15.224  1.00  0.00     0.104 A 
HETATM   23  C32 UNL     1      15.188  34.737  16.989  1.00  0.00     0.340 C 
HETATM   24  N7  UNL     1      13.721  34.784  16.909  1.00  0.00    -0.039 NA
HETATM   25  O4  UNL     1      15.584  35.500  17.819  1.00  0.00    -0.250 OA
ENDBRANCH  10  13
ENDBRANCH   8   9
ENDBRANCH   7   8
ENDBRANCH   6   7
ENDBRANCH   5   6
ENDBRANCH   4   5
ENDBRANCH   3   4
ENDBRANCH   2   3
ENDBRANCH   1   2
BRANCH   1  26
HETATM   26  C13 UNL     1      23.166  25.546  10.937  1.00  0.00     0.020 C 
BRANCH  26  27
HETATM   27  C14 UNL     1      22.027  24.752  10.436  1.00  0.00     0.138 C 
BRANCH  27  28
HETATM   28  N3  UNL     1      22.045  24.214   9.124  1.00  0.00    -0.226 N 
HETATM   29  C15 UNL     1      21.756  25.072   7.982  1.00  0.00     0.683 C 
HETATM   30  N4  UNL     1      22.164  24.733   6.834  1.00  0.00    -0.117 N 
HETATM   31  N5  UNL     1      21.012  26.260   8.233  1.00  0.00    -0.225 N 
ATOM     32  H4  UNL     1      21.928  25.377   6.079  1.00  0.00     0.197 HD
ATOM     33  H5  UNL     1      21.488  27.134   8.458  1.00  0.00     0.177 HD
ATOM     34  H3  UNL     1      22.261  23.227   8.980  1.00  0.00     0.177 HD
BRANCH  30  35
HETATM   35  S1  UNL     1      23.046  23.366   6.369  1.00  0.00     0.240 S 
HETATM   36  C16 UNL     1      23.540  23.525   4.643  1.00  0.00     0.186 C 
HETATM   37  O2  UNL     1      24.295  23.153   7.193  1.00  0.00    -0.206 OA
HETATM   38  O3  UNL     1      22.193  22.113   6.416  1.00  0.00    -0.206 OA
ENDBRANCH  30  35
BRANCH  31  39
HETATM   39  C17 UNL     1      19.567  26.202   8.162  1.00  0.00     0.147 C 
BRANCH  39  40
HETATM   40  C18 UNL     1      18.920  26.809   9.383  1.00  0.00    -0.023 C 
HETATM   41  C19 UNL     1      17.765  27.661   8.948  1.00  0.00     0.015 C 
HETATM   42  C20 UNL     1      17.143  28.349  10.158  1.00  0.00    -0.013 C 
HETATM   43  C21 UNL     1      16.675  27.283  11.100  1.00  0.00     0.009 C 
HETATM   44  C25 UNL     1      18.152  29.226  10.859  1.00  0.00     0.009 C 
HETATM   45  C22 UNL     1      17.846  26.432  11.546  1.00  0.00    -0.013 C 
HETATM   46  C23 UNL     1      18.913  27.271  12.205  1.00  0.00     0.009 C 
HETATM   47  C27 UNL     1      18.480  25.754  10.345  1.00  0.00     0.015 C 
HETATM   48  C24 UNL     1      19.321  28.356  11.256  1.00  0.00    -0.013 C 
HETATM   49  C26 UNL     1      19.952  27.715  10.047  1.00  0.00     0.015 C 
ENDBRANCH  39  40
ENDBRANCH  31  39
ENDBRANCH  27  28
ENDBRANCH  26  27
ENDBRANCH   1  26
TORSDOF 15
ENDMDL
