MODEL 1
REMARK VINA RESULT: -7.410760489      0.000      0.000
REMARK  10 active torsions:
REMARK  status: ('A' for Active; 'I' for Inactive)
REMARK    1  A    between atoms: N1_2  and  C2_4 
REMARK    2  A    between atoms: C6_8  and  C7_9 
REMARK    3  A    between atoms: C8_10  and  C9_11 
REMARK    4  A    between atoms: C10_12  and  O1_13 
REMARK    5  A    between atoms: N4_30  and  O2_31 
REMARK    6  A    between atoms: N5_36  and  C27_37 
REMARK    7  A    between atoms: C27_37  and  C28_38 
REMARK    8  A    between atoms: C28_38  and  C29_39 
REMARK    9  A    between atoms: C29_39  and  C30_40 
REMARK   10  A    between atoms: C30_40  and  N6_41 
ROOT
HETATM    1  C9  UNL     1     -13.634  57.144   9.525  1.00  0.00     0.010 A 
HETATM    2  C10 UNL     1     -13.960  56.281  10.521  1.00  0.00     0.081 A 
HETATM    3  C12 UNL     1     -14.467  56.792  11.667  1.00  0.00     0.068 A 
HETATM    4  C13 UNL     1     -14.703  58.111  11.971  1.00  0.00     0.046 A 
HETATM    5  N2  UNL     1     -15.466  58.522  13.043  1.00  0.00    -0.364 N 
ATOM      6  H2  UNL     1     -15.009  58.482  13.954  1.00  0.00     0.165 HD
HETATM    7  C14 UNL     1     -16.779  58.982  13.045  1.00  0.00     0.101 C 
HETATM    8  C15 UNL     1     -17.346  60.054  12.346  1.00  0.00    -0.003 C 
HETATM    9  C16 UNL     1     -17.776  61.233  13.076  1.00  0.00     0.040 C 
HETATM   10  C17 UNL     1     -16.759  62.190  13.298  1.00  0.00     0.047 C 
HETATM   11  N3  UNL     1     -17.127  63.429  13.993  1.00  0.00    -0.102 NA
HETATM   12  C18 UNL     1     -15.464  62.002  12.871  1.00  0.00     0.027 C 
HETATM   13  C19 UNL     1     -14.685  61.050  12.372  1.00  0.00     0.017 C 
HETATM   14  C20 UNL     1     -14.625  60.372  11.117  1.00  0.00     0.007 A 
HETATM   15  C21 UNL     1     -14.347  59.030  10.933  1.00  0.00     0.016 A 
HETATM   16  C22 UNL     1     -13.836  58.524   9.743  1.00  0.00     0.008 A 
HETATM   17  C23 UNL     1     -13.606  59.327   8.652  1.00  0.00     0.136 A 
HETATM   18  N4  UNL     1     -13.915  60.631   8.828  1.00  0.00    -0.234 N 
HETATM   19  C24 UNL     1     -14.396  61.119   9.969  1.00  0.00     0.074 A 
HETATM   20  C25 UNL     1     -15.134  62.362   9.916  1.00  0.00     0.050 C 
HETATM   21  C26 UNL     1     -16.535  62.355  10.136  1.00  0.00     0.092 C 
HETATM   22  N5  UNL     1     -17.424  61.359  10.216  1.00  0.00    -0.365 N 
HETATM   23  C32 UNL     1     -17.499  60.196  10.944  1.00  0.00     0.103 C 
ENDROOT
BRANCH   1  24
HETATM   24  C8  UNL     1     -13.056  56.699   8.269  1.00  0.00     0.017 C 
HETATM   25  C7  UNL     1     -13.721  56.081   7.333  1.00  0.00     0.030 C 
BRANCH  25  26
HETATM   26  C6  UNL     1     -13.042  55.658   6.067  1.00  0.00     0.033 A 
HETATM   27  C5  UNL     1     -11.959  54.824   6.055  1.00  0.00     0.029 A 
HETATM   28  C4  UNL     1     -11.395  54.484   4.824  1.00  0.00     0.006 A 
HETATM   29  C3  UNL     1     -11.881  54.949   3.624  1.00  0.00     0.048 A 
HETATM   30  C2  UNL     1     -12.974  55.783   3.707  1.00  0.00     0.101 A 
HETATM   31  N9  UNL     1     -13.522  56.116   4.889  1.00  0.00    -0.343 N 
ATOM     32  H9  UNL     1     -14.330  56.737   4.896  1.00  0.00     0.167 HD
BRANCH  30  33
HETATM   33  N1  UNL     1     -13.454  56.236   2.599  1.00  0.00    -0.381 N 
HETATM   34  C1  UNL     1     -12.965  55.840   1.294  1.00  0.00     0.147 C 
ATOM     35  H1  UNL     1     -14.219  56.909   2.643  1.00  0.00     0.160 HD
ENDBRANCH  30  33
ENDBRANCH  25  26
ENDBRANCH   1  24
BRANCH   2  36
HETATM   36  O1  UNL     1     -13.800  54.878  10.429  1.00  0.00    -0.355 OA
HETATM   37  C11 UNL     1     -12.653  54.215  10.868  1.00  0.00     0.210 C 
ENDBRANCH   2  36
BRANCH  18  38
HETATM   38  O2  UNL     1     -13.678  61.499   7.731  1.00  0.00    -0.283 OA
ATOM     39  H2  UNL     1     -12.800  61.854   7.648  1.00  0.00     0.245 HD
ENDBRANCH  18  38
BRANCH  22  40
HETATM   40  C27 UNL     1     -18.640  61.559   9.281  1.00  0.00     0.128 C 
BRANCH  40  41
HETATM   41  C28 UNL     1     -18.206  61.681   7.901  1.00  0.00     0.022 C 
BRANCH  41  42
HETATM   42  C29 UNL     1     -17.928  60.463   7.132  1.00  0.00     0.021 C 
BRANCH  42  43
HETATM   43  C30 UNL     1     -16.511  60.106   6.900  1.00  0.00     0.122 C 
BRANCH  43  44
HETATM   44  N6  UNL     1     -16.351  59.311   5.724  1.00  0.00    -0.367 N 
HETATM   45  C31 UNL     1     -15.322  59.323   4.948  1.00  0.00     0.196 C 
HETATM   46  N7  UNL     1     -15.375  58.437   3.815  1.00  0.00    -0.067 NA
HETATM   47  N8  UNL     1     -14.211  60.152   5.191  1.00  0.00    -0.067 NA
ATOM     48  H6  UNL     1     -17.115  58.681   5.478  1.00  0.00     0.161 HD
ENDBRANCH  43  44
ENDBRANCH  42  43
ENDBRANCH  41  42
ENDBRANCH  40  41
ENDBRANCH  22  40
TORSDOF 10
ENDMDL
MODEL 2
REMARK VINA RESULT: -7.376550091      8.689     15.718
REMARK  10 active torsions:
REMARK  status: ('A' for Active; 'I' for Inactive)
REMARK    1  A    between atoms: N1_2  and  C2_4 
REMARK    2  A    between atoms: C6_8  and  C7_9 
REMARK    3  A    between atoms: C8_10  and  C9_11 
REMARK    4  A    between atoms: C10_12  and  O1_13 
REMARK    5  A    between atoms: N4_30  and  O2_31 
REMARK    6  A    between atoms: N5_36  and  C27_37 
REMARK    7  A    between atoms: C27_37  and  C28_38 
REMARK    8  A    between atoms: C28_38  and  C29_39 
REMARK    9  A    between atoms: C29_39  and  C30_40 
REMARK   10  A    between atoms: C30_40  and  N6_41 
ROOT
HETATM    1  C9  UNL     1     -13.635  51.082  -1.460  1.00  0.00     0.010 A 
HETATM    2  C10 UNL     1     -13.961  51.943  -2.458  1.00  0.00     0.081 A 
HETATM    3  C12 UNL     1     -14.474  51.430  -3.601  1.00  0.00     0.068 A 
HETATM    4  C13 UNL     1     -14.716  50.111  -3.899  1.00  0.00     0.046 A 
HETATM    5  N2  UNL     1     -15.484  49.699  -4.967  1.00  0.00    -0.364 N 
ATOM      6  H2  UNL     1     -15.030  49.734  -5.880  1.00  0.00     0.165 HD
HETATM    7  C14 UNL     1     -16.798  49.243  -4.962  1.00  0.00     0.101 C 
HETATM    8  C15 UNL     1     -17.366  48.174  -4.258  1.00  0.00    -0.003 C 
HETATM    9  C16 UNL     1     -17.802  46.995  -4.983  1.00  0.00     0.040 C 
HETATM   10  C17 UNL     1     -16.790  46.034  -5.205  1.00  0.00     0.047 C 
HETATM   11  N3  UNL     1     -17.164  44.794  -5.895  1.00  0.00    -0.102 NA
HETATM   12  C18 UNL     1     -15.492  46.220  -4.783  1.00  0.00     0.027 C 
HETATM   13  C19 UNL     1     -14.708  47.171  -4.291  1.00  0.00     0.017 C 
HETATM   14  C20 UNL     1     -14.641  47.852  -3.039  1.00  0.00     0.007 A 
HETATM   15  C21 UNL     1     -14.358  49.194  -2.860  1.00  0.00     0.016 A 
HETATM   16  C22 UNL     1     -13.842  49.702  -1.673  1.00  0.00     0.008 A 
HETATM   17  C23 UNL     1     -13.610  48.902  -0.581  1.00  0.00     0.136 A 
HETATM   18  N4  UNL     1     -13.924  47.598  -0.751  1.00  0.00    -0.234 N 
HETATM   19  C24 UNL     1     -14.410  47.108  -1.889  1.00  0.00     0.074 A 
HETATM   20  C25 UNL     1     -15.152  45.868  -1.829  1.00  0.00     0.050 C 
HETATM   21  C26 UNL     1     -16.553  45.878  -2.044  1.00  0.00     0.092 C 
HETATM   22  N5  UNL     1     -17.440  46.877  -2.123  1.00  0.00    -0.365 N 
HETATM   23  C32 UNL     1     -17.514  48.037  -2.855  1.00  0.00     0.103 C 
ENDROOT
BRANCH   1  24
HETATM   24  C8  UNL     1     -13.050  51.530  -0.208  1.00  0.00     0.017 C 
HETATM   25  C7  UNL     1     -13.715  52.131   0.738  1.00  0.00     0.030 C 
BRANCH  25  26
HETATM   26  C6  UNL     1     -13.029  52.558   2.000  1.00  0.00     0.033 A 
HETATM   27  C5  UNL     1     -11.983  53.438   2.008  1.00  0.00     0.029 A 
HETATM   28  C4  UNL     1     -11.410  53.778   3.235  1.00  0.00     0.006 A 
HETATM   29  C3  UNL     1     -11.850  53.268   4.434  1.00  0.00     0.048 A 
HETATM   30  C2  UNL     1     -12.907  52.388   4.355  1.00  0.00     0.101 A 
HETATM   31  N9  UNL     1     -13.464  52.055   3.177  1.00  0.00    -0.343 N 
ATOM     32  H9  UNL     1     -14.245  51.399   3.172  1.00  0.00     0.167 HD
BRANCH  30  33
HETATM   33  N1  UNL     1     -13.344  51.891   5.463  1.00  0.00    -0.381 N 
HETATM   34  C1  UNL     1     -12.896  52.332   6.768  1.00  0.00     0.147 C 
ATOM     35  H1  UNL     1     -14.043  51.150   5.417  1.00  0.00     0.160 HD
ENDBRANCH  30  33
ENDBRANCH  25  26
ENDBRANCH   1  24
BRANCH   2  36
HETATM   36  O1  UNL     1     -13.797  53.345  -2.371  1.00  0.00    -0.355 OA
HETATM   37  C11 UNL     1     -12.656  54.006  -2.828  1.00  0.00     0.210 C 
ENDBRANCH   2  36
BRANCH  18  38
HETATM   38  O2  UNL     1     -13.685  46.733   0.348  1.00  0.00    -0.283 OA
ATOM     39  H2  UNL     1     -13.332  45.874   0.148  1.00  0.00     0.245 HD
ENDBRANCH  18  38
BRANCH  22  40
HETATM   40  C27 UNL     1     -18.653  46.684  -1.183  1.00  0.00     0.128 C 
BRANCH  40  41
HETATM   41  C28 UNL     1     -18.216  46.581   0.197  1.00  0.00     0.022 C 
BRANCH  41  42
HETATM   42  C29 UNL     1     -17.933  47.809   0.948  1.00  0.00     0.021 C 
BRANCH  42  43
HETATM   43  C30 UNL     1     -16.515  48.159   1.186  1.00  0.00     0.122 C 
BRANCH  43  44
HETATM   44  N6  UNL     1     -16.355  48.943   2.368  1.00  0.00    -0.367 N 
HETATM   45  C31 UNL     1     -15.318  48.937   3.134  1.00  0.00     0.196 C 
HETATM   46  N7  UNL     1     -15.372  49.809   4.277  1.00  0.00    -0.067 NA
HETATM   47  N8  UNL     1     -14.199  48.125   2.871  1.00  0.00    -0.067 NA
ATOM     48  H6  UNL     1     -17.125  49.559   2.630  1.00  0.00     0.161 HD
ENDBRANCH  43  44
ENDBRANCH  42  43
ENDBRANCH  41  42
ENDBRANCH  40  41
ENDBRANCH  22  40
TORSDOF 10
ENDMDL
MODEL 3
REMARK VINA RESULT: -7.333926910      3.020      4.554
REMARK  10 active torsions:
REMARK  status: ('A' for Active; 'I' for Inactive)
REMARK    1  A    between atoms: N1_2  and  C2_4 
REMARK    2  A    between atoms: C6_8  and  C7_9 
REMARK    3  A    between atoms: C8_10  and  C9_11 
REMARK    4  A    between atoms: C10_12  and  O1_13 
REMARK    5  A    between atoms: N4_30  and  O2_31 
REMARK    6  A    between atoms: N5_36  and  C27_37 
REMARK    7  A    between atoms: C27_37  and  C28_38 
REMARK    8  A    between atoms: C28_38  and  C29_39 
REMARK    9  A    between atoms: C29_39  and  C30_40 
REMARK   10  A    between atoms: C30_40  and  N6_41 
ROOT
HETATM    1  C9  UNL     1     -13.440  55.227   7.186  1.00  0.00     0.010 A 
HETATM    2  C10 UNL     1     -13.028  55.173   8.480  1.00  0.00     0.081 A 
HETATM    3  C12 UNL     1     -12.794  56.341   9.123  1.00  0.00     0.068 A 
HETATM    4  C13 UNL     1     -12.919  57.617   8.628  1.00  0.00     0.046 A 
HETATM    5  N2  UNL     1     -12.924  58.745   9.421  1.00  0.00    -0.364 N 
ATOM      6  H2  UNL     1     -12.013  59.056   9.756  1.00  0.00     0.165 HD
HETATM    7  C14 UNL     1     -14.011  59.514   9.822  1.00  0.00     0.101 C 
HETATM    8  C15 UNL     1     -14.976  60.166   9.045  1.00  0.00    -0.003 C 
HETATM    9  C16 UNL     1     -14.988  61.617   8.993  1.00  0.00     0.040 C 
HETATM   10  C17 UNL     1     -14.130  62.177   8.019  1.00  0.00     0.047 C 
HETATM   11  N3  UNL     1     -14.119  63.637   7.876  1.00  0.00    -0.102 NA
HETATM   12  C18 UNL     1     -13.335  61.402   7.204  1.00  0.00     0.027 C 
HETATM   13  C19 UNL     1     -12.927  60.145   7.077  1.00  0.00     0.017 C 
HETATM   14  C20 UNL     1     -13.567  58.926   6.701  1.00  0.00     0.007 A 
HETATM   15  C21 UNL     1     -13.336  57.683   7.260  1.00  0.00     0.016 A 
HETATM   16  C22 UNL     1     -13.594  56.495   6.585  1.00  0.00     0.008 A 
HETATM   17  C23 UNL     1     -14.133  56.480   5.322  1.00  0.00     0.136 A 
HETATM   18  N4  UNL     1     -14.390  57.699   4.796  1.00  0.00    -0.234 N 
HETATM   19  C24 UNL     1     -14.136  58.837   5.438  1.00  0.00     0.074 A 
HETATM   20  C25 UNL     1     -14.867  60.019   5.034  1.00  0.00     0.050 C 
HETATM   21  C26 UNL     1     -15.852  60.562   5.897  1.00  0.00     0.092 C 
HETATM   22  N5  UNL     1     -16.425  60.091   7.010  1.00  0.00    -0.365 N 
HETATM   23  C32 UNL     1     -15.947  59.582   8.193  1.00  0.00     0.103 C 
ENDROOT
BRANCH   1  24
HETATM   24  C8  UNL     1     -13.689  54.031   6.400  1.00  0.00     0.017 C 
HETATM   25  C7  UNL     1     -12.760  53.347   5.793  1.00  0.00     0.030 C 
BRANCH  25  26
HETATM   26  C6  UNL     1     -13.108  52.123   5.003  1.00  0.00     0.033 A 
HETATM   27  C5  UNL     1     -13.814  51.079   5.535  1.00  0.00     0.029 A 
HETATM   28  C4  UNL     1     -14.093  49.981   4.718  1.00  0.00     0.006 A 
HETATM   29  C3  UNL     1     -13.692  49.903   3.406  1.00  0.00     0.048 A 
HETATM   30  C2  UNL     1     -12.986  50.988   2.933  1.00  0.00     0.101 A 
HETATM   31  N9  UNL     1     -12.713  52.048   3.712  1.00  0.00    -0.343 N 
ATOM     32  H9  UNL     1     -12.187  52.826   3.314  1.00  0.00     0.167 HD
BRANCH  30  33
HETATM   33  N1  UNL     1     -12.595  50.945   1.704  1.00  0.00    -0.381 N 
HETATM   34  C1  UNL     1     -13.117  51.813   0.668  1.00  0.00     0.147 C 
ATOM     35  H1  UNL     1     -11.880  50.265   1.448  1.00  0.00     0.160 HD
ENDBRANCH  30  33
ENDBRANCH  25  26
ENDBRANCH   1  24
BRANCH   2  36
HETATM   36  O1  UNL     1     -12.831  53.968   9.192  1.00  0.00    -0.355 OA
HETATM   37  C11 UNL     1     -12.793  53.907  10.585  1.00  0.00     0.210 C 
ENDBRANCH   2  36
BRANCH  18  38
HETATM   38  O2  UNL     1     -14.932  57.729   3.486  1.00  0.00    -0.283 OA
ATOM     39  H2  UNL     1     -15.878  57.670   3.412  1.00  0.00     0.245 HD
ENDBRANCH  18  38
BRANCH  22  40
HETATM   40  C27 UNL     1     -17.971  60.129   6.956  1.00  0.00     0.128 C 
BRANCH  40  41
HETATM   41  C28 UNL     1     -18.461  61.444   7.326  1.00  0.00     0.022 C 
BRANCH  41  42
HETATM   42  C29 UNL     1     -19.902  61.712   7.255  1.00  0.00     0.021 C 
BRANCH  42  43
HETATM   43  C30 UNL     1     -20.488  61.974   5.922  1.00  0.00     0.122 C 
BRANCH  43  44
HETATM   44  N6  UNL     1     -20.879  60.765   5.270  1.00  0.00    -0.367 N 
HETATM   45  C31 UNL     1     -21.220  60.662   4.031  1.00  0.00     0.196 C 
HETATM   46  N7  UNL     1     -21.580  59.342   3.583  1.00  0.00    -0.067 NA
HETATM   47  N8  UNL     1     -21.241  61.771   3.166  1.00  0.00    -0.067 NA
ATOM     48  H6  UNL     1     -20.891  59.913   5.830  1.00  0.00     0.161 HD
ENDBRANCH  43  44
ENDBRANCH  42  43
ENDBRANCH  41  42
ENDBRANCH  40  41
ENDBRANCH  22  40
TORSDOF 10
ENDMDL
MODEL 4
REMARK VINA RESULT: -7.227026361      2.714      8.918
REMARK  10 active torsions:
REMARK  status: ('A' for Active; 'I' for Inactive)
REMARK    1  A    between atoms: N1_2  and  C2_4 
REMARK    2  A    between atoms: C6_8  and  C7_9 
REMARK    3  A    between atoms: C8_10  and  C9_11 
REMARK    4  A    between atoms: C10_12  and  O1_13 
REMARK    5  A    between atoms: N4_30  and  O2_31 
REMARK    6  A    between atoms: N5_36  and  C27_37 
REMARK    7  A    between atoms: C27_37  and  C28_38 
REMARK    8  A    between atoms: C28_38  and  C29_39 
REMARK    9  A    between atoms: C29_39  and  C30_40 
REMARK   10  A    between atoms: C30_40  and  N6_41 
ROOT
HETATM    1  C9  UNL     1     -16.678  60.384  10.216  1.00  0.00     0.010 A 
HETATM    2  C10 UNL     1     -17.392  61.032   9.260  1.00  0.00     0.081 A 
HETATM    3  C12 UNL     1     -16.844  61.154   8.028  1.00  0.00     0.068 A 
HETATM    4  C13 UNL     1     -15.621  60.697   7.600  1.00  0.00     0.046 A 
HETATM    5  N2  UNL     1     -15.257  60.623   6.272  1.00  0.00    -0.364 N 
ATOM      6  H2  UNL     1     -14.985  61.504   5.837  1.00  0.00     0.165 HD
HETATM    7  C14 UNL     1     -15.213  59.503   5.449  1.00  0.00     0.101 C 
HETATM    8  C15 UNL     1     -14.510  58.303   5.614  1.00  0.00    -0.003 C 
HETATM    9  C16 UNL     1     -13.393  58.004   4.736  1.00  0.00     0.040 C 
HETATM   10  C17 UNL     1     -12.155  58.542   5.155  1.00  0.00     0.047 C 
HETATM   11  N3  UNL     1     -10.971  58.247   4.340  1.00  0.00    -0.102 NA
HETATM   12  C18 UNL     1     -12.031  59.306   6.294  1.00  0.00     0.027 C 
HETATM   13  C19 UNL     1     -12.788  59.917   7.198  1.00  0.00     0.017 C 
HETATM   14  C20 UNL     1     -13.644  59.463   8.246  1.00  0.00     0.007 A 
HETATM   15  C21 UNL     1     -14.853  60.028   8.606  1.00  0.00     0.016 A 
HETATM   16  C22 UNL     1     -15.404  59.882   9.875  1.00  0.00     0.008 A 
HETATM   17  C23 UNL     1     -14.793  59.131  10.849  1.00  0.00     0.136 A 
HETATM   18  N4  UNL     1     -13.629  58.551  10.477  1.00  0.00    -0.234 N 
HETATM   19  C24 UNL     1     -13.097  58.697   9.266  1.00  0.00     0.074 A 
HETATM   20  C25 UNL     1     -12.161  57.691   8.813  1.00  0.00     0.050 C 
HETATM   21  C26 UNL     1     -12.538  56.798   7.779  1.00  0.00     0.092 C 
HETATM   22  N5  UNL     1     -13.718  56.543   7.202  1.00  0.00    -0.365 N 
HETATM   23  C32 UNL     1     -14.690  57.322   6.621  1.00  0.00     0.103 C 
ENDROOT
BRANCH   1  24
HETATM   24  C8  UNL     1     -17.164  60.228  11.576  1.00  0.00     0.017 C 
HETATM   25  C7  UNL     1     -17.287  61.207  12.428  1.00  0.00     0.030 C 
BRANCH  25  26
HETATM   26  C6  UNL     1     -17.800  60.953  13.812  1.00  0.00     0.033 A 
HETATM   27  C5  UNL     1     -17.065  61.229  14.932  1.00  0.00     0.029 A 
HETATM   28  C4  UNL     1     -17.630  60.961  16.180  1.00  0.00     0.006 A 
HETATM   29  C3  UNL     1     -18.890  60.433  16.334  1.00  0.00     0.048 A 
HETATM   30  C2  UNL     1     -19.576  60.179  15.166  1.00  0.00     0.101 A 
HETATM   31  N9  UNL     1     -19.040  60.435  13.961  1.00  0.00    -0.343 N 
ATOM     32  H9  UNL     1     -19.589  60.229  13.127  1.00  0.00     0.167 HD
BRANCH  30  33
HETATM   33  N1  UNL     1     -20.763  59.684  15.277  1.00  0.00    -0.381 N 
HETATM   34  C1  UNL     1     -21.583  59.830  16.461  1.00  0.00     0.147 C 
ATOM     35  H1  UNL     1     -21.143  59.161  14.488  1.00  0.00     0.160 HD
ENDBRANCH  30  33
ENDBRANCH  25  26
ENDBRANCH   1  24
BRANCH   2  36
HETATM   36  O1  UNL     1     -18.675  61.586   9.477  1.00  0.00    -0.355 OA
HETATM   37  C11 UNL     1     -18.962  62.937   9.282  1.00  0.00     0.210 C 
ENDBRANCH   2  36
BRANCH  18  38
HETATM   38  O2  UNL     1     -12.956  57.779  11.459  1.00  0.00    -0.283 OA
ATOM     39  H2  UNL     1     -12.208  58.183  11.883  1.00  0.00     0.245 HD
ENDBRANCH  18  38
BRANCH  22  40
HETATM   40  C27 UNL     1     -14.068  55.037   7.184  1.00  0.00     0.128 C 
BRANCH  40  41
HETATM   41  C28 UNL     1     -12.860  54.233   7.161  1.00  0.00     0.022 C 
BRANCH  41  42
HETATM   42  C29 UNL     1     -12.899  52.872   7.707  1.00  0.00     0.021 C 
BRANCH  42  43
HETATM   43  C30 UNL     1     -12.591  52.699   9.144  1.00  0.00     0.122 C 
BRANCH  43  44
HETATM   44  N6  UNL     1     -13.522  53.397   9.972  1.00  0.00    -0.367 N 
HETATM   45  C31 UNL     1     -13.236  54.386  10.748  1.00  0.00     0.196 C 
HETATM   46  N7  UNL     1     -14.334  54.940  11.495  1.00  0.00    -0.067 NA
HETATM   47  N8  UNL     1     -11.929  54.896  10.860  1.00  0.00    -0.067 NA
ATOM     48  H6  UNL     1     -14.493  53.087   9.949  1.00  0.00     0.161 HD
ENDBRANCH  43  44
ENDBRANCH  42  43
ENDBRANCH  41  42
ENDBRANCH  40  41
ENDBRANCH  22  40
TORSDOF 10
ENDMDL
MODEL 5
REMARK VINA RESULT: -7.200210890     10.808     14.722
REMARK  10 active torsions:
REMARK  status: ('A' for Active; 'I' for Inactive)
REMARK    1  A    between atoms: N1_2  and  C2_4 
REMARK    2  A    between atoms: C6_8  and  C7_9 
REMARK    3  A    between atoms: C8_10  and  C9_11 
REMARK    4  A    between atoms: C10_12  and  O1_13 
REMARK    5  A    between atoms: N4_30  and  O2_31 
REMARK    6  A    between atoms: N5_36  and  C27_37 
REMARK    7  A    between atoms: C27_37  and  C28_38 
REMARK    8  A    between atoms: C28_38  and  C29_39 
REMARK    9  A    between atoms: C29_39  and  C30_40 
REMARK   10  A    between atoms: C30_40  and  N6_41 
ROOT
HETATM    1  C9  UNL     1     -16.671  47.839  -2.089  1.00  0.00     0.010 A 
HETATM    2  C10 UNL     1     -17.381  47.193  -1.128  1.00  0.00     0.081 A 
HETATM    3  C12 UNL     1     -16.832  47.082   0.104  1.00  0.00     0.068 A 
HETATM    4  C13 UNL     1     -15.611  47.547   0.528  1.00  0.00     0.046 A 
HETATM    5  N2  UNL     1     -15.246  47.630   1.855  1.00  0.00    -0.364 N 
ATOM      6  H2  UNL     1     -14.969  46.753   2.296  1.00  0.00     0.165 HD
HETATM    7  C14 UNL     1     -15.207  48.756   2.672  1.00  0.00     0.101 C 
HETATM    8  C15 UNL     1     -14.509  49.957   2.499  1.00  0.00    -0.003 C 
HETATM    9  C16 UNL     1     -13.394  50.267   3.374  1.00  0.00     0.040 C 
HETATM   10  C17 UNL     1     -12.154  49.732   2.958  1.00  0.00     0.047 C 
HETATM   11  N3  UNL     1     -10.970  50.038   3.769  1.00  0.00    -0.102 NA
HETATM   12  C18 UNL     1     -12.027  48.963   1.823  1.00  0.00     0.027 C 
HETATM   13  C19 UNL     1     -12.781  48.343   0.923  1.00  0.00     0.017 C 
HETATM   14  C20 UNL     1     -13.640  48.786  -0.127  1.00  0.00     0.007 A 
HETATM   15  C21 UNL     1     -14.847  48.213  -0.483  1.00  0.00     0.016 A 
HETATM   16  C22 UNL     1     -15.400  48.350  -1.752  1.00  0.00     0.008 A 
HETATM   17  C23 UNL     1     -14.793  49.098  -2.731  1.00  0.00     0.136 A 
HETATM   18  N4  UNL     1     -13.631  49.685  -2.363  1.00  0.00    -0.234 N 
HETATM   19  C24 UNL     1     -13.097  49.549  -1.152  1.00  0.00     0.074 A 
HETATM   20  C25 UNL     1     -12.166  50.562  -0.706  1.00  0.00     0.050 C 
HETATM   21  C26 UNL     1     -12.547  51.459   0.324  1.00  0.00     0.092 C 
HETATM   22  N5  UNL     1     -13.728  51.712   0.900  1.00  0.00    -0.365 N 
HETATM   23  C32 UNL     1     -14.695  50.932   1.486  1.00  0.00     0.103 C 
ENDROOT
BRANCH   1  24
HETATM   24  C8  UNL     1     -17.159  47.985  -3.449  1.00  0.00     0.017 C 
HETATM   25  C7  UNL     1     -17.218  47.012  -4.316  1.00  0.00     0.030 C 
BRANCH  25  26
HETATM   26  C6  UNL     1     -17.738  47.255  -5.700  1.00  0.00     0.033 A 
HETATM   27  C5  UNL     1     -17.001  46.990  -6.820  1.00  0.00     0.029 A 
HETATM   28  C4  UNL     1     -17.574  47.246  -8.068  1.00  0.00     0.006 A 
HETATM   29  C3  UNL     1     -18.843  47.751  -8.220  1.00  0.00     0.048 A 
HETATM   30  C2  UNL     1     -19.531  47.995  -7.051  1.00  0.00     0.101 A 
HETATM   31  N9  UNL     1     -18.987  47.751  -5.846  1.00  0.00    -0.343 N 
ATOM     32  H9  UNL     1     -19.538  47.949  -5.011  1.00  0.00     0.167 HD
BRANCH  30  33
HETATM   33  N1  UNL     1     -20.726  48.469  -7.159  1.00  0.00    -0.381 N 
HETATM   34  C1  UNL     1     -21.504  48.406  -8.379  1.00  0.00     0.147 C 
ATOM     35  H1  UNL     1     -21.145  48.913  -6.342  1.00  0.00     0.160 HD
ENDBRANCH  30  33
ENDBRANCH  25  26
ENDBRANCH   1  24
BRANCH   2  36
HETATM   36  O1  UNL     1     -18.662  46.633  -1.341  1.00  0.00    -0.355 OA
HETATM   37  C11 UNL     1     -18.912  45.262  -1.268  1.00  0.00     0.210 C 
ENDBRANCH   2  36
BRANCH  18  38
HETATM   38  O2  UNL     1     -12.963  50.455  -3.350  1.00  0.00    -0.283 OA
ATOM     39  H2  UNL     1     -12.593  51.283  -3.069  1.00  0.00     0.245 HD
ENDBRANCH  18  38
BRANCH  22  40
HETATM   40  C27 UNL     1     -14.085  53.217   0.909  1.00  0.00     0.128 C 
BRANCH  40  41
HETATM   41  C28 UNL     1     -12.880  54.026   0.876  1.00  0.00     0.022 C 
BRANCH  41  42
HETATM   42  C29 UNL     1     -12.941  55.370   0.291  1.00  0.00     0.021 C 
BRANCH  42  43
HETATM   43  C30 UNL     1     -12.677  55.500  -1.160  1.00  0.00     0.122 C 
BRANCH  43  44
HETATM   44  N6  UNL     1     -13.594  54.728  -1.936  1.00  0.00    -0.367 N 
HETATM   45  C31 UNL     1     -13.279  53.739  -2.700  1.00  0.00     0.196 C 
HETATM   46  N7  UNL     1     -14.369  53.104  -3.392  1.00  0.00    -0.067 NA
HETATM   47  N8  UNL     1     -11.949  53.304  -2.850  1.00  0.00    -0.067 NA
ATOM     48  H6  UNL     1     -14.581  54.981  -1.882  1.00  0.00     0.161 HD
ENDBRANCH  43  44
ENDBRANCH  42  43
ENDBRANCH  41  42
ENDBRANCH  40  41
ENDBRANCH  22  40
TORSDOF 10
ENDMDL
