MODEL 1
REMARK VINA RESULT: -11.136662185      0.000      0.000
REMARK  10 active torsions:
REMARK  status: ('A' for Active; 'I' for Inactive)
REMARK    1  A    between atoms: C7_7  and  C8_8 
REMARK    2  A    between atoms: C8_8  and  N1_9 
REMARK    3  A    between atoms: N1_9  and  C9_11 
REMARK    4  A    between atoms: N3_15  and  C11_17 
REMARK    5  A    between atoms: C11_17  and  C12_18 
REMARK    6  A    between atoms: C12_18  and  C13_19 
REMARK    7  A    between atoms: C16_22  and  N4_23 
REMARK    8  A    between atoms: N4_23  and  S1_25 
REMARK    9  A    between atoms: S1_25  and  C17_28 
REMARK   10  A    between atoms: C20_31  and  C21_32 
ROOT
HETATM    1  C1  UNL     1     -13.322  55.903   1.651  1.00  0.00     0.103 C 
HETATM    2  C2  UNL     1     -13.149  55.227   0.649  1.00  0.00    -0.149 C 
HETATM    3  C3  UNL     1     -12.971  54.425  -0.523  1.00  0.00     0.005 A 
HETATM    4  C4  UNL     1     -13.011  55.007  -1.792  1.00  0.00     0.020 A 
HETATM    5  C5  UNL     1     -12.836  54.201  -2.867  1.00  0.00     0.002 A 
HETATM    6  C6  UNL     1     -12.624  52.826  -2.705  1.00  0.00     0.009 A 
HETATM    7  C7  UNL     1     -12.586  52.261  -1.458  1.00  0.00    -0.039 A 
HETATM    8  C30 UNL     1     -12.760  53.070  -0.362  1.00  0.00     0.028 A 
ENDROOT
BRANCH   7   9
HETATM    9  C8  UNL     1     -12.383  50.817  -1.302  1.00  0.00     0.160 C 
BRANCH   9  10
HETATM   10  N1  UNL     1     -13.019  50.060  -2.351  1.00  0.00    -0.371 N 
ATOM     11  H1  UNL     1     -12.504  50.008  -3.230  1.00  0.00     0.161 HD
BRANCH  10  12
HETATM   12  C9  UNL     1     -14.114  49.458  -2.336  1.00  0.00     0.131 A 
HETATM   13  N2  UNL     1     -14.619  48.862  -1.263  1.00  0.00    -0.176 N 
HETATM   14  C10 UNL     1     -15.826  48.251  -1.318  1.00  0.00     0.681 A 
ATOM     15  H2  UNL     1     -14.093  48.865  -0.389  1.00  0.00     0.186 HD
HETATM   16  N3  UNL     1     -16.318  47.635  -0.319  1.00  0.00    -0.226 N 
HETATM   17  N5  UNL     1     -16.551  48.233  -2.481  1.00  0.00    -0.176 N 
ATOM     18  H3  UNL     1     -17.232  47.196  -0.424  1.00  0.00     0.177 HD
HETATM   19  C26 UNL     1     -16.078  48.824  -3.595  1.00  0.00     0.135 A 
ATOM     20  H5  UNL     1     -17.459  47.766  -2.504  1.00  0.00     0.186 HD
HETATM   21  N6  UNL     1     -16.546  48.966  -4.852  1.00  0.00    -0.351 N 
HETATM   22  C29 UNL     1     -14.851  49.439  -3.514  1.00  0.00     0.054 A 
HETATM   23  C27 UNL     1     -15.660  49.649  -5.581  1.00  0.00     0.091 A 
ATOM     24  H6  UNL     1     -17.438  48.607  -5.192  1.00  0.00     0.166 HD
HETATM   25  C28 UNL     1     -14.595  49.955  -4.773  1.00  0.00     0.036 A 
BRANCH  16  26
HETATM   26  C11 UNL     1     -15.657  47.528   0.939  1.00  0.00     0.142 C 
BRANCH  26  27
HETATM   27  C12 UNL     1     -16.346  48.520   1.886  1.00  0.00     0.058 C 
BRANCH  27  28
HETATM   28  C13 UNL     1     -15.272  49.281   2.616  1.00  0.00    -0.057 A 
HETATM   29  C14 UNL     1     -14.315  49.961   1.861  1.00  0.00     0.009 A 
HETATM   30  C15 UNL     1     -13.306  50.721   2.435  1.00  0.00     0.030 A 
HETATM   31  C16 UNL     1     -13.221  50.825   3.805  1.00  0.00     0.042 A 
HETATM   32  C24 UNL     1     -14.169  50.149   4.545  1.00  0.00     0.030 A 
HETATM   33  C25 UNL     1     -15.182  49.386   3.973  1.00  0.00     0.009 A 
BRANCH  31  34
HETATM   34  N4  UNL     1     -12.231  51.597   4.446  1.00  0.00    -0.281 N 
ATOM     35  H4  UNL     1     -11.354  51.164   4.737  1.00  0.00     0.179 HD
BRANCH  34  36
HETATM   36  S1  UNL     1     -12.503  53.265   4.734  1.00  0.00     0.263 S 
HETATM   37  O1  UNL     1     -11.455  54.069   4.042  1.00  0.00    -0.200 OA
HETATM   38  O2  UNL     1     -13.881  53.636   4.159  1.00  0.00    -0.200 OA
BRANCH  36  39
HETATM   39  C17 UNL     1     -12.574  53.667   6.419  1.00  0.00     0.079 A 
HETATM   40  C18 UNL     1     -12.674  52.673   7.349  1.00  0.00     0.026 A 
HETATM   41  C19 UNL     1     -12.733  52.924   8.704  1.00  0.00     0.020 A 
HETATM   42  C20 UNL     1     -12.692  54.228   9.139  1.00  0.00     0.040 A 
HETATM   43  C22 UNL     1     -12.590  55.259   8.206  1.00  0.00     0.020 A 
HETATM   44  C23 UNL     1     -12.531  54.984   6.861  1.00  0.00     0.026 A 
BRANCH  42  45
HETATM   45  C21 UNL     1     -12.764  54.549  10.557  1.00  0.00     0.209 C 
HETATM   46  O3  UNL     1     -11.887  55.272  11.113  1.00  0.00    -0.644 OA
HETATM   47  O4  UNL     1     -13.804  54.075  11.348  1.00  0.00    -0.644 OA
ENDBRANCH  42  45
ENDBRANCH  36  39
ENDBRANCH  34  36
ENDBRANCH  31  34
ENDBRANCH  27  28
ENDBRANCH  26  27
ENDBRANCH  16  26
ENDBRANCH  10  12
ENDBRANCH   9  10
ENDBRANCH   7   9
TORSDOF 10
ENDMDL
MODEL 2
REMARK VINA RESULT: -11.131095640      5.077     12.370
REMARK  10 active torsions:
REMARK  status: ('A' for Active; 'I' for Inactive)
REMARK    1  A    between atoms: C7_7  and  C8_8 
REMARK    2  A    between atoms: C8_8  and  N1_9 
REMARK    3  A    between atoms: N1_9  and  C9_11 
REMARK    4  A    between atoms: N3_15  and  C11_17 
REMARK    5  A    between atoms: C11_17  and  C12_18 
REMARK    6  A    between atoms: C12_18  and  C13_19 
REMARK    7  A    between atoms: C16_22  and  N4_23 
REMARK    8  A    between atoms: N4_23  and  S1_25 
REMARK    9  A    between atoms: S1_25  and  C17_28 
REMARK   10  A    between atoms: C20_31  and  C21_32 
ROOT
HETATM    1  C1  UNL     1     -13.214  52.340   6.420  1.00  0.00     0.103 C 
HETATM    2  C2  UNL     1     -13.081  53.027   7.420  1.00  0.00    -0.149 C 
HETATM    3  C3  UNL     1     -12.951  53.843   8.589  1.00  0.00     0.005 A 
HETATM    4  C4  UNL     1     -13.058  53.279   9.861  1.00  0.00     0.020 A 
HETATM    5  C5  UNL     1     -12.926  54.097  10.934  1.00  0.00     0.002 A 
HETATM    6  C6  UNL     1     -12.691  55.468  10.765  1.00  0.00     0.009 A 
HETATM    7  C7  UNL     1     -12.586  56.016   9.513  1.00  0.00    -0.039 A 
HETATM    8  C30 UNL     1     -12.717  55.193   8.421  1.00  0.00     0.028 A 
ENDROOT
BRANCH   7   9
HETATM    9  C8  UNL     1     -12.361  57.455   9.349  1.00  0.00     0.160 C 
BRANCH   9  10
HETATM   10  N1  UNL     1     -12.995  58.229  10.386  1.00  0.00    -0.371 N 
ATOM     11  H1  UNL     1     -12.465  58.321  11.253  1.00  0.00     0.161 HD
BRANCH  10  12
HETATM   12  C9  UNL     1     -14.104  58.804  10.374  1.00  0.00     0.131 A 
HETATM   13  N2  UNL     1     -14.622  59.397   9.305  1.00  0.00    -0.176 N 
HETATM   14  C10 UNL     1     -15.844  59.977   9.362  1.00  0.00     0.681 A 
ATOM     15  H2  UNL     1     -14.094  59.415   8.432  1.00  0.00     0.186 HD
HETATM   16  N3  UNL     1     -16.348  60.590   8.367  1.00  0.00    -0.226 N 
HETATM   17  N5  UNL     1     -16.571  59.968  10.524  1.00  0.00    -0.176 N 
ATOM     18  H3  UNL     1     -17.273  61.006   8.474  1.00  0.00     0.177 HD
HETATM   19  C26 UNL     1     -16.086  59.378  11.633  1.00  0.00     0.135 A 
ATOM     20  H5  UNL     1     -17.490  60.411  10.548  1.00  0.00     0.186 HD
HETATM   21  N6  UNL     1     -16.553  59.214  12.888  1.00  0.00    -0.351 N 
HETATM   22  C29 UNL     1     -14.844  58.795  11.550  1.00  0.00     0.054 A 
HETATM   23  C27 UNL     1     -15.653  58.547  13.613  1.00  0.00     0.091 A 
ATOM     24  H6  UNL     1     -17.455  59.547  13.229  1.00  0.00     0.166 HD
HETATM   25  C28 UNL     1     -14.579  58.274  12.805  1.00  0.00     0.036 A 
BRANCH  16  26
HETATM   26  C11 UNL     1     -15.687  60.725   7.112  1.00  0.00     0.142 C 
BRANCH  26  27
HETATM   27  C12 UNL     1     -16.367  59.743   6.147  1.00  0.00     0.058 C 
BRANCH  27  28
HETATM   28  C13 UNL     1     -15.287  58.981   5.429  1.00  0.00    -0.057 A 
HETATM   29  C14 UNL     1     -14.330  58.312   6.195  1.00  0.00     0.009 A 
HETATM   30  C15 UNL     1     -13.314  57.551   5.631  1.00  0.00     0.030 A 
HETATM   31  C16 UNL     1     -13.222  57.436   4.263  1.00  0.00     0.042 A 
HETATM   32  C24 UNL     1     -14.170  58.103   3.512  1.00  0.00     0.030 A 
HETATM   33  C25 UNL     1     -15.189  58.865   4.073  1.00  0.00     0.009 A 
BRANCH  31  34
HETATM   34  N4  UNL     1     -12.226  56.663   3.633  1.00  0.00    -0.281 N 
ATOM     35  H4  UNL     1     -11.345  57.095   3.352  1.00  0.00     0.179 HD
BRANCH  34  36
HETATM   36  S1  UNL     1     -12.497  54.996   3.341  1.00  0.00     0.263 S 
HETATM   37  O1  UNL     1     -11.448  54.191   4.030  1.00  0.00    -0.200 OA
HETATM   38  O2  UNL     1     -13.874  54.622   3.915  1.00  0.00    -0.200 OA
BRANCH  36  39
HETATM   39  C17 UNL     1     -12.568  54.598   1.654  1.00  0.00     0.079 A 
HETATM   40  C18 UNL     1     -12.649  55.595   0.726  1.00  0.00     0.026 A 
HETATM   41  C19 UNL     1     -12.707  55.349  -0.629  1.00  0.00     0.020 A 
HETATM   42  C20 UNL     1     -12.685  54.045  -1.067  1.00  0.00     0.040 A 
HETATM   43  C22 UNL     1     -12.601  53.010  -0.136  1.00  0.00     0.020 A 
HETATM   44  C23 UNL     1     -12.543  53.282   1.210  1.00  0.00     0.026 A 
BRANCH  42  45
HETATM   45  C21 UNL     1     -12.757  53.728  -2.485  1.00  0.00     0.209 C 
HETATM   46  O3  UNL     1     -11.885  52.997  -3.041  1.00  0.00    -0.644 OA
HETATM   47  O4  UNL     1     -13.790  54.215  -3.278  1.00  0.00    -0.644 OA
ENDBRANCH  42  45
ENDBRANCH  36  39
ENDBRANCH  34  36
ENDBRANCH  31  34
ENDBRANCH  27  28
ENDBRANCH  26  27
ENDBRANCH  16  26
ENDBRANCH  10  12
ENDBRANCH   9  10
ENDBRANCH   7   9
TORSDOF 10
ENDMDL
MODEL 3
REMARK VINA RESULT: -10.916712288      1.540      4.452
REMARK  10 active torsions:
REMARK  status: ('A' for Active; 'I' for Inactive)
REMARK    1  A    between atoms: C7_7  and  C8_8 
REMARK    2  A    between atoms: C8_8  and  N1_9 
REMARK    3  A    between atoms: N1_9  and  C9_11 
REMARK    4  A    between atoms: N3_15  and  C11_17 
REMARK    5  A    between atoms: C11_17  and  C12_18 
REMARK    6  A    between atoms: C12_18  and  C13_19 
REMARK    7  A    between atoms: C16_22  and  N4_23 
REMARK    8  A    between atoms: N4_23  and  S1_25 
REMARK    9  A    between atoms: S1_25  and  C17_28 
REMARK   10  A    between atoms: C20_31  and  C21_32 
ROOT
HETATM    1  C1  UNL     1     -13.308  51.524   5.852  1.00  0.00     0.103 C 
HETATM    2  C2  UNL     1     -13.642  50.926   4.841  1.00  0.00    -0.149 C 
HETATM    3  C3  UNL     1     -14.016  50.205   3.663  1.00  0.00     0.005 A 
HETATM    4  C4  UNL     1     -15.233  49.522   3.608  1.00  0.00     0.020 A 
HETATM    5  C5  UNL     1     -15.538  48.856   2.467  1.00  0.00     0.002 A 
HETATM    6  C6  UNL     1     -14.655  48.855   1.380  1.00  0.00     0.009 A 
HETATM    7  C7  UNL     1     -13.463  49.528   1.440  1.00  0.00    -0.039 A 
HETATM    8  C30 UNL     1     -13.146  50.207   2.591  1.00  0.00     0.028 A 
ENDROOT
BRANCH   7   9
HETATM    9  C8  UNL     1     -12.538  49.503   0.302  1.00  0.00     0.160 C 
BRANCH   9  10
HETATM   10  N1  UNL     1     -13.182  49.082  -0.917  1.00  0.00    -0.371 N 
ATOM     11  H1  UNL     1     -13.261  48.073  -1.045  1.00  0.00     0.161 HD
BRANCH  10  12
HETATM   12  C9  UNL     1     -13.658  49.778  -1.838  1.00  0.00     0.131 A 
HETATM   13  N2  UNL     1     -13.291  51.029  -2.088  1.00  0.00    -0.176 N 
HETATM   14  C10 UNL     1     -13.835  51.713  -3.123  1.00  0.00     0.681 A 
ATOM     15  H2  UNL     1     -12.594  51.480  -1.495  1.00  0.00     0.186 HD
HETATM   16  N3  UNL     1     -13.535  52.927  -3.362  1.00  0.00    -0.226 N 
HETATM   17  N5  UNL     1     -14.774  51.130  -3.933  1.00  0.00    -0.176 N 
ATOM     18  H3  UNL     1     -13.979  53.386  -4.157  1.00  0.00     0.177 HD
HETATM   19  C26 UNL     1     -15.176  49.863  -3.717  1.00  0.00     0.135 A 
ATOM     20  H5  UNL     1     -15.173  51.662  -4.707  1.00  0.00     0.186 HD
HETATM   21  N6  UNL     1     -16.059  49.044  -4.323  1.00  0.00    -0.351 N 
HETATM   22  C29 UNL     1     -14.610  49.189  -2.660  1.00  0.00     0.054 A 
HETATM   23  C27 UNL     1     -16.081  47.868  -3.691  1.00  0.00     0.091 A 
ATOM     24  H6  UNL     1     -16.623  49.285  -5.138  1.00  0.00     0.166 HD
HETATM   25  C28 UNL     1     -15.188  47.931  -2.652  1.00  0.00     0.036 A 
BRANCH  16  26
HETATM   26  C11 UNL     1     -12.613  53.677  -2.577  1.00  0.00     0.142 C 
BRANCH  26  27
HETATM   27  C12 UNL     1     -13.381  54.889  -2.031  1.00  0.00     0.058 C 
BRANCH  27  28
HETATM   28  C13 UNL     1     -13.285  54.857  -0.530  1.00  0.00    -0.057 A 
HETATM   29  C14 UNL     1     -13.908  53.808   0.149  1.00  0.00     0.009 A 
HETATM   30  C15 UNL     1     -13.849  53.665   1.529  1.00  0.00     0.030 A 
HETATM   31  C16 UNL     1     -13.155  54.584   2.283  1.00  0.00     0.042 A 
HETATM   32  C24 UNL     1     -12.544  55.619   1.606  1.00  0.00     0.030 A 
HETATM   33  C25 UNL     1     -12.601  55.765   0.224  1.00  0.00     0.009 A 
BRANCH  31  34
HETATM   34  N4  UNL     1     -13.043  54.482   3.685  1.00  0.00    -0.281 N 
ATOM     35  H4  UNL     1     -12.205  54.077   4.102  1.00  0.00     0.179 HD
BRANCH  34  36
HETATM   36  S1  UNL     1     -14.317  55.042   4.685  1.00  0.00     0.263 S 
HETATM   37  O1  UNL     1     -14.682  56.435   4.296  1.00  0.00    -0.200 OA
HETATM   38  O2  UNL     1     -15.535  54.128   4.474  1.00  0.00    -0.200 OA
BRANCH  36  39
HETATM   39  C17 UNL     1     -13.950  54.953   6.378  1.00  0.00     0.079 A 
HETATM   40  C18 UNL     1     -12.866  55.619   6.871  1.00  0.00     0.026 A 
HETATM   41  C19 UNL     1     -12.519  55.592   8.206  1.00  0.00     0.020 A 
HETATM   42  C20 UNL     1     -13.295  54.862   9.077  1.00  0.00     0.040 A 
HETATM   43  C22 UNL     1     -14.407  54.175   8.595  1.00  0.00     0.020 A 
HETATM   44  C23 UNL     1     -14.733  54.218   7.260  1.00  0.00     0.026 A 
BRANCH  42  45
HETATM   45  C21 UNL     1     -12.966  54.788  10.493  1.00  0.00     0.209 C 
HETATM   46  O3  UNL     1     -13.734  54.212  11.318  1.00  0.00    -0.644 OA
HETATM   47  O4  UNL     1     -11.793  55.346  10.988  1.00  0.00    -0.644 OA
ENDBRANCH  42  45
ENDBRANCH  36  39
ENDBRANCH  34  36
ENDBRANCH  31  34
ENDBRANCH  27  28
ENDBRANCH  26  27
ENDBRANCH  16  26
ENDBRANCH  10  12
ENDBRANCH   9  10
ENDBRANCH   7   9
TORSDOF 10
ENDMDL
MODEL 4
REMARK VINA RESULT: -10.860754325      5.101     11.520
REMARK  10 active torsions:
REMARK  status: ('A' for Active; 'I' for Inactive)
REMARK    1  A    between atoms: C7_7  and  C8_8 
REMARK    2  A    between atoms: C8_8  and  N1_9 
REMARK    3  A    between atoms: N1_9  and  C9_11 
REMARK    4  A    between atoms: N3_15  and  C11_17 
REMARK    5  A    between atoms: C11_17  and  C12_18 
REMARK    6  A    between atoms: C12_18  and  C13_19 
REMARK    7  A    between atoms: C16_22  and  N4_23 
REMARK    8  A    between atoms: N4_23  and  S1_25 
REMARK    9  A    between atoms: S1_25  and  C17_28 
REMARK   10  A    between atoms: C20_31  and  C21_32 
ROOT
HETATM    1  C1  UNL     1     -17.500  60.155   6.815  1.00  0.00     0.103 C 
HETATM    2  C2  UNL     1     -16.309  59.985   6.607  1.00  0.00    -0.149 C 
HETATM    3  C3  UNL     1     -14.917  59.759   6.363  1.00  0.00     0.005 A 
HETATM    4  C4  UNL     1     -14.373  59.992   5.099  1.00  0.00     0.020 A 
HETATM    5  C5  UNL     1     -13.049  59.762   4.923  1.00  0.00     0.002 A 
HETATM    6  C6  UNL     1     -12.255  59.302   5.981  1.00  0.00     0.009 A 
HETATM    7  C7  UNL     1     -12.795  59.075   7.220  1.00  0.00    -0.039 A 
HETATM    8  C30 UNL     1     -14.135  59.307   7.408  1.00  0.00     0.028 A 
ENDROOT
BRANCH   7   9
HETATM    9  C8  UNL     1     -11.957  58.573   8.314  1.00  0.00     0.160 C 
BRANCH   9  10
HETATM   10  N1  UNL     1     -12.568  58.771   9.605  1.00  0.00    -0.371 N 
ATOM     11  H1  UNL     1     -12.440  59.697  10.014  1.00  0.00     0.161 HD
BRANCH  10  12
HETATM   12  C9  UNL     1     -13.232  57.969  10.294  1.00  0.00     0.131 A 
HETATM   13  N2  UNL     1     -13.006  56.661  10.335  1.00  0.00    -0.176 N 
HETATM   14  C10 UNL     1     -13.754  55.857  11.128  1.00  0.00     0.681 A 
ATOM     15  H2  UNL     1     -12.262  56.259   9.764  1.00  0.00     0.186 HD
HETATM   16  N3  UNL     1     -13.589  54.595  11.157  1.00  0.00    -0.226 N 
HETATM   17  N5  UNL     1     -14.759  56.374  11.902  1.00  0.00    -0.176 N 
ATOM     18  H3  UNL     1     -14.184  54.044  11.776  1.00  0.00     0.177 HD
HETATM   19  C26 UNL     1     -15.024  57.694  11.893  1.00  0.00     0.135 A 
ATOM     20  H5  UNL     1     -15.313  55.752  12.493  1.00  0.00     0.186 HD
HETATM   21  N6  UNL     1     -15.925  58.474  12.525  1.00  0.00    -0.351 N 
HETATM   22  C29 UNL     1     -14.252  58.491  11.080  1.00  0.00     0.054 A 
HETATM   23  C27 UNL     1     -15.758  59.743  12.146  1.00  0.00     0.091 A 
ATOM     24  H6  UNL     1     -16.624  58.145  13.191  1.00  0.00     0.166 HD
HETATM   25  C28 UNL     1     -14.723  59.782  11.246  1.00  0.00     0.036 A 
BRANCH  16  26
HETATM   26  C11 UNL     1     -12.618  53.913  10.370  1.00  0.00     0.142 C 
BRANCH  26  27
HETATM   27  C12 UNL     1     -13.390  53.108   9.315  1.00  0.00     0.058 C 
BRANCH  27  28
HETATM   28  C13 UNL     1     -13.239  53.814   7.995  1.00  0.00    -0.057 A 
HETATM   29  C14 UNL     1     -12.491  53.191   6.994  1.00  0.00     0.009 A 
HETATM   30  C15 UNL     1     -12.322  53.739   5.730  1.00  0.00     0.030 A 
HETATM   31  C16 UNL     1     -12.903  54.949   5.425  1.00  0.00     0.042 A 
HETATM   32  C24 UNL     1     -13.639  55.561   6.420  1.00  0.00     0.030 A 
HETATM   33  C25 UNL     1     -13.811  55.014   7.687  1.00  0.00     0.009 A 
BRANCH  31  34
HETATM   34  N4  UNL     1     -12.783  55.547   4.154  1.00  0.00    -0.281 N 
ATOM     35  H4  UNL     1     -11.893  55.951   3.861  1.00  0.00     0.179 HD
BRANCH  34  36
HETATM   36  S1  UNL     1     -14.136  55.595   3.103  1.00  0.00     0.263 S 
HETATM   37  O1  UNL     1     -15.223  54.731   3.648  1.00  0.00    -0.200 OA
HETATM   38  O2  UNL     1     -14.641  57.047   3.029  1.00  0.00    -0.200 OA
BRANCH  36  39
HETATM   39  C17 UNL     1     -13.754  55.148   1.472  1.00  0.00     0.079 A 
HETATM   40  C18 UNL     1     -14.211  53.964   0.970  1.00  0.00     0.026 A 
HETATM   41  C19 UNL     1     -13.945  53.549  -0.318  1.00  0.00     0.020 A 
HETATM   42  C20 UNL     1     -13.187  54.359  -1.132  1.00  0.00     0.040 A 
HETATM   43  C22 UNL     1     -12.711  55.573  -0.640  1.00  0.00     0.020 A 
HETATM   44  C23 UNL     1     -12.990  55.965   0.647  1.00  0.00     0.026 A 
BRANCH  42  45
HETATM   45  C21 UNL     1     -12.866  53.963  -2.495  1.00  0.00     0.209 C 
HETATM   46  O3  UNL     1     -13.476  54.460  -3.486  1.00  0.00    -0.644 OA
HETATM   47  O4  UNL     1     -11.872  53.025  -2.756  1.00  0.00    -0.644 OA
ENDBRANCH  42  45
ENDBRANCH  36  39
ENDBRANCH  34  36
ENDBRANCH  31  34
ENDBRANCH  27  28
ENDBRANCH  26  27
ENDBRANCH  16  26
ENDBRANCH  10  12
ENDBRANCH   9  10
ENDBRANCH   7   9
TORSDOF 10
ENDMDL
MODEL 5
REMARK VINA RESULT: -10.836113702      4.626     11.331
REMARK  10 active torsions:
REMARK  status: ('A' for Active; 'I' for Inactive)
REMARK    1  A    between atoms: C7_7  and  C8_8 
REMARK    2  A    between atoms: C8_8  and  N1_9 
REMARK    3  A    between atoms: N1_9  and  C9_11 
REMARK    4  A    between atoms: N3_15  and  C11_17 
REMARK    5  A    between atoms: C11_17  and  C12_18 
REMARK    6  A    between atoms: C12_18  and  C13_19 
REMARK    7  A    between atoms: C16_22  and  N4_23 
REMARK    8  A    between atoms: N4_23  and  S1_25 
REMARK    9  A    between atoms: S1_25  and  C17_28 
REMARK   10  A    between atoms: C20_31  and  C21_32 
ROOT
HETATM    1  C1  UNL     1     -13.334  56.736   2.219  1.00  0.00     0.103 C 
HETATM    2  C2  UNL     1     -13.647  57.317   3.247  1.00  0.00    -0.149 C 
HETATM    3  C3  UNL     1     -13.996  58.016   4.445  1.00  0.00     0.005 A 
HETATM    4  C4  UNL     1     -15.207  58.707   4.534  1.00  0.00     0.020 A 
HETATM    5  C5  UNL     1     -15.487  59.353   5.692  1.00  0.00     0.002 A 
HETATM    6  C6  UNL     1     -14.586  59.327   6.764  1.00  0.00     0.009 A 
HETATM    7  C7  UNL     1     -13.400  58.647   6.671  1.00  0.00    -0.039 A 
HETATM    8  C30 UNL     1     -13.108  57.988   5.501  1.00  0.00     0.028 A 
ENDROOT
BRANCH   7   9
HETATM    9  C8  UNL     1     -12.456  58.644   7.793  1.00  0.00     0.160 C 
BRANCH   9  10
HETATM   10  N1  UNL     1     -13.063  59.096   9.019  1.00  0.00    -0.371 N 
ATOM     11  H1  UNL     1     -13.056  60.105   9.166  1.00  0.00     0.161 HD
BRANCH  10  12
HETATM   12  C9  UNL     1     -13.596  58.425   9.928  1.00  0.00     0.131 A 
HETATM   13  N2  UNL     1     -13.286  57.164  10.200  1.00  0.00    -0.176 N 
HETATM   14  C10 UNL     1     -13.890  56.510  11.221  1.00  0.00     0.681 A 
ATOM     15  H2  UNL     1     -12.585  56.682   9.635  1.00  0.00     0.186 HD
HETATM   16  N3  UNL     1     -13.645  55.288  11.480  1.00  0.00    -0.226 N 
HETATM   17  N5  UNL     1     -14.835  57.134  11.993  1.00  0.00    -0.176 N 
ATOM     18  H3  UNL     1     -14.133  54.852  12.262  1.00  0.00     0.177 HD
HETATM   19  C26 UNL     1     -15.181  58.413  11.753  1.00  0.00     0.135 A 
ATOM     20  H5  UNL     1     -15.280  56.625  12.757  1.00  0.00     0.186 HD
HETATM   21  N6  UNL     1     -16.054  59.270  12.322  1.00  0.00    -0.351 N 
HETATM   22  C29 UNL     1     -14.554  59.057  10.713  1.00  0.00     0.054 A 
HETATM   23  C27 UNL     1     -16.009  60.440  11.682  1.00  0.00     0.091 A 
ATOM     24  H6  UNL     1     -16.654  59.057  13.118  1.00  0.00     0.166 HD
HETATM   25  C28 UNL     1     -15.084  60.335  10.675  1.00  0.00     0.036 A 
BRANCH  16  26
HETATM   26  C11 UNL     1     -12.725  54.498  10.732  1.00  0.00     0.142 C 
BRANCH  26  27
HETATM   27  C12 UNL     1     -13.544  53.393  10.050  1.00  0.00     0.058 C 
BRANCH  27  28
HETATM   28  C13 UNL     1     -13.404  53.568   8.562  1.00  0.00    -0.057 A 
HETATM   29  C14 UNL     1     -12.734  52.577   7.840  1.00  0.00     0.009 A 
HETATM   30  C15 UNL     1     -12.583  52.625   6.461  1.00  0.00     0.030 A 
HETATM   31  C16 UNL     1     -13.103  53.682   5.751  1.00  0.00     0.042 A 
HETATM   32  C24 UNL     1     -13.762  54.659   6.471  1.00  0.00     0.030 A 
HETATM   33  C25 UNL     1     -13.916  54.615   7.852  1.00  0.00     0.009 A 
BRANCH  31  34
HETATM   34  N4  UNL     1     -12.999  53.777   4.348  1.00  0.00    -0.281 N 
ATOM     35  H4  UNL     1     -12.160  54.174   3.924  1.00  0.00     0.179 HD
BRANCH  34  36
HETATM   36  S1  UNL     1     -14.283  53.223   3.358  1.00  0.00     0.263 S 
HETATM   37  O1  UNL     1     -14.657  51.835   3.755  1.00  0.00    -0.200 OA
HETATM   38  O2  UNL     1     -15.493  54.148   3.572  1.00  0.00    -0.200 OA
BRANCH  36  39
HETATM   39  C17 UNL     1     -13.926  53.303   1.663  1.00  0.00     0.079 A 
HETATM   40  C18 UNL     1     -12.891  52.573   1.154  1.00  0.00     0.026 A 
HETATM   41  C19 UNL     1     -12.554  52.590  -0.183  1.00  0.00     0.020 A 
HETATM   42  C20 UNL     1     -13.289  53.374  -1.042  1.00  0.00     0.040 A 
HETATM   43  C22 UNL     1     -14.352  54.126  -0.544  1.00  0.00     0.020 A 
HETATM   44  C23 UNL     1     -14.669  54.093   0.793  1.00  0.00     0.026 A 
BRANCH  42  45
HETATM   45  C21 UNL     1     -12.969  53.438  -2.460  1.00  0.00     0.209 C 
HETATM   46  O3  UNL     1     -13.709  54.064  -3.274  1.00  0.00    -0.644 OA
HETATM   47  O4  UNL     1     -11.834  52.816  -2.968  1.00  0.00    -0.644 OA
ENDBRANCH  42  45
ENDBRANCH  36  39
ENDBRANCH  34  36
ENDBRANCH  31  34
ENDBRANCH  27  28
ENDBRANCH  26  27
ENDBRANCH  16  26
ENDBRANCH  10  12
ENDBRANCH   9  10
ENDBRANCH   7   9
TORSDOF 10
ENDMDL
