MODEL 1
REMARK VINA RESULT: -8.626481394      0.000      0.000
REMARK  10 active torsions:
REMARK  status: ('A' for Active; 'I' for Inactive)
REMARK    1  A    between atoms: C7_7  and  C8_8 
REMARK    2  A    between atoms: C8_8  and  C9_9 
REMARK    3  A    between atoms: C11_14  and  C12_15 
REMARK    4  A    between atoms: C12_15  and  C13_16 
REMARK    5  A    between atoms: C16_21  and  O2_22 
REMARK    6  A    between atoms: C17_24  and  C18_25 
REMARK    7  A    between atoms: C18_25  and  C19_26 
REMARK    8  A    between atoms: C23_33  and  C24_34 
REMARK    9  A    between atoms: C24_34  and  C25_35 
REMARK   10  A    between atoms: C29_42  and  C30_43 
ROOT
HETATM    1  C9  UNL     1     -15.270  47.934  -0.127  1.00  0.00     0.105 C 
HETATM    2  N1  UNL     1     -13.834  47.913  -0.090  1.00  0.00    -0.308 N 
ATOM      3  H1  UNL     1     -13.425  47.033  -0.405  1.00  0.00     0.170 HD
HETATM    4  C10 UNL     1     -12.888  48.877   0.300  1.00  0.00     0.269 C 
HETATM    5  O1  UNL     1     -11.951  48.417   1.069  1.00  0.00    -0.266 OA
HETATM    6  C11 UNL     1     -12.758  50.305  -0.005  1.00  0.00     0.080 C 
HETATM    7  N2  UNL     1     -12.517  50.540  -1.406  1.00  0.00    -0.338 N 
ATOM      8  H2  UNL     1     -11.952  49.792  -1.809  1.00  0.00     0.167 HD
HETATM    9  C16 UNL     1     -12.827  51.473  -2.342  1.00  0.00     0.139 C 
HETATM   10  C17 UNL     1     -14.013  52.309  -2.568  1.00  0.00     0.159 C 
HETATM   11  N3  UNL     1     -14.863  51.847  -3.649  1.00  0.00    -0.347 N 
ATOM     12  H3  UNL     1     -15.352  52.593  -4.144  1.00  0.00     0.163 HD
HETATM   13  C22 UNL     1     -15.134  50.565  -4.137  1.00  0.00     0.241 C 
HETATM   14  O3  UNL     1     -16.387  50.254  -4.049  1.00  0.00    -0.271 OA
HETATM   15  C23 UNL     1     -14.276  49.525  -4.726  1.00  0.00     0.177 C 
HETATM   16  N4  UNL     1     -13.848  48.444  -3.917  1.00  0.00    -0.346 N 
ATOM     17  H4  UNL     1     -12.858  48.542  -3.687  1.00  0.00     0.163 HD
HETATM   18  C28 UNL     1     -14.360  47.303  -3.347  1.00  0.00     0.241 C 
HETATM   19  O4  UNL     1     -13.715  46.218  -3.651  1.00  0.00    -0.271 OA
HETATM   20  C29 UNL     1     -15.517  47.049  -2.436  1.00  0.00     0.178 C 
HETATM   21  N5  UNL     1     -15.826  47.935  -1.453  1.00  0.00    -0.363 N 
ATOM     22  H5  UNL     1     -16.509  48.660  -1.673  1.00  0.00     0.162 HD
ENDROOT
BRANCH   1  23
HETATM   23  C8  UNL     1     -16.039  47.247   0.921  1.00  0.00     0.060 C 
BRANCH  23  24
HETATM   24  C7  UNL     1     -17.394  46.766   0.780  1.00  0.00    -0.027 A 
HETATM   25  C2  UNL     1     -17.707  45.500   0.388  1.00  0.00    -0.052 A 
HETATM   26  C1  UNL     1     -16.714  44.426   0.129  1.00  0.00     0.049 C 
HETATM   27  C3  UNL     1     -19.046  45.137   0.264  1.00  0.00     0.007 A 
HETATM   28  C4  UNL     1     -20.096  45.987   0.517  1.00  0.00     0.001 A 
HETATM   29  C5  UNL     1     -19.738  47.262   0.916  1.00  0.00     0.001 A 
HETATM   30  C6  UNL     1     -18.434  47.627   1.039  1.00  0.00     0.012 A 
ENDBRANCH  23  24
ENDBRANCH   1  23
BRANCH  20  31
HETATM   31  C30 UNL     1     -16.677  46.743  -3.374  1.00  0.00     0.009 C 
HETATM   32  C31 UNL     1     -17.979  47.375  -2.965  1.00  0.00     0.012 C 
HETATM   33  C32 UNL     1     -16.849  45.218  -3.501  1.00  0.00     0.012 C 
ENDBRANCH  20  31
BRANCH   6  34
HETATM   34  C12 UNL     1     -13.627  51.281   0.693  1.00  0.00     0.067 C 
BRANCH  34  35
HETATM   35  C13 UNL     1     -13.096  51.925   1.940  1.00  0.00    -0.017 C 
HETATM   36  C14 UNL     1     -14.057  52.327   2.997  1.00  0.00     0.010 C 
HETATM   37  C15 UNL     1     -12.309  53.202   1.572  1.00  0.00     0.010 C 
ENDBRANCH  34  35
ENDBRANCH   6  34
BRANCH   9  38
HETATM   38  O2  UNL     1     -11.912  51.700  -3.243  1.00  0.00    -0.348 OA
ATOM     39  H2  UNL     1     -12.160  51.511  -4.141  1.00  0.00     0.219 HD
ENDBRANCH   9  38
BRANCH  15  40
HETATM   40  C24 UNL     1     -14.938  49.079  -6.053  1.00  0.00     0.038 C 
BRANCH  40  41
HETATM   41  C25 UNL     1     -14.098  48.151  -6.845  1.00  0.00    -0.020 C 
HETATM   42  C26 UNL     1     -13.851  48.713  -8.230  1.00  0.00     0.009 C 
HETATM   43  C27 UNL     1     -14.962  46.897  -7.077  1.00  0.00     0.009 C 
ENDBRANCH  40  41
ENDBRANCH  15  40
BRANCH  10  44
HETATM   44  C18 UNL     1     -13.715  53.760  -2.843  1.00  0.00     0.037 C 
BRANCH  44  45
HETATM   45  C19 UNL     1     -14.180  54.770  -1.890  1.00  0.00    -0.020 C 
HETATM   46  C20 UNL     1     -12.898  55.412  -1.286  1.00  0.00     0.009 C 
HETATM   47  C21 UNL     1     -14.968  54.337  -0.707  1.00  0.00     0.009 C 
ENDBRANCH  44  45
ENDBRANCH  10  44
TORSDOF 10
ENDMDL
MODEL 2
REMARK VINA RESULT: -8.592337033     11.643     17.040
REMARK  10 active torsions:
REMARK  status: ('A' for Active; 'I' for Inactive)
REMARK    1  A    between atoms: C7_7  and  C8_8 
REMARK    2  A    between atoms: C8_8  and  C9_9 
REMARK    3  A    between atoms: C11_14  and  C12_15 
REMARK    4  A    between atoms: C12_15  and  C13_16 
REMARK    5  A    between atoms: C16_21  and  O2_22 
REMARK    6  A    between atoms: C17_24  and  C18_25 
REMARK    7  A    between atoms: C18_25  and  C19_26 
REMARK    8  A    between atoms: C23_33  and  C24_34 
REMARK    9  A    between atoms: C24_34  and  C25_35 
REMARK   10  A    between atoms: C29_42  and  C30_43 
ROOT
HETATM    1  C9  UNL     1     -15.292  60.335   8.156  1.00  0.00     0.105 C 
HETATM    2  N1  UNL     1     -13.857  60.357   8.111  1.00  0.00    -0.308 N 
ATOM      3  H1  UNL     1     -13.446  61.234   8.429  1.00  0.00     0.170 HD
HETATM    4  C10 UNL     1     -12.913  59.395   7.709  1.00  0.00     0.269 C 
HETATM    5  O1  UNL     1     -11.980  59.861   6.937  1.00  0.00    -0.266 OA
HETATM    6  C11 UNL     1     -12.780  57.966   8.004  1.00  0.00     0.080 C 
HETATM    7  N2  UNL     1     -12.531  57.722   9.401  1.00  0.00    -0.338 N 
ATOM      8  H2  UNL     1     -11.964  58.467   9.806  1.00  0.00     0.167 HD
HETATM    9  C16 UNL     1     -12.836  56.782  10.333  1.00  0.00     0.139 C 
HETATM   10  C17 UNL     1     -14.021  55.945  10.560  1.00  0.00     0.159 C 
HETATM   11  N3  UNL     1     -14.865  56.400  11.650  1.00  0.00    -0.347 N 
ATOM     12  H3  UNL     1     -15.351  55.650  12.142  1.00  0.00     0.163 HD
HETATM   13  C22 UNL     1     -15.133  57.679  12.147  1.00  0.00     0.241 C 
HETATM   14  O3  UNL     1     -16.386  57.990  12.069  1.00  0.00    -0.271 OA
HETATM   15  C23 UNL     1     -14.271  58.715  12.739  1.00  0.00     0.177 C 
HETATM   16  N4  UNL     1     -13.847  59.801  11.934  1.00  0.00    -0.346 N 
ATOM     17  H4  UNL     1     -12.860  59.704  11.697  1.00  0.00     0.163 HD
HETATM   18  C28 UNL     1     -14.363  60.946  11.374  1.00  0.00     0.241 C 
HETATM   19  O4  UNL     1     -13.716  62.028  11.681  1.00  0.00    -0.271 OA
HETATM   20  C29 UNL     1     -15.526  61.206  10.472  1.00  0.00     0.178 C 
HETATM   21  N5  UNL     1     -15.841  60.326   9.485  1.00  0.00    -0.363 N 
ATOM     22  H5  UNL     1     -16.522  59.600   9.705  1.00  0.00     0.162 HD
ENDROOT
BRANCH   1  23
HETATM   23  C8  UNL     1     -16.067  61.030   7.117  1.00  0.00     0.060 C 
BRANCH  23  24
HETATM   24  C7  UNL     1     -17.369  61.627   7.308  1.00  0.00    -0.027 A 
HETATM   25  C2  UNL     1     -17.555  62.920   7.694  1.00  0.00    -0.052 A 
HETATM   26  C1  UNL     1     -16.464  63.907   7.894  1.00  0.00     0.049 C 
HETATM   27  C3  UNL     1     -18.851  63.398   7.870  1.00  0.00     0.007 A 
HETATM   28  C4  UNL     1     -19.980  62.639   7.674  1.00  0.00     0.001 A 
HETATM   29  C5  UNL     1     -19.750  61.333   7.280  1.00  0.00     0.001 A 
HETATM   30  C6  UNL     1     -18.489  60.856   7.106  1.00  0.00     0.012 A 
ENDBRANCH  23  24
ENDBRANCH   1  23
BRANCH  20  31
HETATM   31  C30 UNL     1     -16.681  61.505  11.418  1.00  0.00     0.009 C 
HETATM   32  C31 UNL     1     -17.977  60.849  11.031  1.00  0.00     0.012 C 
HETATM   33  C32 UNL     1     -16.874  63.029  11.530  1.00  0.00     0.012 C 
ENDBRANCH  20  31
BRANCH   6  34
HETATM   34  C12 UNL     1     -13.654  56.995   7.304  1.00  0.00     0.067 C 
BRANCH  34  35
HETATM   35  C13 UNL     1     -13.119  56.336   6.066  1.00  0.00    -0.017 C 
HETATM   36  C14 UNL     1     -14.081  55.863   5.041  1.00  0.00     0.010 C 
HETATM   37  C15 UNL     1     -12.271  55.105   6.456  1.00  0.00     0.010 C 
ENDBRANCH  34  35
ENDBRANCH   6  34
BRANCH   9  38
HETATM   38  O2  UNL     1     -11.916  56.550  11.227  1.00  0.00    -0.348 OA
ATOM     39  H2  UNL     1     -12.131  55.895  11.882  1.00  0.00     0.219 HD
ENDBRANCH   9  38
BRANCH  15  40
HETATM   40  C24 UNL     1     -14.925  59.152  14.072  1.00  0.00     0.038 C 
BRANCH  40  41
HETATM   41  C25 UNL     1     -14.085  60.083  14.860  1.00  0.00    -0.020 C 
HETATM   42  C26 UNL     1     -13.831  59.523  16.245  1.00  0.00     0.009 C 
HETATM   43  C27 UNL     1     -14.953  61.335  15.094  1.00  0.00     0.009 C 
ENDBRANCH  40  41
ENDBRANCH  15  40
BRANCH  10  44
HETATM   44  C18 UNL     1     -13.721  54.492  10.824  1.00  0.00     0.037 C 
BRANCH  44  45
HETATM   45  C19 UNL     1     -14.185  53.489   9.864  1.00  0.00    -0.020 C 
HETATM   46  C20 UNL     1     -12.903  52.836   9.273  1.00  0.00     0.009 C 
HETATM   47  C21 UNL     1     -14.956  53.932   8.673  1.00  0.00     0.009 C 
ENDBRANCH  44  45
ENDBRANCH  10  44
TORSDOF 10
ENDMDL
MODEL 3
REMARK VINA RESULT: -8.549352578      0.400      1.134
REMARK  10 active torsions:
REMARK  status: ('A' for Active; 'I' for Inactive)
REMARK    1  A    between atoms: C7_7  and  C8_8 
REMARK    2  A    between atoms: C8_8  and  C9_9 
REMARK    3  A    between atoms: C11_14  and  C12_15 
REMARK    4  A    between atoms: C12_15  and  C13_16 
REMARK    5  A    between atoms: C16_21  and  O2_22 
REMARK    6  A    between atoms: C17_24  and  C18_25 
REMARK    7  A    between atoms: C18_25  and  C19_26 
REMARK    8  A    between atoms: C23_33  and  C24_34 
REMARK    9  A    between atoms: C24_34  and  C25_35 
REMARK   10  A    between atoms: C29_42  and  C30_43 
ROOT
HETATM    1  C9  UNL     1     -15.306  47.779  -0.211  1.00  0.00     0.105 C 
HETATM    2  N1  UNL     1     -13.870  47.752  -0.182  1.00  0.00    -0.308 N 
ATOM      3  H1  UNL     1     -13.465  46.884  -0.531  1.00  0.00     0.170 HD
HETATM    4  C10 UNL     1     -12.919  48.699   0.239  1.00  0.00     0.269 C 
HETATM    5  O1  UNL     1     -11.980  48.207   0.985  1.00  0.00    -0.266 OA
HETATM    6  C11 UNL     1     -12.786  50.136  -0.014  1.00  0.00     0.080 C 
HETATM    7  N2  UNL     1     -12.551  50.423  -1.406  1.00  0.00    -0.338 N 
ATOM      8  H2  UNL     1     -11.990  49.689  -1.839  1.00  0.00     0.167 HD
HETATM    9  C16 UNL     1     -12.863  51.391  -2.305  1.00  0.00     0.139 C 
HETATM   10  C17 UNL     1     -14.048  52.238  -2.493  1.00  0.00     0.159 C 
HETATM   11  N3  UNL     1     -14.904  51.819  -3.587  1.00  0.00    -0.347 N 
ATOM     12  H3  UNL     1     -15.393  52.584  -4.051  1.00  0.00     0.163 HD
HETATM   13  C22 UNL     1     -15.182  50.556  -4.121  1.00  0.00     0.241 C 
HETATM   14  O3  UNL     1     -16.434  50.246  -4.039  1.00  0.00    -0.271 OA
HETATM   15  C23 UNL     1     -14.329  49.537  -4.753  1.00  0.00     0.177 C 
HETATM   16  N4  UNL     1     -13.900  48.425  -3.986  1.00  0.00    -0.346 N 
ATOM     17  H4  UNL     1     -12.910  48.512  -3.757  1.00  0.00     0.163 HD
HETATM   18  C28 UNL     1     -14.413  47.265  -3.456  1.00  0.00     0.241 C 
HETATM   19  O4  UNL     1     -13.773  46.191  -3.804  1.00  0.00    -0.271 OA
HETATM   20  C29 UNL     1     -15.567  46.981  -2.550  1.00  0.00     0.178 C 
HETATM   21  N5  UNL     1     -15.868  47.830  -1.533  1.00  0.00    -0.363 N 
ATOM     22  H5  UNL     1     -16.551  48.565  -1.723  1.00  0.00     0.162 HD
ENDROOT
BRANCH   1  23
HETATM   23  C8  UNL     1     -16.072  47.055   0.815  1.00  0.00     0.060 C 
BRANCH  23  24
HETATM   24  C7  UNL     1     -17.136  46.114   0.550  1.00  0.00    -0.027 A 
HETATM   25  C2  UNL     1     -18.454  46.456   0.527  1.00  0.00    -0.052 A 
HETATM   26  C1  UNL     1     -18.971  47.838   0.690  1.00  0.00     0.049 C 
HETATM   27  C3  UNL     1     -19.408  45.472   0.281  1.00  0.00     0.007 A 
HETATM   28  C4  UNL     1     -19.104  44.151   0.053  1.00  0.00     0.001 A 
HETATM   29  C5  UNL     1     -17.756  43.844   0.082  1.00  0.00     0.001 A 
HETATM   30  C6  UNL     1     -16.816  44.797   0.322  1.00  0.00     0.012 A 
ENDBRANCH  23  24
ENDBRANCH   1  23
BRANCH  20  31
HETATM   31  C30 UNL     1     -16.733  46.714  -3.492  1.00  0.00     0.009 C 
HETATM   32  C31 UNL     1     -17.988  47.464  -3.144  1.00  0.00     0.012 C 
HETATM   33  C32 UNL     1     -17.020  45.201  -3.541  1.00  0.00     0.012 C 
ENDBRANCH  20  31
BRANCH   6  34
HETATM   34  C12 UNL     1     -13.649  51.088   0.725  1.00  0.00     0.067 C 
BRANCH  34  35
HETATM   35  C13 UNL     1     -13.097  51.708   1.975  1.00  0.00    -0.017 C 
HETATM   36  C14 UNL     1     -14.039  52.073   3.062  1.00  0.00     0.010 C 
HETATM   37  C15 UNL     1     -12.334  53.003   1.621  1.00  0.00     0.010 C 
ENDBRANCH  34  35
ENDBRANCH   6  34
BRANCH   9  38
HETATM   38  O2  UNL     1     -11.951  51.648  -3.202  1.00  0.00    -0.348 OA
ATOM     39  H2  UNL     1     -11.321  50.955  -3.362  1.00  0.00     0.219 HD
ENDBRANCH   9  38
BRANCH  15  40
HETATM   40  C24 UNL     1     -14.999  49.142  -6.092  1.00  0.00     0.038 C 
BRANCH  40  41
HETATM   41  C25 UNL     1     -14.123  48.333  -6.970  1.00  0.00    -0.020 C 
HETATM   42  C26 UNL     1     -13.686  49.145  -8.173  1.00  0.00     0.009 C 
HETATM   43  C27 UNL     1     -15.020  47.222  -7.549  1.00  0.00     0.009 C 
ENDBRANCH  40  41
ENDBRANCH  15  40
BRANCH  10  44
HETATM   44  C18 UNL     1     -13.746  53.697  -2.716  1.00  0.00     0.037 C 
BRANCH  44  45
HETATM   45  C19 UNL     1     -14.226  54.676  -1.738  1.00  0.00    -0.020 C 
HETATM   46  C20 UNL     1     -12.954  55.320  -1.117  1.00  0.00     0.009 C 
HETATM   47  C21 UNL     1     -15.008  54.200  -0.567  1.00  0.00     0.009 C 
ENDBRANCH  44  45
ENDBRANCH  10  44
TORSDOF 10
ENDMDL
MODEL 4
REMARK VINA RESULT: -8.500222391     11.810     17.179
REMARK  10 active torsions:
REMARK  status: ('A' for Active; 'I' for Inactive)
REMARK    1  A    between atoms: C7_7  and  C8_8 
REMARK    2  A    between atoms: C8_8  and  C9_9 
REMARK    3  A    between atoms: C11_14  and  C12_15 
REMARK    4  A    between atoms: C12_15  and  C13_16 
REMARK    5  A    between atoms: C16_21  and  O2_22 
REMARK    6  A    between atoms: C17_24  and  C18_25 
REMARK    7  A    between atoms: C18_25  and  C19_26 
REMARK    8  A    between atoms: C23_33  and  C24_34 
REMARK    9  A    between atoms: C24_34  and  C25_35 
REMARK   10  A    between atoms: C29_42  and  C30_43 
ROOT
HETATM    1  C9  UNL     1     -15.299  60.491   8.262  1.00  0.00     0.105 C 
HETATM    2  N1  UNL     1     -13.864  60.516   8.220  1.00  0.00    -0.308 N 
ATOM      3  H1  UNL     1     -13.454  61.384   8.565  1.00  0.00     0.170 HD
HETATM    4  C10 UNL     1     -12.917  59.567   7.793  1.00  0.00     0.269 C 
HETATM    5  O1  UNL     1     -11.984  60.056   7.037  1.00  0.00    -0.266 OA
HETATM    6  C11 UNL     1     -12.784  58.130   8.046  1.00  0.00     0.080 C 
HETATM    7  N2  UNL     1     -12.538  57.846   9.437  1.00  0.00    -0.338 N 
ATOM      8  H2  UNL     1     -11.973  58.579   9.864  1.00  0.00     0.167 HD
HETATM    9  C16 UNL     1     -12.843  56.879  10.340  1.00  0.00     0.139 C 
HETATM   10  C17 UNL     1     -14.028  56.035  10.540  1.00  0.00     0.159 C 
HETATM   11  N3  UNL     1     -14.874  56.456  11.641  1.00  0.00    -0.347 N 
ATOM     12  H3  UNL     1     -15.360  55.692  12.110  1.00  0.00     0.163 HD
HETATM   13  C22 UNL     1     -15.145  57.720  12.175  1.00  0.00     0.241 C 
HETATM   14  O3  UNL     1     -16.398  58.032  12.103  1.00  0.00    -0.271 OA
HETATM   15  C23 UNL     1     -14.286  58.739  12.798  1.00  0.00     0.177 C 
HETATM   16  N4  UNL     1     -13.862  59.849  12.025  1.00  0.00    -0.346 N 
ATOM     17  H4  UNL     1     -12.873  59.760  11.788  1.00  0.00     0.163 HD
HETATM   18  C28 UNL     1     -14.377  61.009  11.498  1.00  0.00     0.241 C 
HETATM   19  O4  UNL     1     -13.733  62.083  11.838  1.00  0.00    -0.271 OA
HETATM   20  C29 UNL     1     -15.538  61.294  10.602  1.00  0.00     0.178 C 
HETATM   21  N5  UNL     1     -15.850  60.443   9.589  1.00  0.00    -0.363 N 
ATOM     22  H5  UNL     1     -16.532  59.710   9.786  1.00  0.00     0.162 HD
ENDROOT
BRANCH   1  23
HETATM   23  C8  UNL     1     -16.073  61.215   7.242  1.00  0.00     0.060 C 
BRANCH  23  24
HETATM   24  C7  UNL     1     -17.115  62.178   7.514  1.00  0.00    -0.027 A 
HETATM   25  C2  UNL     1     -18.438  61.860   7.569  1.00  0.00    -0.052 A 
HETATM   26  C1  UNL     1     -18.982  60.485   7.437  1.00  0.00     0.049 C 
HETATM   27  C3  UNL     1     -19.370  62.864   7.820  1.00  0.00     0.007 A 
HETATM   28  C4  UNL     1     -19.038  64.183   8.023  1.00  0.00     0.001 A 
HETATM   29  C5  UNL     1     -17.686  64.465   7.962  1.00  0.00     0.001 A 
HETATM   30  C6  UNL     1     -16.768  63.493   7.717  1.00  0.00     0.012 A 
ENDBRANCH  23  24
ENDBRANCH   1  23
BRANCH  20  31
HETATM   31  C30 UNL     1     -16.696  61.564  11.554  1.00  0.00     0.009 C 
HETATM   32  C31 UNL     1     -17.958  60.822  11.212  1.00  0.00     0.012 C 
HETATM   33  C32 UNL     1     -16.974  63.079  11.610  1.00  0.00     0.012 C 
ENDBRANCH  20  31
BRANCH   6  34
HETATM   34  C12 UNL     1     -13.655  57.179   7.317  1.00  0.00     0.067 C 
BRANCH  34  35
HETATM   35  C13 UNL     1     -13.159  56.637   6.008  1.00  0.00    -0.017 C 
HETATM   36  C14 UNL     1     -14.112  56.530   4.876  1.00  0.00     0.010 C 
HETATM   37  C15 UNL     1     -12.585  55.218   6.217  1.00  0.00     0.010 C 
ENDBRANCH  34  35
ENDBRANCH   6  34
BRANCH   9  38
HETATM   38  O2  UNL     1     -11.925  56.622  11.229  1.00  0.00    -0.348 OA
ATOM     39  H2  UNL     1     -12.083  55.864  11.780  1.00  0.00     0.219 HD
ENDBRANCH   9  38
BRANCH  15  40
HETATM   40  C24 UNL     1     -14.943  59.137  14.142  1.00  0.00     0.038 C 
BRANCH  40  41
HETATM   41  C25 UNL     1     -14.084  60.002  14.982  1.00  0.00    -0.020 C 
HETATM   42  C26 UNL     1     -13.715  59.292  16.269  1.00  0.00     0.009 C 
HETATM   43  C27 UNL     1     -14.976  61.179  15.423  1.00  0.00     0.009 C 
ENDBRANCH  40  41
ENDBRANCH  15  40
BRANCH  10  44
HETATM   44  C18 UNL     1     -13.727  54.575  10.763  1.00  0.00     0.037 C 
BRANCH  44  45
HETATM   45  C19 UNL     1     -14.259  53.591   9.817  1.00  0.00    -0.020 C 
HETATM   46  C20 UNL     1     -13.022  52.927   9.149  1.00  0.00     0.009 C 
HETATM   47  C21 UNL     1     -15.087  54.062   8.676  1.00  0.00     0.009 C 
ENDBRANCH  44  45
ENDBRANCH  10  44
TORSDOF 10
ENDMDL
MODEL 5
REMARK VINA RESULT: -7.660448383     10.255     14.918
REMARK  10 active torsions:
REMARK  status: ('A' for Active; 'I' for Inactive)
REMARK    1  A    between atoms: C7_7  and  C8_8 
REMARK    2  A    between atoms: C8_8  and  C9_9 
REMARK    3  A    between atoms: C11_14  and  C12_15 
REMARK    4  A    between atoms: C12_15  and  C13_16 
REMARK    5  A    between atoms: C16_21  and  O2_22 
REMARK    6  A    between atoms: C17_24  and  C18_25 
REMARK    7  A    between atoms: C18_25  and  C19_26 
REMARK    8  A    between atoms: C23_33  and  C24_34 
REMARK    9  A    between atoms: C24_34  and  C25_35 
REMARK   10  A    between atoms: C29_42  and  C30_43 
ROOT
HETATM    1  C9  UNL     1     -13.632  57.061   7.051  1.00  0.00     0.105 C 
HETATM    2  N1  UNL     1     -12.571  57.454   7.936  1.00  0.00    -0.308 N 
ATOM      3  H1  UNL     1     -11.782  57.897   7.465  1.00  0.00     0.170 HD
HETATM    4  C10 UNL     1     -12.417  57.343   9.330  1.00  0.00     0.269 C 
HETATM    5  O1  UNL     1     -11.255  56.900   9.698  1.00  0.00    -0.266 OA
HETATM    6  C11 UNL     1     -13.320  57.641  10.444  1.00  0.00     0.080 C 
HETATM    7  N2  UNL     1     -13.637  59.044  10.526  1.00  0.00    -0.338 N 
ATOM      8  H2  UNL     1     -12.842  59.614  10.237  1.00  0.00     0.167 HD
HETATM    9  C16 UNL     1     -14.691  59.823  10.878  1.00  0.00     0.139 C 
HETATM   10  C17 UNL     1     -16.145  59.664  10.736  1.00  0.00     0.159 C 
HETATM   11  N3  UNL     1     -16.722  60.453   9.663  1.00  0.00    -0.347 N 
ATOM     12  H3  UNL     1     -17.678  60.762   9.840  1.00  0.00     0.163 HD
HETATM   13  C22 UNL     1     -16.206  60.866   8.431  1.00  0.00     0.241 C 
HETATM   14  O3  UNL     1     -16.889  60.416   7.430  1.00  0.00    -0.271 OA
HETATM   15  C23 UNL     1     -15.055  61.709   8.069  1.00  0.00     0.177 C 
HETATM   16  N4  UNL     1     -13.850  61.089   7.656  1.00  0.00    -0.346 N 
ATOM     17  H4  UNL     1     -13.143  61.163   8.387  1.00  0.00     0.163 HD
HETATM   18  C28 UNL     1     -13.344  60.418   6.568  1.00  0.00     0.241 C 
HETATM   19  O4  UNL     1     -12.249  60.926   6.089  1.00  0.00    -0.271 OA
HETATM   20  C29 UNL     1     -13.796  59.210   5.814  1.00  0.00     0.178 C 
HETATM   21  N5  UNL     1     -14.355  58.159   6.471  1.00  0.00    -0.363 N 
ATOM     22  H5  UNL     1     -15.371  58.149   6.559  1.00  0.00     0.162 HD
ENDROOT
BRANCH   1  23
HETATM   23  C8  UNL     1     -13.489  55.846   6.234  1.00  0.00     0.060 C 
BRANCH  23  24
HETATM   24  C7  UNL     1     -13.560  55.800   4.792  1.00  0.00    -0.027 A 
HETATM   25  C2  UNL     1     -12.683  56.446   3.974  1.00  0.00    -0.052 A 
HETATM   26  C1  UNL     1     -11.500  57.213   4.441  1.00  0.00     0.049 C 
HETATM   27  C3  UNL     1     -12.846  56.356   2.594  1.00  0.00     0.007 A 
HETATM   28  C4  UNL     1     -13.853  55.643   1.987  1.00  0.00     0.001 A 
HETATM   29  C5  UNL     1     -14.721  54.999   2.850  1.00  0.00     0.001 A 
HETATM   30  C6  UNL     1     -14.571  55.081   4.199  1.00  0.00     0.012 A 
ENDBRANCH  23  24
ENDBRANCH   1  23
BRANCH  20  31
HETATM   31  C30 UNL     1     -14.664  59.764   4.693  1.00  0.00     0.009 C 
HETATM   32  C31 UNL     1     -15.848  58.903   4.351  1.00  0.00     0.012 C 
HETATM   33  C32 UNL     1     -13.800  59.995   3.438  1.00  0.00     0.012 C 
ENDBRANCH  20  31
BRANCH   6  34
HETATM   34  C12 UNL     1     -14.411  56.692  10.770  1.00  0.00     0.067 C 
BRANCH  34  35
HETATM   35  C13 UNL     1     -14.279  55.278  10.284  1.00  0.00    -0.017 C 
HETATM   36  C14 UNL     1     -15.487  54.588   9.769  1.00  0.00     0.010 C 
HETATM   37  C15 UNL     1     -13.730  54.387  11.419  1.00  0.00     0.010 C 
ENDBRANCH  34  35
ENDBRANCH   6  34
BRANCH   9  38
HETATM   38  O2  UNL     1     -14.394  60.951  11.461  1.00  0.00    -0.348 OA
ATOM     39  H2  UNL     1     -14.602  61.737  10.971  1.00  0.00     0.219 HD
ENDBRANCH   9  38
BRANCH  15  40
HETATM   40  C24 UNL     1     -15.566  62.787   7.082  1.00  0.00     0.038 C 
BRANCH  40  41
HETATM   41  C25 UNL     1     -16.067  64.008   7.755  1.00  0.00    -0.020 C 
HETATM   42  C26 UNL     1     -17.581  64.047   7.720  1.00  0.00     0.009 C 
HETATM   43  C27 UNL     1     -15.621  65.188   6.869  1.00  0.00     0.009 C 
ENDBRANCH  40  41
ENDBRANCH  15  40
BRANCH  10  44
HETATM   44  C18 UNL     1     -16.934  59.983  11.979  1.00  0.00     0.037 C 
BRANCH  44  45
HETATM   45  C19 UNL     1     -17.050  58.963  13.024  1.00  0.00    -0.020 C 
HETATM   46  C20 UNL     1     -18.104  59.502  14.033  1.00  0.00     0.009 C 
HETATM   47  C21 UNL     1     -15.863  58.650  13.861  1.00  0.00     0.009 C 
ENDBRANCH  44  45
ENDBRANCH  10  44
TORSDOF 10
ENDMDL
