MODEL 1
REMARK VINA RESULT: -10.339297271      0.000      0.000
REMARK  13 active torsions:
REMARK  status: ('A' for Active; 'I' for Inactive)
REMARK    1  A    between atoms: O1_2  and  C2_3 
REMARK    2  A    between atoms: C5_6  and  C6_7 
REMARK    3  A    between atoms: C6_7  and  N1_8 
REMARK    4  A    between atoms: N1_8  and  C7_9 
REMARK    5  A    between atoms: C8_12  and  N3_13 
REMARK    6  A    between atoms: N3_13  and  C9_14 
REMARK    7  A    between atoms: C9_14  and  C10_15 
REMARK    8  A    between atoms: C13_18  and  C14_19 
REMARK    9  A    between atoms: C14_19  and  C15_20 
REMARK   10  A    between atoms: C15_20  and  C16_21 
REMARK       I    between atoms: C16_21  and  N4_23 
REMARK   11  A    between atoms: N4_23  and  C17_25 
REMARK   12  A    between atoms: C22_36  and  N8_37 
REMARK   13  A    between atoms: N8_37  and  C23_39 
ROOT
HETATM    1  C7  UNL     1     -13.985  51.377   5.042  1.00  0.00     0.276 A 
HETATM    2  N2  UNL     1     -13.722  52.411   4.254  1.00  0.00    -0.275 N 
ATOM      3  H2  UNL     1     -14.068  52.366   3.295  1.00  0.00     0.174 HD
HETATM    4  C8  UNL     1     -13.025  53.540   4.617  1.00  0.00     0.276 A 
HETATM    5  N7  UNL     1     -12.595  53.518   5.934  1.00  0.00    -0.148 N 
ATOM      6  H7  UNL     1     -12.069  54.320   6.281  1.00  0.00     0.188 HD
HETATM    7  C22 UNL     1     -12.824  52.519   6.768  1.00  0.00     0.689 A 
HETATM    8  N9  UNL     1     -13.508  51.466   6.329  1.00  0.00    -0.148 N 
ATOM      9  H9  UNL     1     -13.687  50.695   6.972  1.00  0.00     0.188 HD
ENDROOT
BRANCH   4  10
HETATM   10  N3  UNL     1     -12.799  54.429   3.889  1.00  0.00    -0.382 NA
BRANCH  10  11
HETATM   11  C9  UNL     1     -12.773  55.496   3.096  1.00  0.00     0.197 C 
BRANCH  11  12
HETATM   12  C10 UNL     1     -13.169  55.251   1.650  1.00  0.00    -0.007 A 
HETATM   13  C11 UNL     1     -12.465  55.858   0.643  1.00  0.00     0.014 A 
HETATM   14  C12 UNL     1     -12.797  55.648  -0.696  1.00  0.00     0.012 A 
HETATM   15  C13 UNL     1     -13.834  54.828  -1.051  1.00  0.00    -0.036 A 
HETATM   16  C20 UNL     1     -14.542  54.216  -0.008  1.00  0.00     0.012 A 
HETATM   17  C21 UNL     1     -14.210  54.429   1.314  1.00  0.00     0.014 A 
BRANCH  15  18
HETATM   18  C14 UNL     1     -14.242  54.560  -2.432  1.00  0.00     0.017 C 
BRANCH  18  19
HETATM   19  C15 UNL     1     -13.583  53.743  -3.217  1.00  0.00     0.075 C 
BRANCH  19  20
HETATM   20  C16 UNL     1     -13.259  52.407  -2.769  1.00  0.00     0.246 C 
HETATM   21  O2  UNL     1     -12.081  52.102  -2.504  1.00  0.00    -0.268 OA
HETATM   22  N4  UNL     1     -14.275  51.440  -2.625  1.00  0.00    -0.308 N 
ATOM     23  H4  UNL     1     -14.997  51.637  -1.931  1.00  0.00     0.170 HD
BRANCH  22  24
HETATM   24  C17 UNL     1     -14.388  50.353  -3.266  1.00  0.00     0.123 A 
HETATM   25  C18 UNL     1     -15.442  49.997  -4.076  1.00  0.00     0.068 A 
HETATM   26  C19 UNL     1     -15.197  48.749  -4.585  1.00  0.00     0.111 A 
HETATM   27  N5  UNL     1     -14.003  48.369  -4.078  1.00  0.00    -0.310 N 
HETATM   28  N6  UNL     1     -13.534  49.325  -3.301  1.00  0.00    -0.286 N 
ATOM     29  H5  UNL     1     -13.538  47.482  -4.268  1.00  0.00     0.186 HD
ATOM     30  H6  UNL     1     -12.647  49.286  -2.799  1.00  0.00     0.188 HD
ENDBRANCH  22  24
ENDBRANCH  19  20
ENDBRANCH  18  19
ENDBRANCH  15  18
ENDBRANCH  11  12
ENDBRANCH  10  11
ENDBRANCH   4  10
BRANCH   1  31
HETATM   31  N1  UNL     1     -14.597  50.396   4.715  1.00  0.00    -0.382 NA
BRANCH  31  32
HETATM   32  C6  UNL     1     -15.275  49.312   4.359  1.00  0.00     0.197 C 
BRANCH  32  33
HETATM   33  C5  UNL     1     -14.962  48.833   2.969  1.00  0.00    -0.007 A 
HETATM   34  C4  UNL     1     -13.694  48.522   2.572  1.00  0.00     0.016 A 
HETATM   35  C3  UNL     1     -13.455  48.094   1.281  1.00  0.00     0.037 A 
HETATM   36  C2  UNL     1     -14.486  47.976   0.377  1.00  0.00     0.068 A 
HETATM   37  C30 UNL     1     -15.748  48.296   0.806  1.00  0.00     0.037 A 
HETATM   38  C29 UNL     1     -16.004  48.724   2.091  1.00  0.00     0.016 A 
BRANCH  36  39
HETATM   39  O1  UNL     1     -14.220  47.548  -0.908  1.00  0.00    -0.356 OA
HETATM   40  C1  UNL     1     -15.006  46.480  -1.416  1.00  0.00     0.210 C 
ENDBRANCH  36  39
ENDBRANCH  32  33
ENDBRANCH  31  32
ENDBRANCH   1  31
BRANCH   7  41
HETATM   41  N8  UNL     1     -12.380  52.577   7.992  1.00  0.00    -0.191 N 
ATOM     42  H8  UNL     1     -11.540  52.060   8.251  1.00  0.00     0.184 HD
BRANCH  41  43
HETATM   43  C23 UNL     1     -13.063  53.360   8.971  1.00  0.00     0.049 A 
HETATM   44  C24 UNL     1     -12.402  53.693  10.145  1.00  0.00     0.030 A 
HETATM   45  C25 UNL     1     -13.027  54.438  11.119  1.00  0.00     0.002 A 
HETATM   46  C26 UNL     1     -14.324  54.879  10.967  1.00  0.00     0.000 A 
HETATM   47  C27 UNL     1     -14.977  54.534   9.777  1.00  0.00     0.002 A 
HETATM   48  C28 UNL     1     -14.349  53.792   8.809  1.00  0.00     0.030 A 
ENDBRANCH  41  43
ENDBRANCH   7  41
TORSDOF 13
ENDMDL
MODEL 2
REMARK VINA RESULT: -10.271874606      4.783     11.965
REMARK  13 active torsions:
REMARK  status: ('A' for Active; 'I' for Inactive)
REMARK    1  A    between atoms: O1_2  and  C2_3 
REMARK    2  A    between atoms: C5_6  and  C6_7 
REMARK    3  A    between atoms: C6_7  and  N1_8 
REMARK    4  A    between atoms: N1_8  and  C7_9 
REMARK    5  A    between atoms: C8_12  and  N3_13 
REMARK    6  A    between atoms: N3_13  and  C9_14 
REMARK    7  A    between atoms: C9_14  and  C10_15 
REMARK    8  A    between atoms: C13_18  and  C14_19 
REMARK    9  A    between atoms: C14_19  and  C15_20 
REMARK   10  A    between atoms: C15_20  and  C16_21 
REMARK       I    between atoms: C16_21  and  N4_23 
REMARK   11  A    between atoms: N4_23  and  C17_25 
REMARK   12  A    between atoms: C22_36  and  N8_37 
REMARK   13  A    between atoms: N8_37  and  C23_39 
ROOT
HETATM    1  C7  UNL     1     -13.854  56.902   2.910  1.00  0.00     0.276 A 
HETATM    2  N2  UNL     1     -13.594  55.879   3.712  1.00  0.00    -0.275 N 
ATOM      3  H2  UNL     1     -13.938  55.940   4.671  1.00  0.00     0.174 HD
HETATM    4  C8  UNL     1     -12.901  54.742   3.365  1.00  0.00     0.276 A 
HETATM    5  N7  UNL     1     -12.473  54.744   2.048  1.00  0.00    -0.148 N 
ATOM      6  H7  UNL     1     -11.951  53.934   1.712  1.00  0.00     0.188 HD
HETATM    7  C22 UNL     1     -12.699  55.731   1.199  1.00  0.00     0.689 A 
HETATM    8  N9  UNL     1     -13.379  56.792   1.623  1.00  0.00    -0.148 N 
ATOM      9  H9  UNL     1     -13.556  57.554   0.969  1.00  0.00     0.188 HD
ENDROOT
BRANCH   4  10
HETATM   10  N3  UNL     1     -12.678  53.863   4.106  1.00  0.00    -0.382 NA
BRANCH  10  11
HETATM   11  C9  UNL     1     -12.655  52.809   4.916  1.00  0.00     0.197 C 
BRANCH  11  12
HETATM   12  C10 UNL     1     -13.099  53.068   6.345  1.00  0.00    -0.007 A 
HETATM   13  C11 UNL     1     -14.180  53.877   6.583  1.00  0.00     0.014 A 
HETATM   14  C12 UNL     1     -14.619  54.129   7.883  1.00  0.00     0.012 A 
HETATM   15  C13 UNL     1     -13.988  53.577   8.966  1.00  0.00    -0.036 A 
HETATM   16  C20 UNL     1     -12.885  52.754   8.703  1.00  0.00     0.012 A 
HETATM   17  C21 UNL     1     -12.456  52.510   7.416  1.00  0.00     0.014 A 
BRANCH  15  18
HETATM   18  C14 UNL     1     -14.389  53.796  10.357  1.00  0.00     0.017 C 
BRANCH  18  19
HETATM   19  C15 UNL     1     -13.722  54.580  11.170  1.00  0.00     0.075 C 
BRANCH  19  20
HETATM   20  C16 UNL     1     -13.334  55.906  10.745  1.00  0.00     0.246 C 
HETATM   21  O2  UNL     1     -12.135  56.176  10.547  1.00  0.00    -0.268 OA
HETATM   22  N4  UNL     1     -14.311  56.904  10.549  1.00  0.00    -0.308 N 
ATOM     23  H4  UNL     1     -14.999  56.730   9.815  1.00  0.00     0.170 HD
BRANCH  22  24
HETATM   24  C17 UNL     1     -14.427  57.992  11.186  1.00  0.00     0.123 A 
HETATM   25  C18 UNL     1     -15.547  58.419  11.861  1.00  0.00     0.068 A 
HETATM   26  C19 UNL     1     -15.281  59.643  12.416  1.00  0.00     0.111 A 
HETATM   27  N5  UNL     1     -14.008  59.938  12.071  1.00  0.00    -0.310 N 
HETATM   28  N6  UNL     1     -13.513  58.956  11.345  1.00  0.00    -0.286 N 
ATOM     29  H5  UNL     1     -13.508  60.788  12.331  1.00  0.00     0.186 HD
ATOM     30  H6  UNL     1     -12.569  58.933  10.959  1.00  0.00     0.188 HD
ENDBRANCH  22  24
ENDBRANCH  19  20
ENDBRANCH  18  19
ENDBRANCH  15  18
ENDBRANCH  11  12
ENDBRANCH  10  11
ENDBRANCH   4  10
BRANCH   1  31
HETATM   31  N1  UNL     1     -14.461  57.891   3.223  1.00  0.00    -0.382 NA
BRANCH  31  32
HETATM   32  C6  UNL     1     -15.128  58.985   3.568  1.00  0.00     0.197 C 
BRANCH  32  33
HETATM   33  C5  UNL     1     -14.816  59.470   4.955  1.00  0.00    -0.007 A 
HETATM   34  C4  UNL     1     -13.578  59.922   5.310  1.00  0.00     0.016 A 
HETATM   35  C3  UNL     1     -13.337  60.351   6.600  1.00  0.00     0.037 A 
HETATM   36  C2  UNL     1     -14.336  60.328   7.547  1.00  0.00     0.068 A 
HETATM   37  C30 UNL     1     -15.569  59.869   7.160  1.00  0.00     0.037 A 
HETATM   38  C29 UNL     1     -15.827  59.438   5.876  1.00  0.00     0.016 A 
BRANCH  36  39
HETATM   39  O1  UNL     1     -14.069  60.760   8.830  1.00  0.00    -0.356 OA
HETATM   40  C1  UNL     1     -14.905  61.775   9.364  1.00  0.00     0.210 C 
ENDBRANCH  36  39
ENDBRANCH  32  33
ENDBRANCH  31  32
ENDBRANCH   1  31
BRANCH   7  41
HETATM   41  N8  UNL     1     -12.257  55.653  -0.024  1.00  0.00    -0.191 N 
ATOM     42  H8  UNL     1     -11.397  56.136  -0.284  1.00  0.00     0.184 HD
BRANCH  41  43
HETATM   43  C23 UNL     1     -12.970  54.895  -1.003  1.00  0.00     0.049 A 
HETATM   44  C24 UNL     1     -14.269  54.495  -0.726  1.00  0.00     0.030 A 
HETATM   45  C25 UNL     1     -14.989  53.755  -1.637  1.00  0.00     0.002 A 
HETATM   46  C26 UNL     1     -14.448  53.385  -2.850  1.00  0.00     0.000 A 
HETATM   47  C27 UNL     1     -13.135  53.796  -3.113  1.00  0.00     0.002 A 
HETATM   48  C28 UNL     1     -12.425  54.534  -2.202  1.00  0.00     0.030 A 
ENDBRANCH  41  43
ENDBRANCH   7  41
TORSDOF 13
ENDMDL
MODEL 3
REMARK VINA RESULT: -10.217673754      3.364      6.330
REMARK  13 active torsions:
REMARK  status: ('A' for Active; 'I' for Inactive)
REMARK    1  A    between atoms: O1_2  and  C2_3 
REMARK    2  A    between atoms: C5_6  and  C6_7 
REMARK    3  A    between atoms: C6_7  and  N1_8 
REMARK    4  A    between atoms: N1_8  and  C7_9 
REMARK    5  A    between atoms: C8_12  and  N3_13 
REMARK    6  A    between atoms: N3_13  and  C9_14 
REMARK    7  A    between atoms: C9_14  and  C10_15 
REMARK    8  A    between atoms: C13_18  and  C14_19 
REMARK    9  A    between atoms: C14_19  and  C15_20 
REMARK   10  A    between atoms: C15_20  and  C16_21 
REMARK       I    between atoms: C16_21  and  N4_23 
REMARK   11  A    between atoms: N4_23  and  C17_25 
REMARK   12  A    between atoms: C22_36  and  N8_37 
REMARK   13  A    between atoms: N8_37  and  C23_39 
ROOT
HETATM    1  C7  UNL     1     -13.511  54.779   3.717  1.00  0.00     0.276 A 
HETATM    2  N2  UNL     1     -13.092  54.859   2.461  1.00  0.00    -0.275 N 
ATOM      3  H2  UNL     1     -12.650  54.029   2.065  1.00  0.00     0.174 HD
HETATM    4  C8  UNL     1     -13.202  55.962   1.647  1.00  0.00     0.276 A 
HETATM    5  N7  UNL     1     -13.815  57.039   2.266  1.00  0.00    -0.148 N 
ATOM      6  H7  UNL     1     -13.934  57.898   1.727  1.00  0.00     0.188 HD
HETATM    7  C22 UNL     1     -14.253  57.023   3.512  1.00  0.00     0.689 A 
HETATM    8  N9  UNL     1     -14.104  55.911   4.226  1.00  0.00    -0.148 N 
ATOM      9  H9  UNL     1     -14.443  55.897   5.187  1.00  0.00     0.188 HD
ENDROOT
BRANCH   4  10
HETATM   10  N3  UNL     1     -12.807  56.001   0.545  1.00  0.00    -0.382 NA
BRANCH  10  11
HETATM   11  C9  UNL     1     -12.566  55.938  -0.761  1.00  0.00     0.197 C 
BRANCH  11  12
HETATM   12  C10 UNL     1     -13.133  54.725  -1.477  1.00  0.00    -0.007 A 
HETATM   13  C11 UNL     1     -14.469  54.439  -1.372  1.00  0.00     0.014 A 
HETATM   14  C12 UNL     1     -15.024  53.337  -2.024  1.00  0.00     0.012 A 
HETATM   15  C13 UNL     1     -14.254  52.504  -2.792  1.00  0.00    -0.036 A 
HETATM   16  C20 UNL     1     -12.891  52.812  -2.887  1.00  0.00     0.012 A 
HETATM   17  C21 UNL     1     -12.349  53.902  -2.239  1.00  0.00     0.014 A 
BRANCH  15  18
HETATM   18  C14 UNL     1     -14.764  51.330  -3.503  1.00  0.00     0.017 C 
BRANCH  18  19
HETATM   19  C15 UNL     1     -14.140  50.177  -3.501  1.00  0.00     0.075 C 
BRANCH  19  20
HETATM   20  C16 UNL     1     -14.129  49.359  -2.308  1.00  0.00     0.246 C 
HETATM   21  O2  UNL     1     -14.890  48.378  -2.212  1.00  0.00    -0.268 OA
HETATM   22  N4  UNL     1     -13.254  49.665  -1.245  1.00  0.00    -0.308 N 
ATOM     23  H4  UNL     1     -12.255  49.610  -1.447  1.00  0.00     0.170 HD
BRANCH  22  24
HETATM   24  C17 UNL     1     -13.575  50.000  -0.066  1.00  0.00     0.123 A 
HETATM   25  C18 UNL     1     -13.125  51.110   0.610  1.00  0.00     0.068 A 
HETATM   26  C19 UNL     1     -13.696  51.122   1.855  1.00  0.00     0.111 A 
HETATM   27  N5  UNL     1     -14.481  50.023   1.914  1.00  0.00    -0.310 N 
HETATM   28  N6  UNL     1     -14.402  49.368   0.773  1.00  0.00    -0.286 N 
ATOM     29  H5  UNL     1     -15.045  49.744   2.716  1.00  0.00     0.186 HD
ATOM     30  H6  UNL     1     -14.901  48.504   0.561  1.00  0.00     0.188 HD
ENDBRANCH  22  24
ENDBRANCH  19  20
ENDBRANCH  18  19
ENDBRANCH  15  18
ENDBRANCH  11  12
ENDBRANCH  10  11
ENDBRANCH   4  10
BRANCH   1  31
HETATM   31  N1  UNL     1     -13.411  53.809   4.420  1.00  0.00    -0.382 NA
BRANCH  31  32
HETATM   32  C6  UNL     1     -13.300  52.741   5.200  1.00  0.00     0.197 C 
BRANCH  32  33
HETATM   33  C5  UNL     1     -13.468  53.040   6.663  1.00  0.00    -0.007 A 
HETATM   34  C4  UNL     1     -14.413  53.909   7.127  1.00  0.00     0.016 A 
HETATM   35  C3  UNL     1     -14.523  54.158   8.480  1.00  0.00     0.037 A 
HETATM   36  C2  UNL     1     -13.685  53.540   9.380  1.00  0.00     0.068 A 
HETATM   37  C30 UNL     1     -12.746  52.673   8.883  1.00  0.00     0.037 A 
HETATM   38  C29 UNL     1     -12.622  52.412   7.536  1.00  0.00     0.016 A 
BRANCH  36  39
HETATM   39  O1  UNL     1     -13.815  53.808  10.728  1.00  0.00    -0.356 OA
HETATM   40  C1  UNL     1     -14.210  55.122  11.096  1.00  0.00     0.210 C 
ENDBRANCH  36  39
ENDBRANCH  32  33
ENDBRANCH  31  32
ENDBRANCH   1  31
BRANCH   7  41
HETATM   41  N8  UNL     1     -14.816  58.084   4.019  1.00  0.00    -0.191 N 
ATOM     42  H8  UNL     1     -15.740  58.370   3.697  1.00  0.00     0.184 HD
BRANCH  41  43
HETATM   43  C23 UNL     1     -14.145  58.847   5.022  1.00  0.00     0.049 A 
HETATM   44  C24 UNL     1     -12.928  59.438   4.715  1.00  0.00     0.030 A 
HETATM   45  C25 UNL     1     -12.243  60.174   5.655  1.00  0.00     0.002 A 
HETATM   46  C26 UNL     1     -12.737  60.351   6.929  1.00  0.00     0.000 A 
HETATM   47  C27 UNL     1     -13.967  59.748   7.224  1.00  0.00     0.002 A 
HETATM   48  C28 UNL     1     -14.645  59.017   6.282  1.00  0.00     0.030 A 
ENDBRANCH  41  43
ENDBRANCH   7  41
TORSDOF 13
ENDMDL
MODEL 4
REMARK VINA RESULT: -10.213389362      3.227      9.679
REMARK  13 active torsions:
REMARK  status: ('A' for Active; 'I' for Inactive)
REMARK    1  A    between atoms: O1_2  and  C2_3 
REMARK    2  A    between atoms: C5_6  and  C6_7 
REMARK    3  A    between atoms: C6_7  and  N1_8 
REMARK    4  A    between atoms: N1_8  and  C7_9 
REMARK    5  A    between atoms: C8_12  and  N3_13 
REMARK    6  A    between atoms: N3_13  and  C9_14 
REMARK    7  A    between atoms: C9_14  and  C10_15 
REMARK    8  A    between atoms: C13_18  and  C14_19 
REMARK    9  A    between atoms: C14_19  and  C15_20 
REMARK   10  A    between atoms: C15_20  and  C16_21 
REMARK       I    between atoms: C16_21  and  N4_23 
REMARK   11  A    between atoms: N4_23  and  C17_25 
REMARK   12  A    between atoms: C22_36  and  N8_37 
REMARK   13  A    between atoms: N8_37  and  C23_39 
ROOT
HETATM    1  C7  UNL     1     -13.533  53.510   4.303  1.00  0.00     0.276 A 
HETATM    2  N2  UNL     1     -13.101  53.431   5.554  1.00  0.00    -0.275 N 
ATOM      3  H2  UNL     1     -12.653  54.260   5.945  1.00  0.00     0.174 HD
HETATM    4  C8  UNL     1     -13.204  52.329   6.371  1.00  0.00     0.276 A 
HETATM    5  N7  UNL     1     -13.825  51.252   5.761  1.00  0.00    -0.148 N 
ATOM      6  H7  UNL     1     -13.941  50.395   6.303  1.00  0.00     0.188 HD
HETATM    7  C22 UNL     1     -14.278  51.267   4.520  1.00  0.00     0.689 A 
HETATM    8  N9  UNL     1     -14.134  52.378   3.803  1.00  0.00    -0.148 N 
ATOM      9  H9  UNL     1     -14.484  52.391   2.845  1.00  0.00     0.188 HD
ENDROOT
BRANCH   4  10
HETATM   10  N3  UNL     1     -12.798  52.292   7.469  1.00  0.00    -0.382 NA
BRANCH  10  11
HETATM   11  C9  UNL     1     -12.553  52.329   8.776  1.00  0.00     0.197 C 
BRANCH  11  12
HETATM   12  C10 UNL     1     -13.117  53.529   9.517  1.00  0.00    -0.007 A 
HETATM   13  C11 UNL     1     -14.440  53.856   9.368  1.00  0.00     0.014 A 
HETATM   14  C12 UNL     1     -14.992  54.947  10.041  1.00  0.00     0.012 A 
HETATM   15  C13 UNL     1     -14.234  55.727  10.873  1.00  0.00    -0.036 A 
HETATM   16  C20 UNL     1     -12.884  55.376  11.012  1.00  0.00     0.012 A 
HETATM   17  C21 UNL     1     -12.345  54.298  10.344  1.00  0.00     0.014 A 
BRANCH  15  18
HETATM   18  C14 UNL     1     -14.742  56.886  11.610  1.00  0.00     0.017 C 
BRANCH  18  19
HETATM   19  C15 UNL     1     -14.140  58.051  11.596  1.00  0.00     0.075 C 
BRANCH  19  20
HETATM   20  C16 UNL     1     -14.141  58.854  10.394  1.00  0.00     0.246 C 
HETATM   21  O2  UNL     1     -14.888  59.846  10.301  1.00  0.00    -0.268 OA
HETATM   22  N4  UNL     1     -13.293  58.522   9.316  1.00  0.00    -0.308 N 
ATOM     23  H4  UNL     1     -12.290  58.563   9.497  1.00  0.00     0.170 HD
BRANCH  22  24
HETATM   24  C17 UNL     1     -13.644  58.178   8.149  1.00  0.00     0.123 A 
HETATM   25  C18 UNL     1     -13.167  57.096   7.446  1.00  0.00     0.068 A 
HETATM   26  C19 UNL     1     -13.785  57.063   6.224  1.00  0.00     0.111 A 
HETATM   27  N5  UNL     1     -14.626  58.122   6.205  1.00  0.00    -0.310 N 
HETATM   28  N6  UNL     1     -14.535  58.773   7.348  1.00  0.00    -0.286 N 
ATOM     29  H5  UNL     1     -15.235  58.377   5.428  1.00  0.00     0.186 HD
ATOM     30  H6  UNL     1     -15.066  59.610   7.586  1.00  0.00     0.188 HD
ENDBRANCH  22  24
ENDBRANCH  19  20
ENDBRANCH  18  19
ENDBRANCH  15  18
ENDBRANCH  11  12
ENDBRANCH  10  11
ENDBRANCH   4  10
BRANCH   1  31
HETATM   31  N1  UNL     1     -13.439  54.478   3.597  1.00  0.00    -0.382 NA
BRANCH  31  32
HETATM   32  C6  UNL     1     -13.335  55.544   2.814  1.00  0.00     0.197 C 
BRANCH  32  33
HETATM   33  C5  UNL     1     -13.485  55.237   1.351  1.00  0.00    -0.007 A 
HETATM   34  C4  UNL     1     -14.423  54.365   0.881  1.00  0.00     0.016 A 
HETATM   35  C3  UNL     1     -14.517  54.108  -0.473  1.00  0.00     0.037 A 
HETATM   36  C2  UNL     1     -13.670  54.724  -1.366  1.00  0.00     0.068 A 
HETATM   37  C30 UNL     1     -12.738  55.594  -0.863  1.00  0.00     0.037 A 
HETATM   38  C29 UNL     1     -12.631  55.863   0.485  1.00  0.00     0.016 A 
BRANCH  36  39
HETATM   39  O1  UNL     1     -13.783  54.448  -2.713  1.00  0.00    -0.356 OA
HETATM   40  C1  UNL     1     -14.206  53.142  -3.079  1.00  0.00     0.210 C 
ENDBRANCH  36  39
ENDBRANCH  32  33
ENDBRANCH  31  32
ENDBRANCH   1  31
BRANCH   7  41
HETATM   41  N8  UNL     1     -14.847  50.206   4.021  1.00  0.00    -0.191 N 
ATOM     42  H8  UNL     1     -15.781  49.938   4.333  1.00  0.00     0.184 HD
BRANCH  41  43
HETATM   43  C23 UNL     1     -14.172  49.418   3.041  1.00  0.00     0.049 A 
HETATM   44  C24 UNL     1     -12.974  48.805   3.381  1.00  0.00     0.030 A 
HETATM   45  C25 UNL     1     -12.286  48.044   2.463  1.00  0.00     0.002 A 
HETATM   46  C26 UNL     1     -12.757  47.863   1.181  1.00  0.00     0.000 A 
HETATM   47  C27 UNL     1     -13.967  48.488   0.854  1.00  0.00     0.002 A 
HETATM   48  C28 UNL     1     -14.649  49.244   1.772  1.00  0.00     0.030 A 
ENDBRANCH  41  43
ENDBRANCH   7  41
TORSDOF 13
ENDMDL
MODEL 5
REMARK VINA RESULT: -10.188433186      2.604      6.842
REMARK  13 active torsions:
REMARK  status: ('A' for Active; 'I' for Inactive)
REMARK    1  A    between atoms: O1_2  and  C2_3 
REMARK    2  A    between atoms: C5_6  and  C6_7 
REMARK    3  A    between atoms: C6_7  and  N1_8 
REMARK    4  A    between atoms: N1_8  and  C7_9 
REMARK    5  A    between atoms: C8_12  and  N3_13 
REMARK    6  A    between atoms: N3_13  and  C9_14 
REMARK    7  A    between atoms: C9_14  and  C10_15 
REMARK    8  A    between atoms: C13_18  and  C14_19 
REMARK    9  A    between atoms: C14_19  and  C15_20 
REMARK   10  A    between atoms: C15_20  and  C16_21 
REMARK       I    between atoms: C16_21  and  N4_23 
REMARK   11  A    between atoms: N4_23  and  C17_25 
REMARK   12  A    between atoms: C22_36  and  N8_37 
REMARK   13  A    between atoms: N8_37  and  C23_39 
ROOT
HETATM    1  C7  UNL     1     -12.612  52.574   6.298  1.00  0.00     0.276 A 
HETATM    2  N2  UNL     1     -12.928  53.680   5.637  1.00  0.00    -0.275 N 
ATOM      3  H2  UNL     1     -13.249  54.476   6.189  1.00  0.00     0.174 HD
HETATM    4  C8  UNL     1     -12.861  53.846   4.273  1.00  0.00     0.276 A 
HETATM    5  N7  UNL     1     -12.417  52.717   3.605  1.00  0.00    -0.148 N 
ATOM      6  H7  UNL     1     -12.339  52.761   2.589  1.00  0.00     0.188 HD
HETATM    7  C22 UNL     1     -12.087  51.587   4.205  1.00  0.00     0.689 A 
HETATM    8  N9  UNL     1     -12.183  51.517   5.529  1.00  0.00    -0.148 N 
ATOM      9  H9  UNL     1     -11.927  50.646   5.994  1.00  0.00     0.188 HD
ENDROOT
BRANCH   4  10
HETATM   10  N3  UNL     1     -13.163  54.835   3.722  1.00  0.00    -0.382 NA
BRANCH  10  11
HETATM   11  C9  UNL     1     -13.453  55.836   2.897  1.00  0.00     0.197 C 
BRANCH  11  12
HETATM   12  C10 UNL     1     -13.501  55.480   1.421  1.00  0.00    -0.007 A 
HETATM   13  C11 UNL     1     -14.431  54.580   0.971  1.00  0.00     0.014 A 
HETATM   14  C12 UNL     1     -14.508  54.237  -0.379  1.00  0.00     0.012 A 
HETATM   15  C13 UNL     1     -13.658  54.787  -1.301  1.00  0.00    -0.036 A 
HETATM   16  C20 UNL     1     -12.713  55.704  -0.822  1.00  0.00     0.012 A 
HETATM   17  C21 UNL     1     -12.642  56.038   0.514  1.00  0.00     0.014 A 
BRANCH  15  18
HETATM   18  C14 UNL     1     -13.676  54.475  -2.732  1.00  0.00     0.017 C 
BRANCH  18  19
HETATM   19  C15 UNL     1     -14.078  53.317  -3.198  1.00  0.00     0.075 C 
BRANCH  19  20
HETATM   20  C16 UNL     1     -13.375  52.106  -2.839  1.00  0.00     0.246 C 
HETATM   21  O2  UNL     1     -12.130  52.080  -2.833  1.00  0.00    -0.268 OA
HETATM   22  N4  UNL     1     -14.094  50.944  -2.490  1.00  0.00    -0.308 N 
ATOM     23  H4  UNL     1     -14.680  51.004  -1.656  1.00  0.00     0.170 HD
BRANCH  22  24
HETATM   24  C17 UNL     1     -14.091  49.834  -3.100  1.00  0.00     0.123 A 
HETATM   25  C18 UNL     1     -14.584  48.644  -2.616  1.00  0.00     0.068 A 
HETATM   26  C19 UNL     1     -14.394  47.676  -3.567  1.00  0.00     0.111 A 
HETATM   27  N5  UNL     1     -13.791  48.292  -4.608  1.00  0.00    -0.310 N 
HETATM   28  N6  UNL     1     -13.617  49.567  -4.321  1.00  0.00    -0.286 N 
ATOM     29  H5  UNL     1     -13.513  47.841  -5.479  1.00  0.00     0.186 HD
ATOM     30  H6  UNL     1     -13.184  50.251  -4.942  1.00  0.00     0.188 HD
ENDBRANCH  22  24
ENDBRANCH  19  20
ENDBRANCH  18  19
ENDBRANCH  15  18
ENDBRANCH  11  12
ENDBRANCH  10  11
ENDBRANCH   4  10
BRANCH   1  31
HETATM   31  N1  UNL     1     -12.673  52.439   7.491  1.00  0.00    -0.382 NA
BRANCH  31  32
HETATM   32  C6  UNL     1     -12.742  52.293   8.808  1.00  0.00     0.197 C 
BRANCH  32  33
HETATM   33  C5  UNL     1     -13.339  53.476   9.516  1.00  0.00    -0.007 A 
HETATM   34  C4  UNL     1     -14.659  53.804   9.406  1.00  0.00     0.016 A 
HETATM   35  C3  UNL     1     -15.160  54.907  10.070  1.00  0.00     0.037 A 
HETATM   36  C2  UNL     1     -14.340  55.691  10.849  1.00  0.00     0.068 A 
HETATM   37  C30 UNL     1     -13.018  55.336  10.940  1.00  0.00     0.037 A 
HETATM   38  C29 UNL     1     -12.502  54.239  10.285  1.00  0.00     0.016 A 
BRANCH  36  39
HETATM   39  O1  UNL     1     -14.864  56.788  11.501  1.00  0.00    -0.356 OA
HETATM   40  C1  UNL     1     -14.085  57.976  11.509  1.00  0.00     0.210 C 
ENDBRANCH  36  39
ENDBRANCH  32  33
ENDBRANCH  31  32
ENDBRANCH   1  31
BRANCH   7  41
HETATM   41  N8  UNL     1     -11.680  50.570   3.500  1.00  0.00    -0.191 N 
ATOM     42  H8  UNL     1     -10.690  50.471   3.276  1.00  0.00     0.184 HD
BRANCH  41  43
HETATM   43  C23 UNL     1     -12.613  49.592   3.038  1.00  0.00     0.049 A 
HETATM   44  C24 UNL     1     -12.236  48.734   2.015  1.00  0.00     0.030 A 
HETATM   45  C25 UNL     1     -13.108  47.784   1.533  1.00  0.00     0.002 A 
HETATM   46  C26 UNL     1     -14.380  47.650   2.046  1.00  0.00     0.000 A 
HETATM   47  C27 UNL     1     -14.746  48.524   3.078  1.00  0.00     0.002 A 
HETATM   48  C28 UNL     1     -13.872  49.467   3.554  1.00  0.00     0.030 A 
ENDBRANCH  41  43
ENDBRANCH   7  41
TORSDOF 13
ENDMDL
