MODEL 1
REMARK VINA RESULT: -8.748653565      0.000      0.000
REMARK  10 active torsions:
REMARK  status: ('A' for Active; 'I' for Inactive)
REMARK    1  A    between atoms: C2_2  and  C3_3 
REMARK    2  A    between atoms: C3_3  and  C4_4 
REMARK    3  A    between atoms: C4_4  and  C5_5 
REMARK    4  A    between atoms: C9_15  and  C10_16 
REMARK    5  A    between atoms: C10_16  and  C12_18 
REMARK    6  A    between atoms: C15_24  and  C16_25 
REMARK    7  A    between atoms: C16_25  and  C17_26 
REMARK    8  A    between atoms: C20_31  and  O4_32 
REMARK    9  A    between atoms: C21_34  and  C22_35 
REMARK   10  A    between atoms: C22_35  and  C23_36 
ROOT
HETATM    1  C23 UNL     1     -12.568  49.220   0.237  1.00  0.00    -0.029 A 
HETATM    2  C24 UNL     1     -11.832  48.688   1.286  1.00  0.00     0.096 A 
HETATM    3  N5  UNL     1     -12.449  47.584   1.693  1.00  0.00    -0.365 N 
ATOM      4  H5  UNL     1     -12.122  46.991   2.455  1.00  0.00     0.165 HD
HETATM    5  C25 UNL     1     -13.557  47.346   0.976  1.00  0.00     0.043 A 
HETATM    6  C26 UNL     1     -14.512  46.343   1.001  1.00  0.00     0.032 A 
HETATM    7  C27 UNL     1     -15.540  46.356   0.121  1.00  0.00     0.025 A 
HETATM    8  C28 UNL     1     -15.641  47.385  -0.817  1.00  0.00     0.045 A 
HETATM    9  C29 UNL     1     -16.733  47.371  -1.726  1.00  0.00     0.099 C 
HETATM   10  N6  UNL     1     -17.599  47.375  -2.464  1.00  0.00    -0.191 NA
HETATM   11  C30 UNL     1     -14.696  48.386  -0.849  1.00  0.00     0.037 A 
HETATM   12  C31 UNL     1     -13.632  48.375   0.061  1.00  0.00    -0.000 A 
ENDROOT
BRANCH   1  13
HETATM   13  C22 UNL     1     -12.173  50.472  -0.418  1.00  0.00     0.055 C 
BRANCH  13  14
HETATM   14  C21 UNL     1     -12.732  51.672   0.254  1.00  0.00     0.087 C 
HETATM   15  C5  UNL     1     -13.549  52.523  -0.756  1.00  0.00     0.096 C 
HETATM   16  N1  UNL     1     -12.726  53.389  -1.554  1.00  0.00    -0.354 N 
HETATM   17  C6  UNL     1     -12.770  54.751  -1.846  1.00  0.00     0.235 C 
ATOM     18  H1  UNL     1     -11.947  52.905  -2.002  1.00  0.00     0.162 HD
HETATM   19  O1  UNL     1     -12.991  55.159  -3.016  1.00  0.00    -0.272 OA
HETATM   20  C7  UNL     1     -12.570  55.900  -0.867  1.00  0.00     0.225 C 
HETATM   21  N2  UNL     1     -12.477  55.365   0.468  1.00  0.00    -0.351 N 
HETATM   22  C8  UNL     1     -13.020  55.550   1.708  1.00  0.00     0.241 C 
ATOM     23  H2  UNL     1     -11.790  54.612   0.496  1.00  0.00     0.163 HD
HETATM   24  O2  UNL     1     -14.208  55.152   1.916  1.00  0.00    -0.271 OA
HETATM   25  C9  UNL     1     -12.512  56.146   2.978  1.00  0.00     0.180 C 
HETATM   26  N3  UNL     1     -11.963  55.118   3.860  1.00  0.00    -0.346 N 
HETATM   27  C14 UNL     1     -11.960  53.715   3.743  1.00  0.00     0.241 C 
ATOM     28  H3  UNL     1     -11.508  55.476   4.699  1.00  0.00     0.163 HD
HETATM   29  O3  UNL     1     -10.845  53.133   3.582  1.00  0.00    -0.271 OA
HETATM   30  C15 UNL     1     -13.095  52.766   3.783  1.00  0.00     0.175 C 
HETATM   31  N4  UNL     1     -13.108  51.687   2.871  1.00  0.00    -0.361 N 
HETATM   32  C20 UNL     1     -13.451  51.487   1.525  1.00  0.00     0.118 C 
ATOM     33  H4  UNL     1     -12.782  50.824   3.306  1.00  0.00     0.162 HD
BRANCH  15  34
HETATM   34  C4  UNL     1     -14.417  51.632  -1.583  1.00  0.00     0.026 C 
BRANCH  34  35
HETATM   35  C3  UNL     1     -14.230  51.831  -3.071  1.00  0.00     0.002 C 
BRANCH  35  36
HETATM   36  C2  UNL     1     -14.165  50.415  -3.665  1.00  0.00    -0.004 C 
HETATM   37  C1  UNL     1     -15.530  49.975  -4.143  1.00  0.00     0.005 C 
ENDBRANCH  35  36
ENDBRANCH  34  35
ENDBRANCH  15  34
BRANCH  25  38
HETATM   38  C10 UNL     1     -13.506  57.004   3.700  1.00  0.00     0.013 C 
HETATM   39  C11 UNL     1     -14.071  58.170   2.998  1.00  0.00     0.012 C 
BRANCH  38  40
HETATM   40  C12 UNL     1     -12.915  57.527   5.021  1.00  0.00     0.002 C 
HETATM   41  C13 UNL     1     -12.399  58.924   4.895  1.00  0.00     0.005 C 
ENDBRANCH  38  40
ENDBRANCH  25  38
BRANCH  30  42
HETATM   42  C16 UNL     1     -12.992  52.135   5.228  1.00  0.00     0.038 C 
BRANCH  42  43
HETATM   43  C17 UNL     1     -13.092  53.239   6.242  1.00  0.00    -0.020 C 
HETATM   44  C18 UNL     1     -14.528  53.736   6.247  1.00  0.00     0.009 C 
HETATM   45  C19 UNL     1     -12.816  52.743   7.650  1.00  0.00     0.009 C 
ENDBRANCH  42  43
ENDBRANCH  30  42
BRANCH  32  46
HETATM   46  O4  UNL     1     -14.658  51.039   1.264  1.00  0.00    -0.349 OA
ATOM     47  H4  UNL     1     -14.960  50.279   1.748  1.00  0.00     0.219 HD
ENDBRANCH  32  46
ENDBRANCH  13  14
ENDBRANCH   1  13
TORSDOF 10
ENDMDL
MODEL 2
REMARK VINA RESULT: -8.738539998      4.191     11.303
REMARK  10 active torsions:
REMARK  status: ('A' for Active; 'I' for Inactive)
REMARK    1  A    between atoms: C2_2  and  C3_3 
REMARK    2  A    between atoms: C3_3  and  C4_4 
REMARK    3  A    between atoms: C4_4  and  C5_5 
REMARK    4  A    between atoms: C9_15  and  C10_16 
REMARK    5  A    between atoms: C10_16  and  C12_18 
REMARK    6  A    between atoms: C15_24  and  C16_25 
REMARK    7  A    between atoms: C16_25  and  C17_26 
REMARK    8  A    between atoms: C20_31  and  O4_32 
REMARK    9  A    between atoms: C21_34  and  C22_35 
REMARK   10  A    between atoms: C22_35  and  C23_36 
ROOT
HETATM    1  C23 UNL     1     -12.570  59.081   7.801  1.00  0.00    -0.029 A 
HETATM    2  C24 UNL     1     -11.830  59.609   6.752  1.00  0.00     0.096 A 
HETATM    3  N5  UNL     1     -12.447  60.712   6.339  1.00  0.00    -0.365 N 
ATOM      4  H5  UNL     1     -12.117  61.302   5.575  1.00  0.00     0.165 HD
HETATM    5  C25 UNL     1     -13.557  60.952   7.052  1.00  0.00     0.043 A 
HETATM    6  C26 UNL     1     -14.512  61.955   7.020  1.00  0.00     0.032 A 
HETATM    7  C27 UNL     1     -15.542  61.945   7.897  1.00  0.00     0.025 A 
HETATM    8  C28 UNL     1     -15.646  60.920   8.839  1.00  0.00     0.045 A 
HETATM    9  C29 UNL     1     -16.740  60.937   9.745  1.00  0.00     0.099 C 
HETATM   10  N6  UNL     1     -17.607  60.936  10.481  1.00  0.00    -0.191 NA
HETATM   11  C30 UNL     1     -14.701  59.919   8.878  1.00  0.00     0.037 A 
HETATM   12  C31 UNL     1     -13.633  59.927   7.971  1.00  0.00    -0.000 A 
ENDROOT
BRANCH   1  13
HETATM   13  C22 UNL     1     -12.176  57.832   8.462  1.00  0.00     0.055 C 
BRANCH  13  14
HETATM   14  C21 UNL     1     -12.740  56.630   7.799  1.00  0.00     0.087 C 
HETATM   15  C5  UNL     1     -13.553  55.785   8.816  1.00  0.00     0.096 C 
HETATM   16  N1  UNL     1     -12.729  54.922   9.615  1.00  0.00    -0.354 N 
HETATM   17  C6  UNL     1     -12.774  53.561   9.914  1.00  0.00     0.235 C 
ATOM     18  H1  UNL     1     -11.947  55.406  10.057  1.00  0.00     0.162 HD
HETATM   19  O1  UNL     1     -12.991  53.160  11.087  1.00  0.00    -0.272 OA
HETATM   20  C7  UNL     1     -12.580  52.407   8.940  1.00  0.00     0.225 C 
HETATM   21  N2  UNL     1     -12.493  52.935   7.601  1.00  0.00    -0.351 N 
HETATM   22  C8  UNL     1     -13.042  52.745   6.365  1.00  0.00     0.241 C 
ATOM     23  H2  UNL     1     -11.804  53.687   7.567  1.00  0.00     0.163 HD
HETATM   24  O2  UNL     1     -14.230  53.144   6.161  1.00  0.00    -0.271 OA
HETATM   25  C9  UNL     1     -12.541  52.142   5.096  1.00  0.00     0.180 C 
HETATM   26  N3  UNL     1     -11.994  53.165   4.206  1.00  0.00    -0.346 N 
HETATM   27  C14 UNL     1     -11.988  54.568   4.316  1.00  0.00     0.241 C 
ATOM     28  H3  UNL     1     -11.543  52.802   3.366  1.00  0.00     0.163 HD
HETATM   29  O3  UNL     1     -10.871  55.149   4.470  1.00  0.00    -0.271 OA
HETATM   30  C15 UNL     1     -13.121  55.519   4.276  1.00  0.00     0.175 C 
HETATM   31  N4  UNL     1     -13.128  56.602   5.183  1.00  0.00    -0.361 N 
HETATM   32  C20 UNL     1     -13.465  56.810   6.530  1.00  0.00     0.118 C 
ATOM     33  H4  UNL     1     -12.803  57.463   4.742  1.00  0.00     0.162 HD
BRANCH  15  34
HETATM   34  C4  UNL     1     -14.416  56.682   9.644  1.00  0.00     0.026 C 
BRANCH  34  35
HETATM   35  C3  UNL     1     -14.228  56.485  11.131  1.00  0.00     0.002 C 
BRANCH  35  36
HETATM   36  C2  UNL     1     -14.176  57.903  11.725  1.00  0.00    -0.004 C 
HETATM   37  C1  UNL     1     -15.550  58.338  12.182  1.00  0.00     0.005 C 
ENDBRANCH  35  36
ENDBRANCH  34  35
ENDBRANCH  15  34
BRANCH  25  38
HETATM   38  C10 UNL     1     -13.540  51.282   4.383  1.00  0.00     0.013 C 
HETATM   39  C11 UNL     1     -14.051  50.082   5.067  1.00  0.00     0.012 C 
BRANCH  38  40
HETATM   40  C12 UNL     1     -12.984  50.814   3.026  1.00  0.00     0.002 C 
HETATM   41  C13 UNL     1     -12.323  49.477   3.117  1.00  0.00     0.005 C 
ENDBRANCH  38  40
ENDBRANCH  25  38
BRANCH  30  42
HETATM   42  C16 UNL     1     -13.024  56.142   2.828  1.00  0.00     0.038 C 
BRANCH  42  43
HETATM   43  C17 UNL     1     -13.044  55.026   1.822  1.00  0.00    -0.020 C 
HETATM   44  C18 UNL     1     -14.482  54.554   1.683  1.00  0.00     0.009 C 
HETATM   45  C19 UNL     1     -12.623  55.498   0.442  1.00  0.00     0.009 C 
ENDBRANCH  42  43
ENDBRANCH  30  42
BRANCH  32  46
HETATM   46  O4  UNL     1     -14.669  57.261   6.794  1.00  0.00    -0.349 OA
ATOM     47  H4  UNL     1     -15.370  56.625   6.880  1.00  0.00     0.219 HD
ENDBRANCH  32  46
ENDBRANCH  13  14
ENDBRANCH   1  13
TORSDOF 10
ENDMDL
MODEL 3
REMARK VINA RESULT: -7.837087848      3.038      8.197
REMARK  10 active torsions:
REMARK  status: ('A' for Active; 'I' for Inactive)
REMARK    1  A    between atoms: C2_2  and  C3_3 
REMARK    2  A    between atoms: C3_3  and  C4_4 
REMARK    3  A    between atoms: C4_4  and  C5_5 
REMARK    4  A    between atoms: C9_15  and  C10_16 
REMARK    5  A    between atoms: C10_16  and  C12_18 
REMARK    6  A    between atoms: C15_24  and  C16_25 
REMARK    7  A    between atoms: C16_25  and  C17_26 
REMARK    8  A    between atoms: C20_31  and  O4_32 
REMARK    9  A    between atoms: C21_34  and  C22_35 
REMARK   10  A    between atoms: C22_35  and  C23_36 
ROOT
HETATM    1  C23 UNL     1     -12.929  53.497   7.834  1.00  0.00    -0.029 A 
HETATM    2  C24 UNL     1     -13.782  52.689   8.572  1.00  0.00     0.096 A 
HETATM    3  N5  UNL     1     -14.328  53.440   9.523  1.00  0.00    -0.365 N 
ATOM      4  H5  UNL     1     -14.997  53.097  10.212  1.00  0.00     0.165 HD
HETATM    5  C25 UNL     1     -13.889  54.706   9.463  1.00  0.00     0.043 A 
HETATM    6  C26 UNL     1     -14.161  55.845  10.203  1.00  0.00     0.032 A 
HETATM    7  C27 UNL     1     -13.564  57.019   9.894  1.00  0.00     0.025 A 
HETATM    8  C28 UNL     1     -12.670  57.086   8.825  1.00  0.00     0.045 A 
HETATM    9  C29 UNL     1     -12.059  58.333   8.526  1.00  0.00     0.099 C 
HETATM   10  N6  UNL     1     -11.563  59.324   8.269  1.00  0.00    -0.191 NA
HETATM   11  C30 UNL     1     -12.394  55.958   8.083  1.00  0.00     0.037 A 
HETATM   12  C31 UNL     1     -13.010  54.742   8.402  1.00  0.00    -0.000 A 
ENDROOT
BRANCH   1  13
HETATM   13  C22 UNL     1     -12.137  52.961   6.723  1.00  0.00     0.055 C 
BRANCH  13  14
HETATM   14  C21 UNL     1     -12.793  53.156   5.405  1.00  0.00     0.087 C 
HETATM   15  C5  UNL     1     -13.229  51.788   4.813  1.00  0.00     0.096 C 
HETATM   16  N1  UNL     1     -12.159  51.099   4.146  1.00  0.00    -0.354 N 
HETATM   17  C6  UNL     1     -12.034  50.515   2.887  1.00  0.00     0.235 C 
ATOM     18  H1  UNL     1     -11.315  51.020   4.713  1.00  0.00     0.162 HD
HETATM   19  O1  UNL     1     -11.882  49.271   2.759  1.00  0.00    -0.272 OA
HETATM   20  C7  UNL     1     -12.057  51.231   1.543  1.00  0.00     0.225 C 
HETATM   21  N2  UNL     1     -12.387  52.617   1.758  1.00  0.00    -0.351 N 
HETATM   22  C8  UNL     1     -13.254  53.569   1.300  1.00  0.00     0.241 C 
ATOM     23  H2  UNL     1     -11.785  53.012   2.480  1.00  0.00     0.163 HD
HETATM   24  O2  UNL     1     -14.473  53.498   1.648  1.00  0.00    -0.271 OA
HETATM   25  C9  UNL     1     -13.100  54.767   0.426  1.00  0.00     0.180 C 
HETATM   26  N3  UNL     1     -12.894  55.977   1.221  1.00  0.00    -0.346 N 
HETATM   27  C14 UNL     1     -12.942  56.178   2.613  1.00  0.00     0.241 C 
ATOM     28  H3  UNL     1     -12.680  56.813   0.678  1.00  0.00     0.163 HD
HETATM   29  O3  UNL     1     -11.865  56.486   3.209  1.00  0.00    -0.271 OA
HETATM   30  C15 UNL     1     -14.095  56.088   3.537  1.00  0.00     0.175 C 
HETATM   31  N4  UNL     1     -13.909  55.474   4.796  1.00  0.00    -0.361 N 
HETATM   32  C20 UNL     1     -13.859  54.166   5.300  1.00  0.00     0.118 C 
ATOM     33  H4  UNL     1     -13.776  56.165   5.534  1.00  0.00     0.162 HD
BRANCH  15  34
HETATM   34  C4  UNL     1     -13.872  50.959   5.876  1.00  0.00     0.026 C 
BRANCH  34  35
HETATM   35  C3  UNL     1     -14.183  49.549   5.426  1.00  0.00     0.002 C 
BRANCH  35  36
HETATM   36  C2  UNL     1     -15.318  49.692   4.398  1.00  0.00    -0.004 C 
HETATM   37  C1  UNL     1     -15.138  48.705   3.267  1.00  0.00     0.005 C 
ENDBRANCH  35  36
ENDBRANCH  34  35
ENDBRANCH  15  34
BRANCH  25  38
HETATM   38  C10 UNL     1     -14.207  54.956  -0.567  1.00  0.00     0.013 C 
HETATM   39  C11 UNL     1     -15.135  53.837  -0.807  1.00  0.00     0.012 C 
BRANCH  38  40
HETATM   40  C12 UNL     1     -13.643  55.365  -1.939  1.00  0.00     0.002 C 
HETATM   41  C13 UNL     1     -12.558  54.446  -2.401  1.00  0.00     0.005 C 
ENDBRANCH  38  40
ENDBRANCH  25  38
BRANCH  30  42
HETATM   42  C16 UNL     1     -14.453  57.600   3.820  1.00  0.00     0.038 C 
BRANCH  42  43
HETATM   43  C17 UNL     1     -13.894  57.984   5.161  1.00  0.00    -0.020 C 
HETATM   44  C18 UNL     1     -12.873  59.088   4.938  1.00  0.00     0.009 C 
HETATM   45  C19 UNL     1     -14.956  58.574   6.072  1.00  0.00     0.009 C 
ENDBRANCH  42  43
ENDBRANCH  30  42
BRANCH  32  46
HETATM   46  O4  UNL     1     -14.963  53.665   5.805  1.00  0.00    -0.349 OA
ATOM     47  H4  UNL     1     -15.361  52.930   5.351  1.00  0.00     0.219 HD
ENDBRANCH  32  46
ENDBRANCH  13  14
ENDBRANCH   1  13
TORSDOF 10
ENDMDL
MODEL 4
REMARK VINA RESULT: -7.784821426      2.951     10.240
REMARK  10 active torsions:
REMARK  status: ('A' for Active; 'I' for Inactive)
REMARK    1  A    between atoms: C2_2  and  C3_3 
REMARK    2  A    between atoms: C3_3  and  C4_4 
REMARK    3  A    between atoms: C4_4  and  C5_5 
REMARK    4  A    between atoms: C9_15  and  C10_16 
REMARK    5  A    between atoms: C10_16  and  C12_18 
REMARK    6  A    between atoms: C15_24  and  C16_25 
REMARK    7  A    between atoms: C16_25  and  C17_26 
REMARK    8  A    between atoms: C20_31  and  O4_32 
REMARK    9  A    between atoms: C21_34  and  C22_35 
REMARK   10  A    between atoms: C22_35  and  C23_36 
ROOT
HETATM    1  C23 UNL     1     -12.669  57.964   5.815  1.00  0.00    -0.029 A 
HETATM    2  C24 UNL     1     -12.408  58.419   4.530  1.00  0.00     0.096 A 
HETATM    3  N5  UNL     1     -13.025  59.587   4.382  1.00  0.00    -0.365 N 
ATOM      4  H5  UNL     1     -13.002  60.144   3.529  1.00  0.00     0.165 HD
HETATM    5  C25 UNL     1     -13.683  59.940   5.496  1.00  0.00     0.043 A 
HETATM    6  C26 UNL     1     -14.447  61.043   5.842  1.00  0.00     0.032 A 
HETATM    7  C27 UNL     1     -14.989  61.138   7.078  1.00  0.00     0.025 A 
HETATM    8  C28 UNL     1     -14.778  60.121   8.011  1.00  0.00     0.045 A 
HETATM    9  C29 UNL     1     -15.361  60.250   9.300  1.00  0.00     0.099 C 
HETATM   10  N6  UNL     1     -15.817  60.337  10.339  1.00  0.00    -0.191 NA
HETATM   11  C30 UNL     1     -14.020  59.022   7.675  1.00  0.00     0.037 A 
HETATM   12  C31 UNL     1     -13.459  58.921   6.396  1.00  0.00    -0.000 A 
ENDROOT
BRANCH   1  13
HETATM   13  C22 UNL     1     -12.158  56.674   6.289  1.00  0.00     0.055 C 
BRANCH  13  14
HETATM   14  C21 UNL     1     -12.797  55.520   5.607  1.00  0.00     0.087 C 
HETATM   15  C5  UNL     1     -13.542  54.630   6.638  1.00  0.00     0.096 C 
HETATM   16  N1  UNL     1     -12.673  53.710   7.317  1.00  0.00    -0.354 N 
HETATM   17  C6  UNL     1     -12.720  52.335   7.541  1.00  0.00     0.235 C 
ATOM     18  H1  UNL     1     -11.849  54.156   7.720  1.00  0.00     0.162 HD
HETATM   19  O1  UNL     1     -12.850  51.869   8.704  1.00  0.00    -0.272 OA
HETATM   20  C7  UNL     1     -12.627  51.236   6.491  1.00  0.00     0.225 C 
HETATM   21  N2  UNL     1     -12.637  51.839   5.182  1.00  0.00    -0.351 N 
HETATM   22  C8  UNL     1     -13.287  51.729   3.985  1.00  0.00     0.241 C 
ATOM     23  H2  UNL     1     -11.939  52.582   5.134  1.00  0.00     0.163 HD
HETATM   24  O2  UNL     1     -14.480  52.156   3.901  1.00  0.00    -0.271 OA
HETATM   25  C9  UNL     1     -12.901  51.193   2.648  1.00  0.00     0.180 C 
HETATM   26  N3  UNL     1     -12.408  52.258   1.776  1.00  0.00    -0.346 N 
HETATM   27  C14 UNL     1     -12.366  53.652   1.964  1.00  0.00     0.241 C 
ATOM     28  H3  UNL     1     -12.033  51.937   0.883  1.00  0.00     0.163 HD
HETATM   29  O3  UNL     1     -11.230  54.207   2.059  1.00  0.00    -0.271 OA
HETATM   30  C15 UNL     1     -13.481  54.620   2.070  1.00  0.00     0.175 C 
HETATM   31  N4  UNL     1     -13.394  55.649   3.034  1.00  0.00    -0.361 N 
HETATM   32  C20 UNL     1     -13.617  55.783   4.413  1.00  0.00     0.118 C 
ATOM     33  H4  UNL     1     -13.088  56.529   2.617  1.00  0.00     0.162 HD
BRANCH  15  34
HETATM   34  C4  UNL     1     -14.318  55.490   7.581  1.00  0.00     0.026 C 
BRANCH  34  35
HETATM   35  C3  UNL     1     -14.811  54.744   8.801  1.00  0.00     0.002 C 
BRANCH  35  36
HETATM   36  C2  UNL     1     -14.163  55.455  10.001  1.00  0.00    -0.004 C 
HETATM   37  C1  UNL     1     -13.634  54.446  10.994  1.00  0.00     0.005 C 
ENDBRANCH  35  36
ENDBRANCH  34  35
ENDBRANCH  15  34
BRANCH  25  38
HETATM   38  C10 UNL     1     -13.970  50.390   1.971  1.00  0.00     0.013 C 
HETATM   39  C11 UNL     1     -14.205  49.008   2.423  1.00  0.00     0.012 C 
BRANCH  38  40
HETATM   40  C12 UNL     1     -13.722  50.324   0.454  1.00  0.00     0.002 C 
HETATM   41  C13 UNL     1     -13.770  48.924  -0.066  1.00  0.00     0.005 C 
ENDBRANCH  38  40
ENDBRANCH  25  38
BRANCH  30  42
HETATM   42  C16 UNL     1     -13.488  55.324   0.656  1.00  0.00     0.038 C 
BRANCH  42  43
HETATM   43  C17 UNL     1     -13.581  54.267  -0.407  1.00  0.00    -0.020 C 
HETATM   44  C18 UNL     1     -15.047  54.104  -0.772  1.00  0.00     0.009 C 
HETATM   45  C19 UNL     1     -12.875  54.684  -1.685  1.00  0.00     0.009 C 
ENDBRANCH  42  43
ENDBRANCH  30  42
BRANCH  32  46
HETATM   46  O4  UNL     1     -14.788  56.236   4.799  1.00  0.00    -0.349 OA
ATOM     47  H4  UNL     1     -14.852  57.158   5.021  1.00  0.00     0.219 HD
ENDBRANCH  32  46
ENDBRANCH  13  14
ENDBRANCH   1  13
TORSDOF 10
ENDMDL
MODEL 5
REMARK VINA RESULT: -7.749605510      2.567      6.384
REMARK  10 active torsions:
REMARK  status: ('A' for Active; 'I' for Inactive)
REMARK    1  A    between atoms: C2_2  and  C3_3 
REMARK    2  A    between atoms: C3_3  and  C4_4 
REMARK    3  A    between atoms: C4_4  and  C5_5 
REMARK    4  A    between atoms: C9_15  and  C10_16 
REMARK    5  A    between atoms: C10_16  and  C12_18 
REMARK    6  A    between atoms: C15_24  and  C16_25 
REMARK    7  A    between atoms: C16_25  and  C17_26 
REMARK    8  A    between atoms: C20_31  and  O4_32 
REMARK    9  A    between atoms: C21_34  and  C22_35 
REMARK   10  A    between atoms: C22_35  and  C23_36 
ROOT
HETATM    1  C23 UNL     1     -13.074  54.863   0.396  1.00  0.00    -0.029 A 
HETATM    2  C24 UNL     1     -13.965  55.650  -0.320  1.00  0.00     0.096 A 
HETATM    3  N5  UNL     1     -14.498  54.891  -1.273  1.00  0.00    -0.365 N 
ATOM      4  H5  UNL     1     -15.187  55.219  -1.949  1.00  0.00     0.165 HD
HETATM    5  C25 UNL     1     -14.014  53.641  -1.234  1.00  0.00     0.043 A 
HETATM    6  C26 UNL     1     -14.257  52.503  -1.985  1.00  0.00     0.032 A 
HETATM    7  C27 UNL     1     -13.615  51.346  -1.699  1.00  0.00     0.025 A 
HETATM    8  C28 UNL     1     -12.705  51.297  -0.642  1.00  0.00     0.045 A 
HETATM    9  C29 UNL     1     -12.048  50.069  -0.367  1.00  0.00     0.099 C 
HETATM   10  N6  UNL     1     -11.514  49.092  -0.129  1.00  0.00    -0.191 NA
HETATM   11  C30 UNL     1     -12.459  52.425   0.110  1.00  0.00     0.037 A 
HETATM   12  C31 UNL     1     -13.120  53.623  -0.185  1.00  0.00    -0.000 A 
ENDROOT
BRANCH   1  13
HETATM   13  C22 UNL     1     -12.286  55.413   1.504  1.00  0.00     0.055 C 
BRANCH  13  14
HETATM   14  C21 UNL     1     -12.916  55.178   2.828  1.00  0.00     0.087 C 
HETATM   15  C5  UNL     1     -13.372  56.523   3.454  1.00  0.00     0.096 C 
HETATM   16  N1  UNL     1     -12.307  57.223   4.117  1.00  0.00    -0.354 N 
HETATM   17  C6  UNL     1     -12.175  57.785   5.386  1.00  0.00     0.235 C 
ATOM     18  H1  UNL     1     -11.475  57.333   3.538  1.00  0.00     0.162 HD
HETATM   19  O1  UNL     1     -12.048  59.029   5.536  1.00  0.00    -0.272 OA
HETATM   20  C7  UNL     1     -12.158  57.043   6.715  1.00  0.00     0.225 C 
HETATM   21  N2  UNL     1     -12.461  55.654   6.478  1.00  0.00    -0.351 N 
HETATM   22  C8  UNL     1     -13.298  54.674   6.931  1.00  0.00     0.241 C 
ATOM     23  H2  UNL     1     -11.862  55.287   5.738  1.00  0.00     0.163 HD
HETATM   24  O2  UNL     1     -14.525  54.724   6.604  1.00  0.00    -0.271 OA
HETATM   25  C9  UNL     1     -13.103  53.462   7.778  1.00  0.00     0.180 C 
HETATM   26  N3  UNL     1     -12.883  52.273   6.955  1.00  0.00    -0.346 N 
HETATM   27  C14 UNL     1     -12.950  52.099   5.560  1.00  0.00     0.241 C 
ATOM     28  H3  UNL     1     -12.642  51.432   7.478  1.00  0.00     0.163 HD
HETATM   29  O3  UNL     1     -11.877  51.827   4.941  1.00  0.00    -0.271 OA
HETATM   30  C15 UNL     1     -14.120  52.180   4.657  1.00  0.00     0.175 C 
HETATM   31  N4  UNL     1     -13.969  52.822   3.409  1.00  0.00    -0.361 N 
HETATM   32  C20 UNL     1     -13.956  54.142   2.930  1.00  0.00     0.118 C 
ATOM     33  H4  UNL     1     -13.832  52.150   2.654  1.00  0.00     0.162 HD
BRANCH  15  34
HETATM   34  C4  UNL     1     -14.052  57.358   2.418  1.00  0.00     0.026 C 
BRANCH  34  35
HETATM   35  C3  UNL     1     -14.222  58.802   2.834  1.00  0.00     0.002 C 
BRANCH  35  36
HETATM   36  C2  UNL     1     -15.558  58.851   3.593  1.00  0.00    -0.004 C 
HETATM   37  C1  UNL     1     -15.344  59.314   5.017  1.00  0.00     0.005 C 
ENDBRANCH  35  36
ENDBRANCH  34  35
ENDBRANCH  15  34
BRANCH  25  38
HETATM   38  C10 UNL     1     -14.189  53.229   8.785  1.00  0.00     0.013 C 
HETATM   39  C11 UNL     1     -15.203  54.279   8.982  1.00  0.00     0.012 C 
BRANCH  38  40
HETATM   40  C12 UNL     1     -13.591  52.925  10.170  1.00  0.00     0.002 C 
HETATM   41  C13 UNL     1     -12.723  54.036  10.665  1.00  0.00     0.005 C 
ENDBRANCH  38  40
ENDBRANCH  25  38
BRANCH  30  42
HETATM   42  C16 UNL     1     -14.449  50.666   4.350  1.00  0.00     0.038 C 
BRANCH  42  43
HETATM   43  C17 UNL     1     -13.886  50.315   3.002  1.00  0.00    -0.020 C 
HETATM   44  C18 UNL     1     -12.853  49.219   3.202  1.00  0.00     0.009 C 
HETATM   45  C19 UNL     1     -14.942  49.733   2.079  1.00  0.00     0.009 C 
ENDBRANCH  42  43
ENDBRANCH  30  42
BRANCH  32  46
HETATM   46  O4  UNL     1     -15.080  54.627   2.453  1.00  0.00    -0.349 OA
ATOM     47  H4  UNL     1     -15.430  55.411   2.861  1.00  0.00     0.219 HD
ENDBRANCH  32  46
ENDBRANCH  13  14
ENDBRANCH   1  13
TORSDOF 10
ENDMDL
