MODEL 1
REMARK VINA RESULT: -10.295022591      0.000      0.000
REMARK  12 active torsions:
REMARK  status: ('A' for Active; 'I' for Inactive)
REMARK    1  A    between atoms: C2_2  and  C3_3 
REMARK    2  A    between atoms: C3_3  and  C4_4 
REMARK    3  A    between atoms: C4_4  and  C5_5 
REMARK    4  A    between atoms: C5_5  and  C6_6 
REMARK    5  A    between atoms: C6_6  and  C7_7 
REMARK    6  A    between atoms: C8_10  and  O1_11 
REMARK    7  A    between atoms: C10_15  and  C11_16 
REMARK    8  A    between atoms: C11_16  and  C12_17 
REMARK    9  A    between atoms: C20_29  and  O3_30 
REMARK   10  A    between atoms: C21_32  and  C22_33 
REMARK   11  A    between atoms: C22_33  and  C23_34 
REMARK   12  A    between atoms: C27_41  and  C28_42 
ROOT
HETATM    1  C7  UNL     1      -4.940  17.504  24.289  1.00  0.00     0.176 C 
HETATM    2  N1  UNL     1      -5.076  18.125  25.601  1.00  0.00    -0.355 N 
ATOM      3  H1  UNL     1      -5.262  19.128  25.625  1.00  0.00     0.162 HD
HETATM    4  C8  UNL     1      -4.974  17.458  26.843  1.00  0.00     0.185 C 
HETATM    5  C9  UNL     1      -5.726  16.345  27.338  1.00  0.00     0.222 C 
HETATM    6  O2  UNL     1      -5.107  15.262  27.583  1.00  0.00    -0.286 OA
HETATM    7  C10 UNL     1      -7.211  16.290  27.618  1.00  0.00     0.166 C 
HETATM    8  N3  UNL     1      -7.903  17.315  26.917  1.00  0.00    -0.360 N 
ATOM      9  H3  UNL     1      -7.615  18.252  27.199  1.00  0.00     0.162 HD
HETATM   10  C20 UNL     1      -8.879  17.326  25.937  1.00  0.00     0.135 C 
HETATM   11  C21 UNL     1      -9.174  16.430  24.812  1.00  0.00     0.159 C 
HETATM   12  N4  UNL     1      -8.135  15.520  24.434  1.00  0.00    -0.347 N 
ATOM     13  H4  UNL     1      -7.740  14.971  25.198  1.00  0.00     0.163 HD
HETATM   14  C26 UNL     1      -7.582  15.272  23.175  1.00  0.00     0.241 C 
HETATM   15  O4  UNL     1      -7.600  14.057  22.739  1.00  0.00    -0.271 OA
HETATM   16  C27 UNL     1      -6.958  16.218  22.232  1.00  0.00     0.180 C 
HETATM   17  N5  UNL     1      -6.886  17.574  22.641  1.00  0.00    -0.346 N 
ATOM     18  H5  UNL     1      -7.703  18.158  22.462  1.00  0.00     0.163 HD
HETATM   19  C31 UNL     1      -5.767  18.195  23.284  1.00  0.00     0.241 C 
HETATM   20  O5  UNL     1      -5.489  19.375  22.972  1.00  0.00    -0.271 OA
ENDROOT
BRANCH   7  21
HETATM   21  C11 UNL     1      -7.370  16.618  29.127  1.00  0.00     0.074 C 
BRANCH  21  22
HETATM   22  C12 UNL     1      -7.910  15.525  29.917  1.00  0.00    -0.028 A 
HETATM   23  C13 UNL     1      -8.294  14.240  29.547  1.00  0.00     0.096 A 
HETATM   24  N2  UNL     1      -8.716  13.545  30.624  1.00  0.00    -0.365 N 
HETATM   25  C14 UNL     1      -8.618  14.333  31.687  1.00  0.00     0.042 A 
ATOM     26  H2  UNL     1      -9.051  12.582  30.621  1.00  0.00     0.165 HD
HETATM   27  C15 UNL     1      -8.916  14.089  33.030  1.00  0.00     0.030 A 
HETATM   28  C19 UNL     1      -8.131  15.550  31.297  1.00  0.00    -0.002 A 
HETATM   29  C16 UNL     1      -8.713  15.097  33.970  1.00  0.00     0.002 A 
HETATM   30  C17 UNL     1      -8.225  16.325  33.590  1.00  0.00     0.001 A 
HETATM   31  C18 UNL     1      -7.943  16.522  32.247  1.00  0.00     0.014 A 
ENDBRANCH  21  22
ENDBRANCH   7  21
BRANCH   4  32
HETATM   32  O1  UNL     1      -4.045  17.962  27.622  1.00  0.00    -0.344 OA
ATOM     33  H1  UNL     1      -3.793  17.377  28.327  1.00  0.00     0.219 HD
ENDBRANCH   4  32
BRANCH  10  34
HETATM   34  O3  UNL     1      -9.731  18.324  25.989  1.00  0.00    -0.348 OA
ATOM     35  H3  UNL     1     -10.646  18.092  25.887  1.00  0.00     0.219 HD
ENDBRANCH  10  34
BRANCH  11  36
HETATM   36  C22 UNL     1     -10.382  15.554  25.148  1.00  0.00     0.037 C 
BRANCH  36  37
HETATM   37  C23 UNL     1     -10.274  14.817  26.435  1.00  0.00    -0.020 C 
HETATM   38  C24 UNL     1     -11.217  15.236  27.508  1.00  0.00     0.009 C 
HETATM   39  C25 UNL     1     -10.557  13.335  26.090  1.00  0.00     0.009 C 
ENDBRANCH  36  37
ENDBRANCH  11  36
BRANCH   1  40
HETATM   40  C6  UNL     1      -3.519  17.320  23.855  1.00  0.00     0.035 C 
BRANCH  40  41
HETATM   41  C5  UNL     1      -2.800  16.125  24.383  1.00  0.00     0.002 C 
BRANCH  41  42
HETATM   42  C4  UNL     1      -1.567  15.975  23.484  1.00  0.00     0.000 C 
BRANCH  42  43
HETATM   43  C3  UNL     1      -1.067  14.573  23.550  1.00  0.00    -0.000 C 
BRANCH  43  44
HETATM   44  C2  UNL     1      -0.446  14.180  22.238  1.00  0.00    -0.005 C 
HETATM   45  C1  UNL     1      -1.219  14.900  21.142  1.00  0.00     0.005 C 
ENDBRANCH  43  44
ENDBRANCH  42  43
ENDBRANCH  41  42
ENDBRANCH  40  41
ENDBRANCH   1  40
BRANCH  16  46
HETATM   46  C28 UNL     1      -7.584  16.062  20.844  1.00  0.00     0.009 C 
HETATM   47  C29 UNL     1      -9.064  15.842  20.887  1.00  0.00     0.012 C 
HETATM   48  C30 UNL     1      -6.946  14.948  20.055  1.00  0.00     0.012 C 
ENDBRANCH  16  46
TORSDOF 12
ENDMDL
MODEL 2
REMARK VINA RESULT: -10.265143236      3.736      9.985
REMARK  12 active torsions:
REMARK  status: ('A' for Active; 'I' for Inactive)
REMARK    1  A    between atoms: C2_2  and  C3_3 
REMARK    2  A    between atoms: C3_3  and  C4_4 
REMARK    3  A    between atoms: C4_4  and  C5_5 
REMARK    4  A    between atoms: C5_5  and  C6_6 
REMARK    5  A    between atoms: C6_6  and  C7_7 
REMARK    6  A    between atoms: C8_10  and  O1_11 
REMARK    7  A    between atoms: C10_15  and  C11_16 
REMARK    8  A    between atoms: C11_16  and  C12_17 
REMARK    9  A    between atoms: C20_29  and  O3_30 
REMARK   10  A    between atoms: C21_32  and  C22_33 
REMARK   11  A    between atoms: C22_33  and  C23_34 
REMARK   12  A    between atoms: C27_41  and  C28_42 
ROOT
HETATM    1  C7  UNL     1     -12.652  13.218  30.303  1.00  0.00     0.176 C 
HETATM    2  N1  UNL     1     -13.144  13.664  29.005  1.00  0.00    -0.355 N 
ATOM      3  H1  UNL     1     -13.867  14.384  29.003  1.00  0.00     0.162 HD
HETATM    4  C8  UNL     1     -12.706  13.187  27.749  1.00  0.00     0.185 C 
HETATM    5  C9  UNL     1     -11.385  13.172  27.197  1.00  0.00     0.222 C 
HETATM    6  O2  UNL     1     -10.852  12.046  26.943  1.00  0.00    -0.286 OA
HETATM    7  C10 UNL     1     -10.513  14.362  26.864  1.00  0.00     0.166 C 
HETATM    8  N3  UNL     1     -10.938  15.521  27.569  1.00  0.00    -0.360 N 
ATOM      9  H3  UNL     1     -11.885  15.810  27.324  1.00  0.00     0.162 HD
HETATM   10  C20 UNL     1     -10.353  16.344  28.514  1.00  0.00     0.135 C 
HETATM   11  C21 UNL     1      -9.400  16.096  29.603  1.00  0.00     0.159 C 
HETATM   12  N4  UNL     1      -9.220  14.729  29.991  1.00  0.00    -0.347 N 
ATOM     13  H4  UNL     1      -9.023  14.084  29.226  1.00  0.00     0.163 HD
HETATM   14  C26 UNL     1      -9.274  14.150  31.261  1.00  0.00     0.241 C 
HETATM   15  O4  UNL     1      -8.243  13.483  31.661  1.00  0.00    -0.271 OA
HETATM   16  C27 UNL     1     -10.364  14.181  32.251  1.00  0.00     0.180 C 
HETATM   17  N5  UNL     1     -11.541  14.883  31.883  1.00  0.00    -0.346 N 
ATOM     18  H5  UNL     1     -11.553  15.889  32.050  1.00  0.00     0.163 HD
HETATM   19  C31 UNL     1     -12.712  14.303  31.298  1.00  0.00     0.241 C 
HETATM   20  O5  UNL     1     -13.828  14.745  31.652  1.00  0.00    -0.271 OA
ENDROOT
BRANCH   7  21
HETATM   21  C11 UNL     1     -10.759  14.659  25.360  1.00  0.00     0.074 C 
BRANCH  21  22
HETATM   22  C12 UNL     1      -9.558  14.613  24.543  1.00  0.00    -0.028 A 
HETATM   23  C13 UNL     1      -8.238  14.337  24.884  1.00  0.00     0.096 A 
HETATM   24  N2  UNL     1      -7.450  14.376  23.790  1.00  0.00    -0.365 N 
HETATM   25  C14 UNL     1      -8.212  14.665  22.743  1.00  0.00     0.042 A 
ATOM     26  H2  UNL     1      -6.444  14.211  23.771  1.00  0.00     0.165 HD
HETATM   27  C15 UNL     1      -7.886  14.810  21.392  1.00  0.00     0.030 A 
HETATM   28  C19 UNL     1      -9.505  14.817  23.162  1.00  0.00    -0.002 A 
HETATM   29  C16 UNL     1      -8.889  15.111  20.474  1.00  0.00     0.002 A 
HETATM   30  C17 UNL     1     -10.193  15.268  20.883  1.00  0.00     0.001 A 
HETATM   31  C18 UNL     1     -10.470  15.115  22.233  1.00  0.00     0.014 A 
ENDBRANCH  21  22
ENDBRANCH   7  21
BRANCH   4  32
HETATM   32  O1  UNL     1     -13.678  12.696  27.017  1.00  0.00    -0.344 OA
ATOM     33  H1  UNL     1     -14.042  11.893  27.371  1.00  0.00     0.219 HD
ENDBRANCH   4  32
BRANCH  10  34
HETATM   34  O3  UNL     1     -10.697  17.611  28.461  1.00  0.00    -0.348 OA
ATOM     35  H3  UNL     1     -11.061  17.974  29.259  1.00  0.00     0.219 HD
ENDBRANCH  10  34
BRANCH  11  36
HETATM   36  C22 UNL     1      -8.010  16.592  29.200  1.00  0.00     0.037 C 
BRANCH  36  37
HETATM   37  C23 UNL     1      -7.617  16.267  27.804  1.00  0.00    -0.020 C 
HETATM   38  C24 UNL     1      -7.390  17.429  26.901  1.00  0.00     0.009 C 
HETATM   39  C25 UNL     1      -6.291  15.476  27.920  1.00  0.00     0.009 C 
ENDBRANCH  36  37
ENDBRANCH  11  36
BRANCH   1  40
HETATM   40  C6  UNL     1     -13.285  11.947  30.781  1.00  0.00     0.035 C 
BRANCH  40  41
HETATM   41  C5  UNL     1     -12.841  10.683  30.125  1.00  0.00     0.002 C 
BRANCH  41  42
HETATM   42  C4  UNL     1     -13.941   9.664  30.445  1.00  0.00     0.000 C 
BRANCH  42  43
HETATM   43  C3  UNL     1     -13.333   8.441  31.041  1.00  0.00    -0.000 C 
BRANCH  43  44
HETATM   44  C2  UNL     1     -11.926   8.264  30.540  1.00  0.00    -0.005 C 
HETATM   45  C1  UNL     1     -11.663   6.766  30.462  1.00  0.00     0.005 C 
ENDBRANCH  43  44
ENDBRANCH  42  43
ENDBRANCH  41  42
ENDBRANCH  40  41
ENDBRANCH   1  40
BRANCH  16  46
HETATM   46  C28 UNL     1      -9.823  14.627  33.611  1.00  0.00     0.009 C 
HETATM   47  C29 UNL     1      -8.881  15.787  33.519  1.00  0.00     0.012 C 
HETATM   48  C30 UNL     1      -9.144  13.503  34.349  1.00  0.00     0.012 C 
ENDBRANCH  16  46
TORSDOF 12
ENDMDL
MODEL 3
REMARK VINA RESULT: -10.191989145      3.644     10.127
REMARK  12 active torsions:
REMARK  status: ('A' for Active; 'I' for Inactive)
REMARK    1  A    between atoms: C2_2  and  C3_3 
REMARK    2  A    between atoms: C3_3  and  C4_4 
REMARK    3  A    between atoms: C4_4  and  C5_5 
REMARK    4  A    between atoms: C5_5  and  C6_6 
REMARK    5  A    between atoms: C6_6  and  C7_7 
REMARK    6  A    between atoms: C8_10  and  O1_11 
REMARK    7  A    between atoms: C10_15  and  C11_16 
REMARK    8  A    between atoms: C11_16  and  C12_17 
REMARK    9  A    between atoms: C20_29  and  O3_30 
REMARK   10  A    between atoms: C21_32  and  C22_33 
REMARK   11  A    between atoms: C22_33  and  C23_34 
REMARK   12  A    between atoms: C27_41  and  C28_42 
ROOT
HETATM    1  C7  UNL     1     -12.688  13.132  30.186  1.00  0.00     0.176 C 
HETATM    2  N1  UNL     1     -13.171  13.597  28.891  1.00  0.00    -0.355 N 
ATOM      3  H1  UNL     1     -13.904  14.307  28.895  1.00  0.00     0.162 HD
HETATM    4  C8  UNL     1     -12.713  13.150  27.631  1.00  0.00     0.185 C 
HETATM    5  C9  UNL     1     -11.386  13.163  27.094  1.00  0.00     0.222 C 
HETATM    6  O2  UNL     1     -10.835  12.050  26.824  1.00  0.00    -0.286 OA
HETATM    7  C10 UNL     1     -10.526  14.371  26.794  1.00  0.00     0.166 C 
HETATM    8  N3  UNL     1     -10.974  15.510  27.517  1.00  0.00    -0.360 N 
ATOM      9  H3  UNL     1     -11.922  15.791  27.266  1.00  0.00     0.162 HD
HETATM   10  C20 UNL     1     -10.411  16.322  28.485  1.00  0.00     0.135 C 
HETATM   11  C21 UNL     1      -9.467  16.065  29.579  1.00  0.00     0.159 C 
HETATM   12  N4  UNL     1      -9.273  14.694  29.942  1.00  0.00    -0.347 N 
ATOM     13  H4  UNL     1      -9.059  14.066  29.167  1.00  0.00     0.163 HD
HETATM   14  C26 UNL     1      -9.333  14.089  31.200  1.00  0.00     0.241 C 
HETATM   15  O4  UNL     1      -8.298  13.428  31.598  1.00  0.00    -0.271 OA
HETATM   16  C27 UNL     1     -10.435  14.086  32.178  1.00  0.00     0.180 C 
HETATM   17  N5  UNL     1     -11.617  14.780  31.811  1.00  0.00    -0.346 N 
ATOM     18  H5  UNL     1     -11.645  15.782  31.997  1.00  0.00     0.163 HD
HETATM   19  C31 UNL     1     -12.774  14.196  31.201  1.00  0.00     0.241 C 
HETATM   20  O5  UNL     1     -13.899  14.617  31.551  1.00  0.00    -0.271 OA
ENDROOT
BRANCH   7  21
HETATM   21  C11 UNL     1     -10.759  14.694  25.294  1.00  0.00     0.074 C 
BRANCH  21  22
HETATM   22  C12 UNL     1      -9.556  14.638  24.481  1.00  0.00    -0.028 A 
HETATM   23  C13 UNL     1      -8.238  14.360  24.830  1.00  0.00     0.096 A 
HETATM   24  N2  UNL     1      -7.445  14.388  23.738  1.00  0.00    -0.365 N 
HETATM   25  C14 UNL     1      -8.203  14.673  22.686  1.00  0.00     0.042 A 
ATOM     26  H2  UNL     1      -6.440  14.219  23.724  1.00  0.00     0.165 HD
HETATM   27  C15 UNL     1      -7.871  14.808  21.336  1.00  0.00     0.030 A 
HETATM   28  C19 UNL     1      -9.497  14.833  23.099  1.00  0.00    -0.002 A 
HETATM   29  C16 UNL     1      -8.869  15.107  20.412  1.00  0.00     0.002 A 
HETATM   30  C17 UNL     1     -10.173  15.271  20.815  1.00  0.00     0.001 A 
HETATM   31  C18 UNL     1     -10.457  15.128  22.165  1.00  0.00     0.014 A 
ENDBRANCH  21  22
ENDBRANCH   7  21
BRANCH   4  32
HETATM   32  O1  UNL     1     -13.670  12.661  26.879  1.00  0.00    -0.344 OA
ATOM     33  H1  UNL     1     -13.440  12.626  25.958  1.00  0.00     0.219 HD
ENDBRANCH   4  32
BRANCH  10  34
HETATM   34  O3  UNL     1     -10.772  17.585  28.452  1.00  0.00    -0.348 OA
ATOM     35  H3  UNL     1     -11.525  17.786  27.910  1.00  0.00     0.219 HD
ENDBRANCH  10  34
BRANCH  11  36
HETATM   36  C22 UNL     1      -8.079  16.588  29.202  1.00  0.00     0.037 C 
BRANCH  36  37
HETATM   37  C23 UNL     1      -7.649  16.258  27.817  1.00  0.00    -0.020 C 
HETATM   38  C24 UNL     1      -7.427  17.416  26.909  1.00  0.00     0.009 C 
HETATM   39  C25 UNL     1      -6.309  15.498  27.970  1.00  0.00     0.009 C 
ENDBRANCH  36  37
ENDBRANCH  11  36
BRANCH   1  40
HETATM   40  C6  UNL     1     -13.309  11.844  30.631  1.00  0.00     0.035 C 
BRANCH  40  41
HETATM   41  C5  UNL     1     -12.672  10.584  30.151  1.00  0.00     0.002 C 
BRANCH  41  42
HETATM   42  C4  UNL     1     -13.037   9.528  31.201  1.00  0.00     0.000 C 
BRANCH  42  43
HETATM   43  C3  UNL     1     -13.538  10.201  32.433  1.00  0.00    -0.000 C 
BRANCH  43  44
HETATM   44  C2  UNL     1     -12.691   9.817  33.615  1.00  0.00    -0.005 C 
HETATM   45  C1  UNL     1     -12.321  11.104  34.339  1.00  0.00     0.005 C 
ENDBRANCH  43  44
ENDBRANCH  42  43
ENDBRANCH  41  42
ENDBRANCH  40  41
ENDBRANCH   1  40
BRANCH  16  46
HETATM   46  C28 UNL     1      -9.915  14.512  33.553  1.00  0.00     0.009 C 
HETATM   47  C29 UNL     1      -8.979  15.679  33.492  1.00  0.00     0.012 C 
HETATM   48  C30 UNL     1      -9.239  13.380  34.281  1.00  0.00     0.012 C 
ENDBRANCH  16  46
TORSDOF 12
ENDMDL
MODEL 4
REMARK VINA RESULT: -10.045749300      1.080      1.332
REMARK  12 active torsions:
REMARK  status: ('A' for Active; 'I' for Inactive)
REMARK    1  A    between atoms: C2_2  and  C3_3 
REMARK    2  A    between atoms: C3_3  and  C4_4 
REMARK    3  A    between atoms: C4_4  and  C5_5 
REMARK    4  A    between atoms: C5_5  and  C6_6 
REMARK    5  A    between atoms: C6_6  and  C7_7 
REMARK    6  A    between atoms: C8_10  and  O1_11 
REMARK    7  A    between atoms: C10_15  and  C11_16 
REMARK    8  A    between atoms: C11_16  and  C12_17 
REMARK    9  A    between atoms: C20_29  and  O3_30 
REMARK   10  A    between atoms: C21_32  and  C22_33 
REMARK   11  A    between atoms: C22_33  and  C23_34 
REMARK   12  A    between atoms: C27_41  and  C28_42 
ROOT
HETATM    1  C7  UNL     1      -5.147  17.189  23.986  1.00  0.00     0.176 C 
HETATM    2  N1  UNL     1      -5.267  17.963  25.216  1.00  0.00    -0.355 N 
ATOM      3  H1  UNL     1      -5.496  18.953  25.122  1.00  0.00     0.162 HD
HETATM    4  C8  UNL     1      -5.094  17.462  26.525  1.00  0.00     0.185 C 
HETATM    5  C9  UNL     1      -5.780  16.390  27.182  1.00  0.00     0.222 C 
HETATM    6  O2  UNL     1      -5.106  15.372  27.536  1.00  0.00    -0.286 OA
HETATM    7  C10 UNL     1      -7.251  16.311  27.524  1.00  0.00     0.166 C 
HETATM    8  N3  UNL     1      -8.010  17.211  26.728  1.00  0.00    -0.360 N 
ATOM      9  H3  UNL     1      -7.755  18.188  26.881  1.00  0.00     0.162 HD
HETATM   10  C20 UNL     1      -9.017  17.060  25.792  1.00  0.00     0.135 C 
HETATM   11  C21 UNL     1      -9.309  16.019  24.798  1.00  0.00     0.159 C 
HETATM   12  N4  UNL     1      -8.244  15.112  24.497  1.00  0.00    -0.347 N 
ATOM     13  H4  UNL     1      -7.800  14.679  25.307  1.00  0.00     0.163 HD
HETATM   14  C26 UNL     1      -7.722  14.731  23.257  1.00  0.00     0.241 C 
HETATM   15  O4  UNL     1      -7.700  13.471  22.977  1.00  0.00    -0.271 OA
HETATM   16  C27 UNL     1      -7.171  15.575  22.182  1.00  0.00     0.180 C 
HETATM   17  N5  UNL     1      -7.146  16.974  22.417  1.00  0.00    -0.346 N 
ATOM     18  H5  UNL     1      -7.994  17.497  22.198  1.00  0.00     0.163 HD
HETATM   19  C31 UNL     1      -6.036  17.715  22.935  1.00  0.00     0.241 C 
HETATM   20  O5  UNL     1      -5.821  18.857  22.470  1.00  0.00    -0.271 OA
ENDROOT
BRANCH   7  21
HETATM   21  C11 UNL     1      -7.375  16.819  28.985  1.00  0.00     0.074 C 
BRANCH  21  22
HETATM   22  C12 UNL     1      -8.526  16.294  29.699  1.00  0.00    -0.028 A 
HETATM   23  C13 UNL     1      -9.886  16.380  29.417  1.00  0.00     0.096 A 
HETATM   24  N2  UNL     1     -10.604  15.714  30.345  1.00  0.00    -0.365 N 
HETATM   25  C14 UNL     1      -9.757  15.193  31.225  1.00  0.00     0.042 A 
ATOM     26  H2  UNL     1     -11.619  15.626  30.366  1.00  0.00     0.165 HD
HETATM   27  C15 UNL     1      -9.991  14.413  32.360  1.00  0.00     0.030 A 
HETATM   28  C19 UNL     1      -8.480  15.526  30.865  1.00  0.00    -0.002 A 
HETATM   29  C16 UNL     1      -8.912  13.976  33.124  1.00  0.00     0.002 A 
HETATM   30  C17 UNL     1      -7.623  14.305  32.774  1.00  0.00     0.001 A 
HETATM   31  C18 UNL     1      -7.439  15.081  31.639  1.00  0.00     0.014 A 
ENDBRANCH  21  22
ENDBRANCH   7  21
BRANCH   4  32
HETATM   32  O1  UNL     1      -4.164  18.096  27.200  1.00  0.00    -0.344 OA
ATOM     33  H1  UNL     1      -4.040  17.751  28.077  1.00  0.00     0.219 HD
ENDBRANCH   4  32
BRANCH  10  34
HETATM   34  O3  UNL     1      -9.911  18.022  25.753  1.00  0.00    -0.348 OA
ATOM     35  H3  UNL     1     -10.819  17.744  25.775  1.00  0.00     0.219 HD
ENDBRANCH  10  34
BRANCH  11  36
HETATM   36  C22 UNL     1     -10.465  15.144  25.286  1.00  0.00     0.037 C 
BRANCH  36  37
HETATM   37  C23 UNL     1     -10.054  13.821  25.827  1.00  0.00    -0.020 C 
HETATM   38  C24 UNL     1      -9.584  13.811  27.239  1.00  0.00     0.009 C 
HETATM   39  C25 UNL     1     -11.313  12.925  25.728  1.00  0.00     0.009 C 
ENDBRANCH  36  37
ENDBRANCH  11  36
BRANCH   1  40
HETATM   40  C6  UNL     1      -3.734  17.010  23.524  1.00  0.00     0.035 C 
BRANCH  40  41
HETATM   41  C5  UNL     1      -2.732  18.002  24.010  1.00  0.00     0.002 C 
BRANCH  41  42
HETATM   42  C4  UNL     1      -1.384  17.274  23.937  1.00  0.00     0.000 C 
BRANCH  42  43
HETATM   43  C3  UNL     1      -1.602  15.859  23.526  1.00  0.00    -0.000 C 
BRANCH  43  44
HETATM   44  C2  UNL     1      -0.296  15.227  23.129  1.00  0.00    -0.005 C 
HETATM   45  C1  UNL     1      -0.369  13.759  23.526  1.00  0.00     0.005 C 
ENDBRANCH  43  44
ENDBRANCH  42  43
ENDBRANCH  41  42
ENDBRANCH  40  41
ENDBRANCH   1  40
BRANCH  16  46
HETATM   46  C28 UNL     1      -7.835  15.222  20.849  1.00  0.00     0.009 C 
HETATM   47  C29 UNL     1      -6.857  15.074  19.726  1.00  0.00     0.012 C 
HETATM   48  C30 UNL     1      -8.887  16.225  20.453  1.00  0.00     0.012 C 
ENDBRANCH  16  46
TORSDOF 12
ENDMDL
MODEL 5
REMARK VINA RESULT: -9.951113921      3.642      9.859
REMARK  12 active torsions:
REMARK  status: ('A' for Active; 'I' for Inactive)
REMARK    1  A    between atoms: C2_2  and  C3_3 
REMARK    2  A    between atoms: C3_3  and  C4_4 
REMARK    3  A    between atoms: C4_4  and  C5_5 
REMARK    4  A    between atoms: C5_5  and  C6_6 
REMARK    5  A    between atoms: C6_6  and  C7_7 
REMARK    6  A    between atoms: C8_10  and  O1_11 
REMARK    7  A    between atoms: C10_15  and  C11_16 
REMARK    8  A    between atoms: C11_16  and  C12_17 
REMARK    9  A    between atoms: C20_29  and  O3_30 
REMARK   10  A    between atoms: C21_32  and  C22_33 
REMARK   11  A    between atoms: C22_33  and  C23_34 
REMARK   12  A    between atoms: C27_41  and  C28_42 
ROOT
HETATM    1  C7  UNL     1     -12.306  13.331  30.546  1.00  0.00     0.176 C 
HETATM    2  N1  UNL     1     -12.905  13.882  29.336  1.00  0.00    -0.355 N 
ATOM      3  H1  UNL     1     -13.570  14.646  29.453  1.00  0.00     0.162 HD
HETATM    4  C8  UNL     1     -12.644  13.449  28.017  1.00  0.00     0.185 C 
HETATM    5  C9  UNL     1     -11.397  13.378  27.317  1.00  0.00     0.222 C 
HETATM    6  O2  UNL     1     -10.978  12.237  26.948  1.00  0.00    -0.286 OA
HETATM    7  C10 UNL     1     -10.485  14.526  26.945  1.00  0.00     0.166 C 
HETATM    8  N3  UNL     1     -10.744  15.667  27.751  1.00  0.00    -0.360 N 
ATOM      9  H3  UNL     1     -11.689  16.032  27.630  1.00  0.00     0.162 HD
HETATM   10  C20 UNL     1     -10.000  16.396  28.662  1.00  0.00     0.135 C 
HETATM   11  C21 UNL     1      -8.952  16.023  29.621  1.00  0.00     0.159 C 
HETATM   12  N4  UNL     1      -8.829  14.628  29.917  1.00  0.00    -0.347 N 
ATOM     13  H4  UNL     1      -8.765  14.015  29.104  1.00  0.00     0.163 HD
HETATM   14  C26 UNL     1      -8.783  13.981  31.155  1.00  0.00     0.241 C 
HETATM   15  O4  UNL     1      -7.765  13.227  31.401  1.00  0.00    -0.271 OA
HETATM   16  C27 UNL     1      -9.753  14.028  32.264  1.00  0.00     0.180 C 
HETATM   17  N5  UNL     1     -10.909  14.825  32.069  1.00  0.00    -0.346 N 
ATOM     18  H5  UNL     1     -10.830  15.819  32.286  1.00  0.00     0.163 HD
HETATM   19  C31 UNL     1     -12.177  14.358  31.594  1.00  0.00     0.241 C 
HETATM   20  O5  UNL     1     -13.212  14.852  32.095  1.00  0.00    -0.271 OA
ENDROOT
BRANCH   7  21
HETATM   21  C11 UNL     1     -10.874  14.924  25.496  1.00  0.00     0.074 C 
BRANCH  21  22
HETATM   22  C12 UNL     1      -9.848  15.676  24.792  1.00  0.00    -0.028 A 
HETATM   23  C13 UNL     1      -9.300  16.928  25.054  1.00  0.00     0.096 A 
HETATM   24  N2  UNL     1      -8.345  17.223  24.149  1.00  0.00    -0.365 N 
HETATM   25  C14 UNL     1      -8.248  16.204  23.304  1.00  0.00     0.042 A 
ATOM     26  H2  UNL     1      -7.793  18.080  24.119  1.00  0.00     0.165 HD
HETATM   27  C15 UNL     1      -7.410  16.012  22.202  1.00  0.00     0.030 A 
HETATM   28  C19 UNL     1      -9.150  15.240  23.663  1.00  0.00    -0.002 A 
HETATM   29  C16 UNL     1      -7.501  14.829  21.472  1.00  0.00     0.002 A 
HETATM   30  C17 UNL     1      -8.404  13.853  21.823  1.00  0.00     0.001 A 
HETATM   31  C18 UNL     1      -9.215  14.087  22.923  1.00  0.00     0.014 A 
ENDBRANCH  21  22
ENDBRANCH   7  21
BRANCH   4  32
HETATM   32  O1  UNL     1     -13.725  13.066  27.378  1.00  0.00    -0.344 OA
ATOM     33  H1  UNL     1     -14.093  13.747  26.827  1.00  0.00     0.219 HD
ENDBRANCH   4  32
BRANCH  10  34
HETATM   34  O3  UNL     1     -10.256  17.683  28.711  1.00  0.00    -0.348 OA
ATOM     35  H3  UNL     1      -9.642  18.244  28.253  1.00  0.00     0.219 HD
ENDBRANCH  10  34
BRANCH  11  36
HETATM   36  C22 UNL     1      -7.584  16.449  29.086  1.00  0.00     0.037 C 
BRANCH  36  37
HETATM   37  C23 UNL     1      -7.488  16.505  27.603  1.00  0.00    -0.020 C 
HETATM   38  C24 UNL     1      -6.699  17.636  27.042  1.00  0.00     0.009 C 
HETATM   39  C25 UNL     1      -6.807  15.181  27.182  1.00  0.00     0.009 C 
ENDBRANCH  36  37
ENDBRANCH  11  36
BRANCH   1  40
HETATM   40  C6  UNL     1     -12.971  12.079  31.030  1.00  0.00     0.035 C 
BRANCH  40  41
HETATM   41  C5  UNL     1     -12.659  10.820  30.295  1.00  0.00     0.002 C 
BRANCH  41  42
HETATM   42  C4  UNL     1     -13.855   9.898  30.561  1.00  0.00     0.000 C 
BRANCH  42  43
HETATM   43  C3  UNL     1     -13.368   8.559  30.998  1.00  0.00    -0.000 C 
BRANCH  43  44
HETATM   44  C2  UNL     1     -11.960   8.337  30.520  1.00  0.00    -0.005 C 
HETATM   45  C1  UNL     1     -11.751   6.832  30.422  1.00  0.00     0.005 C 
ENDBRANCH  43  44
ENDBRANCH  42  43
ENDBRANCH  41  42
ENDBRANCH  40  41
ENDBRANCH   1  40
BRANCH  16  46
HETATM   46  C28 UNL     1      -9.033  14.359  33.573  1.00  0.00     0.009 C 
HETATM   47  C29 UNL     1      -9.459  13.489  34.715  1.00  0.00     0.012 C 
HETATM   48  C30 UNL     1      -9.203  15.803  33.968  1.00  0.00     0.012 C 
ENDBRANCH  16  46
TORSDOF 12
ENDMDL
