MODEL 1
REMARK VINA RESULT: -7.664882998      0.000      0.000
REMARK  13 active torsions:
REMARK  status: ('A' for Active; 'I' for Inactive)
REMARK    1  A    between atoms: C2_2  and  C4_4 
REMARK    2  A    between atoms: C4_4  and  C5_5 
REMARK    3  A    between atoms: C9_14  and  O2_15 
REMARK    4  A    between atoms: C10_17  and  C11_18 
REMARK    5  A    between atoms: C14_21  and  C15_22 
REMARK    6  A    between atoms: C15_22  and  C17_24 
REMARK    7  A    between atoms: C17_24  and  C18_25 
REMARK    8  A    between atoms: C18_25  and  C19_26 
REMARK    9  A    between atoms: C19_26  and  C20_27 
REMARK   10  A    between atoms: C20_27  and  C21_28 
REMARK       I    between atoms: C21_28  and  N3_30 
REMARK   11  A    between atoms: N3_30  and  C22_32 
REMARK   12  A    between atoms: C28_38  and  O4_39 
REMARK   13  A    between atoms: C31_46  and  O6_47 
ROOT
HETATM    1  C5  UNL     1      -6.234  16.246  24.399  1.00  0.00     0.159 C 
HETATM    2  N1  UNL     1      -5.795  17.581  24.242  1.00  0.00    -0.347 N 
ATOM      3  H1  UNL     1      -6.509  18.235  23.922  1.00  0.00     0.163 HD
HETATM    4  C6  UNL     1      -4.525  18.148  24.457  1.00  0.00     0.240 C 
HETATM    5  O1  UNL     1      -4.418  19.427  24.367  1.00  0.00    -0.271 OA
HETATM    6  C7  UNL     1      -3.266  17.470  24.779  1.00  0.00     0.171 C 
HETATM    7  C8  UNL     1      -3.109  17.677  26.312  1.00  0.00     0.042 C 
HETATM    8  N2  UNL     1      -2.074  18.022  24.218  1.00  0.00    -0.357 N 
ATOM      9  H2  UNL     1      -1.904  18.996  24.467  1.00  0.00     0.162 HD
HETATM   10  C9  UNL     1      -1.087  17.452  23.379  1.00  0.00     0.147 C 
HETATM   11  C10 UNL     1      -1.279  16.704  22.129  1.00  0.00     0.023 C 
HETATM   12  C14 UNL     1      -0.596  17.201  20.913  1.00  0.00    -0.040 C 
HETATM   13  C25 UNL     1      -1.257  17.211  19.739  1.00  0.00     0.008 C 
HETATM   14  C26 UNL     1      -2.645  16.788  19.447  1.00  0.00    -0.001 C 
HETATM   15  C27 UNL     1      -3.809  17.154  19.770  1.00  0.00     0.005 C 
HETATM   16  C28 UNL     1      -5.248  16.810  19.552  1.00  0.00     0.149 C 
HETATM   17  C29 UNL     1      -5.817  17.015  20.989  1.00  0.00     0.138 C 
HETATM   18  C30 UNL     1      -7.229  16.802  21.141  1.00  0.00     0.226 C 
HETATM   19  O5  UNL     1      -7.949  17.043  20.110  1.00  0.00    -0.273 OA
HETATM   20  N4  UNL     1      -7.848  16.350  22.348  1.00  0.00    -0.309 N 
ATOM     21  H4  UNL     1      -8.860  16.478  22.387  1.00  0.00     0.170 HD
HETATM   22  C31 UNL     1      -7.287  15.766  23.471  1.00  0.00     0.141 C 
ENDROOT
BRANCH  12  23
HETATM   23  C15 UNL     1       0.790  17.838  21.015  1.00  0.00     0.015 C 
HETATM   24  C16 UNL     1       1.812  16.906  20.400  1.00  0.00     0.015 C 
BRANCH  23  25
HETATM   25  C17 UNL     1       0.874  19.102  20.187  1.00  0.00     0.009 C 
BRANCH  25  26
HETATM   26  C18 UNL     1       0.764  20.388  20.832  1.00  0.00     0.001 C 
BRANCH  26  27
HETATM   27  C19 UNL     1       0.786  20.677  22.254  1.00  0.00     0.009 C 
BRANCH  27  28
HETATM   28  C20 UNL     1       1.848  21.617  22.765  1.00  0.00     0.103 C 
BRANCH  28  29
HETATM   29  C21 UNL     1       1.211  22.495  23.802  1.00  0.00     0.217 C 
HETATM   30  O3  UNL     1       0.059  22.997  23.623  1.00  0.00    -0.274 OA
HETATM   31  N3  UNL     1       1.875  22.796  25.018  1.00  0.00    -0.357 N 
ATOM     32  H3  UNL     1       2.801  22.404  25.187  1.00  0.00     0.162 HD
BRANCH  31  33
HETATM   33  C22 UNL     1       1.276  23.642  26.025  1.00  0.00     0.076 C 
HETATM   34  C23 UNL     1       1.632  23.215  27.415  1.00  0.00     0.032 C 
HETATM   35  C24 UNL     1       1.667  25.087  25.806  1.00  0.00     0.032 C 
ENDBRANCH  31  33
ENDBRANCH  28  29
ENDBRANCH  27  28
ENDBRANCH  26  27
ENDBRANCH  25  26
ENDBRANCH  23  25
ENDBRANCH  12  23
BRANCH  11  36
HETATM   36  C11 UNL     1      -1.415  15.274  22.407  1.00  0.00    -0.073 C 
HETATM   37  C12 UNL     1      -0.724  14.269  21.568  1.00  0.00     0.044 C 
HETATM   38  C13 UNL     1      -1.422  14.806  23.838  1.00  0.00     0.044 C 
ENDBRANCH  11  36
BRANCH  10  39
HETATM   39  O2  UNL     1       0.128  17.638  23.806  1.00  0.00    -0.346 OA
ATOM     40  H2  UNL     1       0.572  18.363  23.383  1.00  0.00     0.219 HD
ENDBRANCH  10  39
BRANCH  16  41
HETATM   41  O4  UNL     1      -5.617  15.574  19.169  1.00  0.00    -0.391 OA
ATOM     42  H4  UNL     1      -5.589  15.313  18.256  1.00  0.00     0.210 HD
ENDBRANCH  16  41
BRANCH   1  43
HETATM   43  C4  UNL     1      -6.506  15.840  25.824  1.00  0.00     0.037 C 
BRANCH  43  44
HETATM   44  C2  UNL     1      -7.035  16.819  26.758  1.00  0.00    -0.020 C 
HETATM   45  C1  UNL     1      -8.468  17.213  26.628  1.00  0.00     0.009 C 
HETATM   46  C3  UNL     1      -6.775  16.496  28.214  1.00  0.00     0.009 C 
ENDBRANCH  43  44
ENDBRANCH   1  43
BRANCH  22  47
HETATM   47  O6  UNL     1      -7.714  14.585  23.838  1.00  0.00    -0.348 OA
ATOM     48  H6  UNL     1      -7.621  13.964  23.126  1.00  0.00     0.219 HD
ENDBRANCH  22  47
TORSDOF 13
ENDMDL
MODEL 2
REMARK VINA RESULT: -7.507480124      4.712     11.051
REMARK  13 active torsions:
REMARK  status: ('A' for Active; 'I' for Inactive)
REMARK    1  A    between atoms: C2_2  and  C4_4 
REMARK    2  A    between atoms: C4_4  and  C5_5 
REMARK    3  A    between atoms: C9_14  and  O2_15 
REMARK    4  A    between atoms: C10_17  and  C11_18 
REMARK    5  A    between atoms: C14_21  and  C15_22 
REMARK    6  A    between atoms: C15_22  and  C17_24 
REMARK    7  A    between atoms: C17_24  and  C18_25 
REMARK    8  A    between atoms: C18_25  and  C19_26 
REMARK    9  A    between atoms: C19_26  and  C20_27 
REMARK   10  A    between atoms: C20_27  and  C21_28 
REMARK       I    between atoms: C21_28  and  N3_30 
REMARK   11  A    between atoms: N3_30  and  C22_32 
REMARK   12  A    between atoms: C28_38  and  O4_39 
REMARK   13  A    between atoms: C31_46  and  O6_47 
ROOT
HETATM    1  C5  UNL     1      -5.861  17.246  23.686  1.00  0.00     0.159 C 
HETATM    2  N1  UNL     1      -5.346  16.196  24.480  1.00  0.00    -0.347 N 
ATOM      3  H1  UNL     1      -4.961  15.409  23.958  1.00  0.00     0.163 HD
HETATM    4  C6  UNL     1      -5.282  16.068  25.880  1.00  0.00     0.240 C 
HETATM    5  O1  UNL     1      -4.638  15.063  26.359  1.00  0.00    -0.271 OA
HETATM    6  C7  UNL     1      -5.862  16.942  26.904  1.00  0.00     0.171 C 
HETATM    7  C8  UNL     1      -4.659  17.800  27.389  1.00  0.00     0.042 C 
HETATM    8  N2  UNL     1      -6.354  16.313  28.087  1.00  0.00    -0.357 N 
ATOM      9  H2  UNL     1      -5.659  15.763  28.592  1.00  0.00     0.162 HD
HETATM   10  C9  UNL     1      -7.638  16.319  28.682  1.00  0.00     0.147 C 
HETATM   11  C10 UNL     1      -8.935  16.046  28.047  1.00  0.00     0.023 C 
HETATM   12  C14 UNL     1      -9.774  14.969  28.621  1.00  0.00    -0.040 C 
HETATM   13  C25 UNL     1     -10.415  14.119  27.796  1.00  0.00     0.008 C 
HETATM   14  C26 UNL     1     -10.412  14.075  26.317  1.00  0.00    -0.001 C 
HETATM   15  C27 UNL     1      -9.570  13.864  25.401  1.00  0.00     0.005 C 
HETATM   16  C28 UNL     1      -9.449  13.802  23.911  1.00  0.00     0.149 C 
HETATM   17  C29 UNL     1      -8.075  14.509  23.701  1.00  0.00     0.138 C 
HETATM   18  C30 UNL     1      -7.613  14.592  22.344  1.00  0.00     0.226 C 
HETATM   19  O5  UNL     1      -7.994  13.653  21.561  1.00  0.00    -0.273 OA
HETATM   20  N4  UNL     1      -6.776  15.637  21.843  1.00  0.00    -0.309 N 
ATOM     21  H4  UNL     1      -6.333  15.441  20.944  1.00  0.00     0.170 HD
HETATM   22  C31 UNL     1      -6.474  16.874  22.387  1.00  0.00     0.141 C 
ENDROOT
BRANCH  12  23
HETATM   23  C15 UNL     1      -9.792  14.730  30.130  1.00  0.00     0.015 C 
HETATM   24  C16 UNL     1     -11.182  14.303  30.550  1.00  0.00     0.015 C 
BRANCH  23  25
HETATM   25  C17 UNL     1      -8.902  13.567  30.511  1.00  0.00     0.009 C 
BRANCH  25  26
HETATM   26  C18 UNL     1      -7.905  13.736  31.542  1.00  0.00     0.001 C 
BRANCH  26  27
HETATM   27  C19 UNL     1      -8.102  13.735  32.980  1.00  0.00     0.009 C 
BRANCH  27  28
HETATM   28  C20 UNL     1      -8.823  14.908  33.592  1.00  0.00     0.103 C 
BRANCH  28  29
HETATM   29  C21 UNL     1     -10.204  14.448  33.956  1.00  0.00     0.217 C 
HETATM   30  O3  UNL     1     -11.114  15.277  34.267  1.00  0.00    -0.274 OA
HETATM   31  N3  UNL     1     -10.541  13.071  33.965  1.00  0.00    -0.357 N 
ATOM     32  H3  UNL     1      -9.829  12.385  33.718  1.00  0.00     0.162 HD
BRANCH  31  33
HETATM   33  C22 UNL     1     -11.866  12.613  34.316  1.00  0.00     0.076 C 
HETATM   34  C23 UNL     1     -12.678  12.240  33.114  1.00  0.00     0.032 C 
HETATM   35  C24 UNL     1     -11.788  11.446  35.276  1.00  0.00     0.032 C 
ENDBRANCH  31  33
ENDBRANCH  28  29
ENDBRANCH  27  28
ENDBRANCH  26  27
ENDBRANCH  25  26
ENDBRANCH  23  25
ENDBRANCH  12  23
BRANCH  11  36
HETATM   36  C11 UNL     1      -9.518  17.283  27.528  1.00  0.00    -0.073 C 
HETATM   37  C12 UNL     1      -9.224  17.742  26.151  1.00  0.00     0.044 C 
HETATM   38  C13 UNL     1     -10.946  17.616  27.867  1.00  0.00     0.044 C 
ENDBRANCH  11  36
BRANCH  10  39
HETATM   39  O2  UNL     1      -7.622  16.607  29.951  1.00  0.00    -0.346 OA
ATOM     40  H2  UNL     1      -7.914  15.894  30.506  1.00  0.00     0.219 HD
ENDBRANCH  10  39
BRANCH  16  41
HETATM   41  O4  UNL     1     -10.329  14.436  23.115  1.00  0.00    -0.391 OA
ATOM     42  H4  UNL     1     -10.612  14.054  22.293  1.00  0.00     0.210 HD
ENDBRANCH  16  41
BRANCH   1  43
HETATM   43  C4  UNL     1      -4.952  18.441  23.562  1.00  0.00     0.037 C 
BRANCH  43  44
HETATM   44  C2  UNL     1      -3.532  18.239  23.329  1.00  0.00    -0.020 C 
HETATM   45  C1  UNL     1      -2.638  18.100  24.515  1.00  0.00     0.009 C 
HETATM   46  C3  UNL     1      -3.212  17.110  22.373  1.00  0.00     0.009 C 
ENDBRANCH  43  44
ENDBRANCH   1  43
BRANCH  22  47
HETATM   47  O6  UNL     1      -6.748  17.946  21.689  1.00  0.00    -0.348 OA
ATOM     48  H6  UNL     1      -7.556  18.342  21.994  1.00  0.00     0.219 HD
ENDBRANCH  22  47
TORSDOF 13
ENDMDL
MODEL 3
REMARK VINA RESULT: -7.432935340      2.560      4.430
REMARK  13 active torsions:
REMARK  status: ('A' for Active; 'I' for Inactive)
REMARK    1  A    between atoms: C2_2  and  C4_4 
REMARK    2  A    between atoms: C4_4  and  C5_5 
REMARK    3  A    between atoms: C9_14  and  O2_15 
REMARK    4  A    between atoms: C10_17  and  C11_18 
REMARK    5  A    between atoms: C14_21  and  C15_22 
REMARK    6  A    between atoms: C15_22  and  C17_24 
REMARK    7  A    between atoms: C17_24  and  C18_25 
REMARK    8  A    between atoms: C18_25  and  C19_26 
REMARK    9  A    between atoms: C19_26  and  C20_27 
REMARK   10  A    between atoms: C20_27  and  C21_28 
REMARK       I    between atoms: C21_28  and  N3_30 
REMARK   11  A    between atoms: N3_30  and  C22_32 
REMARK   12  A    between atoms: C28_38  and  O4_39 
REMARK   13  A    between atoms: C31_46  and  O6_47 
ROOT
HETATM    1  C5  UNL     1      -6.306  16.261  24.378  1.00  0.00     0.159 C 
HETATM    2  N1  UNL     1      -5.902  17.603  24.189  1.00  0.00    -0.347 N 
ATOM      3  H1  UNL     1      -6.633  18.230  23.853  1.00  0.00     0.163 HD
HETATM    4  C6  UNL     1      -4.648  18.207  24.392  1.00  0.00     0.240 C 
HETATM    5  O1  UNL     1      -4.574  19.486  24.273  1.00  0.00    -0.271 OA
HETATM    6  C7  UNL     1      -3.372  17.570  24.733  1.00  0.00     0.171 C 
HETATM    7  C8  UNL     1      -3.224  17.818  26.261  1.00  0.00     0.042 C 
HETATM    8  N2  UNL     1      -2.194  18.139  24.161  1.00  0.00    -0.357 N 
ATOM      9  H2  UNL     1      -2.049  19.124  24.386  1.00  0.00     0.162 HD
HETATM   10  C9  UNL     1      -1.191  17.576  23.337  1.00  0.00     0.147 C 
HETATM   11  C10 UNL     1      -1.361  16.794  22.105  1.00  0.00     0.023 C 
HETATM   12  C14 UNL     1      -0.688  17.280  20.878  1.00  0.00    -0.040 C 
HETATM   13  C25 UNL     1      -1.346  17.244  19.703  1.00  0.00     0.008 C 
HETATM   14  C26 UNL     1      -2.722  16.778  19.420  1.00  0.00    -0.001 C 
HETATM   15  C27 UNL     1      -3.896  17.121  19.731  1.00  0.00     0.005 C 
HETATM   16  C28 UNL     1      -5.326  16.735  19.520  1.00  0.00     0.149 C 
HETATM   17  C29 UNL     1      -5.902  16.960  20.951  1.00  0.00     0.138 C 
HETATM   18  C30 UNL     1      -7.309  16.714  21.106  1.00  0.00     0.226 C 
HETATM   19  O5  UNL     1      -8.033  16.911  20.068  1.00  0.00    -0.273 OA
HETATM   20  N4  UNL     1      -7.918  16.274  22.322  1.00  0.00    -0.309 N 
ATOM     21  H4  UNL     1      -8.933  16.377  22.357  1.00  0.00     0.170 HD
HETATM   22  C31 UNL     1      -7.345  15.731  23.460  1.00  0.00     0.141 C 
ENDROOT
BRANCH  12  23
HETATM   23  C15 UNL     1       0.681  17.954  20.967  1.00  0.00     0.015 C 
HETATM   24  C16 UNL     1       1.621  17.305  19.974  1.00  0.00     0.015 C 
BRANCH  23  25
HETATM   25  C17 UNL     1       0.607  19.403  20.536  1.00  0.00     0.009 C 
BRANCH  25  26
HETATM   26  C18 UNL     1       1.140  19.796  19.255  1.00  0.00     0.001 C 
BRANCH  26  27
HETATM   27  C19 UNL     1       0.418  20.333  18.116  1.00  0.00     0.009 C 
BRANCH  27  28
HETATM   28  C20 UNL     1      -1.071  20.521  18.250  1.00  0.00     0.103 C 
BRANCH  28  29
HETATM   29  C21 UNL     1      -1.712  19.938  17.025  1.00  0.00     0.217 C 
HETATM   30  O3  UNL     1      -1.071  19.830  15.934  1.00  0.00    -0.274 OA
HETATM   31  N3  UNL     1      -3.055  19.486  17.043  1.00  0.00    -0.357 N 
ATOM     32  H3  UNL     1      -3.592  19.560  17.908  1.00  0.00     0.162 HD
BRANCH  31  33
HETATM   33  C22 UNL     1      -3.687  18.924  15.871  1.00  0.00     0.076 C 
HETATM   34  C23 UNL     1      -3.981  17.464  16.025  1.00  0.00     0.032 C 
HETATM   35  C24 UNL     1      -4.954  19.680  15.536  1.00  0.00     0.032 C 
ENDBRANCH  31  33
ENDBRANCH  28  29
ENDBRANCH  27  28
ENDBRANCH  26  27
ENDBRANCH  25  26
ENDBRANCH  23  25
ENDBRANCH  12  23
BRANCH  11  36
HETATM   36  C11 UNL     1      -1.460  15.368  22.416  1.00  0.00    -0.073 C 
HETATM   37  C12 UNL     1      -0.755  14.360  21.592  1.00  0.00     0.044 C 
HETATM   38  C13 UNL     1      -1.439  14.932  23.858  1.00  0.00     0.044 C 
ENDBRANCH  11  36
BRANCH  10  39
HETATM   39  O2  UNL     1       0.019  17.803  23.761  1.00  0.00    -0.346 OA
ATOM     40  H2  UNL     1       0.252  17.297  24.530  1.00  0.00     0.219 HD
ENDBRANCH  10  39
BRANCH  16  41
HETATM   41  O4  UNL     1      -5.662  15.481  19.166  1.00  0.00    -0.391 OA
ATOM     42  H4  UNL     1      -5.982  15.286  18.293  1.00  0.00     0.210 HD
ENDBRANCH  16  41
BRANCH   1  43
HETATM   43  C4  UNL     1      -6.571  15.881  25.812  1.00  0.00     0.037 C 
BRANCH  43  44
HETATM   44  C2  UNL     1      -7.123  16.870  26.723  1.00  0.00    -0.020 C 
HETATM   45  C1  UNL     1      -8.560  17.238  26.575  1.00  0.00     0.009 C 
HETATM   46  C3  UNL     1      -6.867  16.580  28.186  1.00  0.00     0.009 C 
ENDBRANCH  43  44
ENDBRANCH   1  43
BRANCH  22  47
HETATM   47  O6  UNL     1      -7.741  14.549  23.854  1.00  0.00    -0.348 OA
ATOM     48  H6  UNL     1      -7.961  14.007  23.106  1.00  0.00     0.219 HD
ENDBRANCH  22  47
TORSDOF 13
ENDMDL
MODEL 4
REMARK VINA RESULT: -7.412599614      2.526      3.841
REMARK  13 active torsions:
REMARK  status: ('A' for Active; 'I' for Inactive)
REMARK    1  A    between atoms: C2_2  and  C4_4 
REMARK    2  A    between atoms: C4_4  and  C5_5 
REMARK    3  A    between atoms: C9_14  and  O2_15 
REMARK    4  A    between atoms: C10_17  and  C11_18 
REMARK    5  A    between atoms: C14_21  and  C15_22 
REMARK    6  A    between atoms: C15_22  and  C17_24 
REMARK    7  A    between atoms: C17_24  and  C18_25 
REMARK    8  A    between atoms: C18_25  and  C19_26 
REMARK    9  A    between atoms: C19_26  and  C20_27 
REMARK   10  A    between atoms: C20_27  and  C21_28 
REMARK       I    between atoms: C21_28  and  N3_30 
REMARK   11  A    between atoms: N3_30  and  C22_32 
REMARK   12  A    between atoms: C28_38  and  O4_39 
REMARK   13  A    between atoms: C31_46  and  O6_47 
ROOT
HETATM    1  C5  UNL     1      -6.309  16.240  24.393  1.00  0.00     0.159 C 
HETATM    2  N1  UNL     1      -5.903  17.582  24.215  1.00  0.00    -0.347 N 
ATOM      3  H1  UNL     1      -6.633  18.213  23.884  1.00  0.00     0.163 HD
HETATM    4  C6  UNL     1      -4.649  18.184  24.425  1.00  0.00     0.240 C 
HETATM    5  O1  UNL     1      -4.573  19.463  24.316  1.00  0.00    -0.271 OA
HETATM    6  C7  UNL     1      -3.374  17.542  24.761  1.00  0.00     0.171 C 
HETATM    7  C8  UNL     1      -3.227  17.778  26.291  1.00  0.00     0.042 C 
HETATM    8  N2  UNL     1      -2.194  18.115  24.195  1.00  0.00    -0.357 N 
ATOM      9  H2  UNL     1      -2.049  19.097  24.428  1.00  0.00     0.162 HD
HETATM   10  C9  UNL     1      -1.191  17.557  23.368  1.00  0.00     0.147 C 
HETATM   11  C10 UNL     1      -1.361  16.785  22.129  1.00  0.00     0.023 C 
HETATM   12  C14 UNL     1      -0.686  17.279  20.907  1.00  0.00    -0.040 C 
HETATM   13  C25 UNL     1      -1.343  17.253  19.731  1.00  0.00     0.008 C 
HETATM   14  C26 UNL     1      -2.720  16.791  19.443  1.00  0.00    -0.001 C 
HETATM   15  C27 UNL     1      -3.894  17.134  19.756  1.00  0.00     0.005 C 
HETATM   16  C28 UNL     1      -5.323  16.750  19.540  1.00  0.00     0.149 C 
HETATM   17  C29 UNL     1      -5.901  16.965  20.972  1.00  0.00     0.138 C 
HETATM   18  C30 UNL     1      -7.308  16.719  21.124  1.00  0.00     0.226 C 
HETATM   19  O5  UNL     1      -8.031  16.925  20.088  1.00  0.00    -0.273 OA
HETATM   20  N4  UNL     1      -7.919  16.271  22.336  1.00  0.00    -0.309 N 
ATOM     21  H4  UNL     1      -8.934  16.374  22.371  1.00  0.00     0.170 HD
HETATM   22  C31 UNL     1      -7.348  15.718  23.470  1.00  0.00     0.141 C 
ENDROOT
BRANCH  12  23
HETATM   23  C15 UNL     1       0.683  17.951  21.002  1.00  0.00     0.015 C 
HETATM   24  C16 UNL     1       1.587  17.395  19.923  1.00  0.00     0.015 C 
BRANCH  23  25
HETATM   25  C17 UNL     1       0.589  19.431  20.700  1.00  0.00     0.009 C 
BRANCH  25  26
HETATM   26  C18 UNL     1       0.977  19.922  19.400  1.00  0.00     0.001 C 
BRANCH  26  27
HETATM   27  C19 UNL     1       0.226  20.796  18.517  1.00  0.00     0.009 C 
BRANCH  27  28
HETATM   28  C20 UNL     1      -1.143  20.345  18.077  1.00  0.00     0.103 C 
BRANCH  28  29
HETATM   29  C21 UNL     1      -2.036  21.551  18.075  1.00  0.00     0.217 C 
HETATM   30  O3  UNL     1      -1.973  22.419  18.999  1.00  0.00    -0.274 OA
HETATM   31  N3  UNL     1      -2.982  21.763  17.041  1.00  0.00    -0.357 N 
ATOM     32  H3  UNL     1      -3.052  21.081  16.286  1.00  0.00     0.162 HD
BRANCH  31  33
HETATM   33  C22 UNL     1      -3.850  22.918  17.027  1.00  0.00     0.076 C 
HETATM   34  C23 UNL     1      -3.204  24.111  16.394  1.00  0.00     0.032 C 
HETATM   35  C24 UNL     1      -5.152  22.596  16.326  1.00  0.00     0.032 C 
ENDBRANCH  31  33
ENDBRANCH  28  29
ENDBRANCH  27  28
ENDBRANCH  26  27
ENDBRANCH  25  26
ENDBRANCH  23  25
ENDBRANCH  12  23
BRANCH  11  36
HETATM   36  C11 UNL     1      -1.462  15.356  22.429  1.00  0.00    -0.073 C 
HETATM   37  C12 UNL     1      -0.744  14.355  21.608  1.00  0.00     0.044 C 
HETATM   38  C13 UNL     1      -1.461  14.910  23.868  1.00  0.00     0.044 C 
ENDBRANCH  11  36
BRANCH  10  39
HETATM   39  O2  UNL     1       0.018  17.779  23.794  1.00  0.00    -0.346 OA
ATOM     40  H2  UNL     1       0.671  17.216  23.394  1.00  0.00     0.219 HD
ENDBRANCH  10  39
BRANCH  16  41
HETATM   41  O4  UNL     1      -5.660  15.500  19.176  1.00  0.00    -0.391 OA
ATOM     42  H4  UNL     1      -6.333  15.017  19.642  1.00  0.00     0.210 HD
ENDBRANCH  16  41
BRANCH   1  43
HETATM   43  C4  UNL     1      -6.575  15.849  25.824  1.00  0.00     0.037 C 
BRANCH  43  44
HETATM   44  C2  UNL     1      -7.108  16.837  26.747  1.00  0.00    -0.020 C 
HETATM   45  C1  UNL     1      -8.545  17.215  26.623  1.00  0.00     0.009 C 
HETATM   46  C3  UNL     1      -6.833  16.538  28.206  1.00  0.00     0.009 C 
ENDBRANCH  43  44
ENDBRANCH   1  43
BRANCH  22  47
HETATM   47  O6  UNL     1      -7.746  14.534  23.855  1.00  0.00    -0.348 OA
ATOM     48  H6  UNL     1      -7.207  14.220  24.572  1.00  0.00     0.219 HD
ENDBRANCH  22  47
TORSDOF 13
ENDMDL
MODEL 5
REMARK VINA RESULT: -7.293316298      4.628     11.100
REMARK  13 active torsions:
REMARK  status: ('A' for Active; 'I' for Inactive)
REMARK    1  A    between atoms: C2_2  and  C4_4 
REMARK    2  A    between atoms: C4_4  and  C5_5 
REMARK    3  A    between atoms: C9_14  and  O2_15 
REMARK    4  A    between atoms: C10_17  and  C11_18 
REMARK    5  A    between atoms: C14_21  and  C15_22 
REMARK    6  A    between atoms: C15_22  and  C17_24 
REMARK    7  A    between atoms: C17_24  and  C18_25 
REMARK    8  A    between atoms: C18_25  and  C19_26 
REMARK    9  A    between atoms: C19_26  and  C20_27 
REMARK   10  A    between atoms: C20_27  and  C21_28 
REMARK       I    between atoms: C21_28  and  N3_30 
REMARK   11  A    between atoms: N3_30  and  C22_32 
REMARK   12  A    between atoms: C28_38  and  O4_39 
REMARK   13  A    between atoms: C31_46  and  O6_47 
ROOT
HETATM    1  C5  UNL     1      -5.413  17.876  24.013  1.00  0.00     0.159 C 
HETATM    2  N1  UNL     1      -5.116  16.534  24.344  1.00  0.00    -0.347 N 
ATOM      3  H1  UNL     1      -4.579  16.026  23.642  1.00  0.00     0.163 HD
HETATM    4  C6  UNL     1      -5.446  15.791  25.492  1.00  0.00     0.240 C 
HETATM    5  O1  UNL     1      -4.937  14.616  25.610  1.00  0.00    -0.271 OA
HETATM    6  C7  UNL     1      -6.313  16.175  26.610  1.00  0.00     0.171 C 
HETATM    7  C8  UNL     1      -5.319  16.594  27.730  1.00  0.00     0.042 C 
HETATM    8  N2  UNL     1      -7.103  15.141  27.199  1.00  0.00    -0.357 N 
ATOM      9  H2  UNL     1      -6.564  14.353  27.560  1.00  0.00     0.162 HD
HETATM   10  C9  UNL     1      -8.502  15.018  27.370  1.00  0.00     0.147 C 
HETATM   11  C10 UNL     1      -9.559  15.196  26.366  1.00  0.00     0.023 C 
HETATM   12  C14 UNL     1     -10.497  14.072  26.141  1.00  0.00    -0.040 C 
HETATM   13  C25 UNL     1     -10.857  13.751  24.884  1.00  0.00     0.008 C 
HETATM   14  C26 UNL     1     -10.436  14.369  23.607  1.00  0.00    -0.001 C 
HETATM   15  C27 UNL     1      -9.364  14.500  22.953  1.00  0.00     0.005 C 
HETATM   16  C28 UNL     1      -8.827  15.095  21.690  1.00  0.00     0.149 C 
HETATM   17  C29 UNL     1      -7.469  15.671  22.195  1.00  0.00     0.138 C 
HETATM   18  C30 UNL     1      -6.645  16.299  21.200  1.00  0.00     0.226 C 
HETATM   19  O5  UNL     1      -6.765  15.853  20.007  1.00  0.00    -0.273 OA
HETATM   20  N4  UNL     1      -5.729  17.362  21.471  1.00  0.00    -0.309 N 
ATOM     21  H4  UNL     1      -5.046  17.541  20.734  1.00  0.00     0.170 HD
HETATM   22  C31 UNL     1      -5.625  18.189  22.578  1.00  0.00     0.141 C 
ENDROOT
BRANCH  12  23
HETATM   23  C15 UNL     1     -10.934  13.189  27.310  1.00  0.00     0.015 C 
HETATM   24  C16 UNL     1     -12.035  13.889  28.078  1.00  0.00     0.015 C 
BRANCH  23  25
HETATM   25  C17 UNL     1     -11.562  11.903  26.821  1.00  0.00     0.009 C 
BRANCH  25  26
HETATM   26  C18 UNL     1     -12.484  11.188  27.671  1.00  0.00     0.001 C 
BRANCH  26  27
HETATM   27  C19 UNL     1     -12.208  10.548  28.944  1.00  0.00     0.009 C 
BRANCH  27  28
HETATM   28  C20 UNL     1     -13.309  10.523  29.972  1.00  0.00     0.103 C 
BRANCH  28  29
HETATM   29  C21 UNL     1     -13.303  11.851  30.671  1.00  0.00     0.217 C 
HETATM   30  O3  UNL     1     -14.299  12.636  30.604  1.00  0.00    -0.274 OA
HETATM   31  N3  UNL     1     -12.184  12.277  31.431  1.00  0.00    -0.357 N 
ATOM     32  H3  UNL     1     -11.372  11.664  31.502  1.00  0.00     0.162 HD
BRANCH  31  33
HETATM   33  C22 UNL     1     -12.163  13.554  32.107  1.00  0.00     0.076 C 
HETATM   34  C23 UNL     1     -11.979  13.413  33.586  1.00  0.00     0.032 C 
HETATM   35  C24 UNL     1     -11.084  14.443  31.529  1.00  0.00     0.032 C 
ENDBRANCH  31  33
ENDBRANCH  28  29
ENDBRANCH  27  28
ENDBRANCH  26  27
ENDBRANCH  25  26
ENDBRANCH  23  25
ENDBRANCH  12  23
BRANCH  11  36
HETATM   36  C11 UNL     1     -10.005  16.589  26.336  1.00  0.00    -0.073 C 
HETATM   37  C12 UNL     1     -10.440  17.273  27.575  1.00  0.00     0.044 C 
HETATM   38  C13 UNL     1      -9.275  17.571  25.457  1.00  0.00     0.044 C 
ENDBRANCH  11  36
BRANCH  10  39
HETATM   39  O2  UNL     1      -8.852  14.709  28.585  1.00  0.00    -0.346 OA
ATOM     40  H2  UNL     1      -9.408  13.940  28.635  1.00  0.00     0.219 HD
ENDBRANCH  10  39
BRANCH  16  41
HETATM   41  O4  UNL     1      -9.463  16.106  21.072  1.00  0.00    -0.391 OA
ATOM     42  H4  UNL     1      -9.223  17.011  21.235  1.00  0.00     0.210 HD
ENDBRANCH  16  41
BRANCH   1  43
HETATM   43  C4  UNL     1      -4.539  18.898  24.692  1.00  0.00     0.037 C 
BRANCH  43  44
HETATM   44  C2  UNL     1      -3.141  18.590  24.941  1.00  0.00    -0.020 C 
HETATM   45  C1  UNL     1      -2.803  17.778  26.146  1.00  0.00     0.009 C 
HETATM   46  C3  UNL     1      -2.415  17.985  23.758  1.00  0.00     0.009 C 
ENDBRANCH  43  44
ENDBRANCH   1  43
BRANCH  22  47
HETATM   47  O6  UNL     1      -5.720  19.481  22.402  1.00  0.00    -0.348 OA
ATOM     48  H6  UNL     1      -4.864  19.855  22.231  1.00  0.00     0.219 HD
ENDBRANCH  22  47
TORSDOF 13
ENDMDL
