MODEL 1
REMARK VINA RESULT: -9.540288985      0.000      0.000
REMARK  9 active torsions:
REMARK  status: ('A' for Active; 'I' for Inactive)
REMARK    1  A    between atoms: C2_2  and  C3_3 
REMARK    2  A    between atoms: C6_6  and  C7_7 
REMARK    3  A    between atoms: C7_7  and  C8_8 
REMARK    4  A    between atoms: C10_13  and  C11_14 
REMARK    5  A    between atoms: C11_14  and  C12_15 
REMARK    6  A    between atoms: C15_18  and  O2_19 
REMARK    7  A    between atoms: C20_27  and  C22_29 
REMARK    8  A    between atoms: C25_35  and  C26_36 
REMARK    9  A    between atoms: C26_36  and  C28_38 
ROOT
HETATM    1  C8  UNL     1      -9.464  13.889  26.301  1.00  0.00     0.180 C 
HETATM    2  N1  UNL     1     -10.435  14.874  26.563  1.00  0.00    -0.346 N 
ATOM      3  H1  UNL     1     -10.370  15.721  25.998  1.00  0.00     0.163 HD
HETATM    4  C9  UNL     1     -11.491  14.845  27.509  1.00  0.00     0.241 C 
HETATM    5  O1  UNL     1     -12.384  15.762  27.487  1.00  0.00    -0.271 OA
HETATM    6  C10 UNL     1     -11.652  13.809  28.557  1.00  0.00     0.180 C 
HETATM    7  N2  UNL     1     -12.092  14.425  29.802  1.00  0.00    -0.345 N 
ATOM      8  H2  UNL     1     -12.983  14.920  29.777  1.00  0.00     0.163 HD
HETATM    9  C19 UNL     1     -11.414  14.409  31.040  1.00  0.00     0.246 C 
HETATM   10  O3  UNL     1     -12.098  14.011  32.035  1.00  0.00    -0.271 OA
HETATM   11  C20 UNL     1     -10.010  14.804  31.288  1.00  0.00     0.110 C 
HETATM   12  C21 UNL     1      -9.972  15.199  32.805  1.00  0.00     0.049 C 
HETATM   13  N3  UNL     1      -9.600  16.004  30.596  1.00  0.00    -0.342 N 
ATOM     14  H3  UNL     1     -10.270  16.767  30.709  1.00  0.00     0.163 HD
HETATM   15  C24 UNL     1      -8.519  16.362  29.821  1.00  0.00     0.241 C 
HETATM   16  O4  UNL     1      -7.666  17.142  30.413  1.00  0.00    -0.271 OA
HETATM   17  C25 UNL     1      -8.106  16.055  28.444  1.00  0.00     0.180 C 
HETATM   18  N4  UNL     1      -7.827  14.701  28.137  1.00  0.00    -0.346 N 
ATOM     19  H4  UNL     1      -7.204  14.244  28.803  1.00  0.00     0.163 HD
HETATM   20  C30 UNL     1      -8.244  13.879  27.102  1.00  0.00     0.241 C 
HETATM   21  O5  UNL     1      -7.426  12.927  26.768  1.00  0.00    -0.271 OA
ENDROOT
BRANCH   1  22
HETATM   22  C7  UNL     1      -9.076  13.737  24.844  1.00  0.00     0.073 C 
BRANCH  22  23
HETATM   23  C6  UNL     1      -8.318  14.849  24.276  1.00  0.00    -0.056 A 
HETATM   24  C5  UNL     1      -8.834  15.828  23.454  1.00  0.00     0.007 A 
HETATM   25  C4  UNL     1      -8.076  16.860  22.953  1.00  0.00     0.007 A 
HETATM   26  C3  UNL     1      -6.743  16.958  23.261  1.00  0.00    -0.059 A 
HETATM   27  C32 UNL     1      -6.184  16.014  24.072  1.00  0.00     0.007 A 
HETATM   28  C31 UNL     1      -6.958  14.987  24.564  1.00  0.00     0.007 A 
BRANCH  26  29
HETATM   29  C2  UNL     1      -5.887  18.072  22.732  1.00  0.00     0.034 C 
HETATM   30  C1  UNL     1      -4.879  18.407  23.816  1.00  0.00     0.010 C 
ENDBRANCH  26  29
ENDBRANCH  22  23
ENDBRANCH   1  22
BRANCH   6  31
HETATM   31  C11 UNL     1     -12.639  12.777  28.073  1.00  0.00     0.073 C 
BRANCH  31  32
HETATM   32  C12 UNL     1     -12.945  11.697  29.001  1.00  0.00    -0.056 A 
HETATM   33  C13 UNL     1     -12.032  10.694  29.215  1.00  0.00     0.010 A 
HETATM   34  C14 UNL     1     -12.298   9.667  30.058  1.00  0.00     0.037 A 
HETATM   35  C15 UNL     1     -13.487   9.596  30.726  1.00  0.00     0.068 A 
HETATM   36  C17 UNL     1     -14.427  10.586  30.535  1.00  0.00     0.037 A 
HETATM   37  C18 UNL     1     -14.146  11.639  29.666  1.00  0.00     0.010 A 
BRANCH  35  38
HETATM   38  O2  UNL     1     -13.768   8.527  31.607  1.00  0.00    -0.356 OA
HETATM   39  C16 UNL     1     -12.744   7.976  32.410  1.00  0.00     0.210 C 
ENDBRANCH  35  38
ENDBRANCH  31  32
ENDBRANCH   6  31
BRANCH  17  40
HETATM   40  C26 UNL     1      -6.839  16.842  28.062  1.00  0.00     0.013 C 
HETATM   41  C27 UNL     1      -7.060  17.817  26.968  1.00  0.00     0.012 C 
BRANCH  40  42
HETATM   42  C28 UNL     1      -5.636  15.950  27.908  1.00  0.00     0.002 C 
HETATM   43  C29 UNL     1      -4.466  16.685  27.295  1.00  0.00     0.005 C 
ENDBRANCH  40  42
ENDBRANCH  17  40
BRANCH  11  44
HETATM   44  C22 UNL     1      -9.058  13.657  31.257  1.00  0.00     0.036 C 
HETATM   45  C23 UNL     1      -8.052  13.820  32.410  1.00  0.00     0.008 C 
ENDBRANCH  11  44
TORSDOF 9
ENDMDL
MODEL 2
REMARK VINA RESULT: -9.538859600      2.898      9.467
REMARK  9 active torsions:
REMARK  status: ('A' for Active; 'I' for Inactive)
REMARK    1  A    between atoms: C2_2  and  C3_3 
REMARK    2  A    between atoms: C6_6  and  C7_7 
REMARK    3  A    between atoms: C7_7  and  C8_8 
REMARK    4  A    between atoms: C10_13  and  C11_14 
REMARK    5  A    between atoms: C11_14  and  C12_15 
REMARK    6  A    between atoms: C15_18  and  O2_19 
REMARK    7  A    between atoms: C20_27  and  C22_29 
REMARK    8  A    between atoms: C25_35  and  C26_36 
REMARK    9  A    between atoms: C26_36  and  C28_38 
ROOT
HETATM    1  C8  UNL     1      -7.239  15.173  27.914  1.00  0.00     0.180 C 
HETATM    2  N1  UNL     1      -7.618  16.509  27.679  1.00  0.00    -0.346 N 
ATOM      3  H1  UNL     1      -8.384  16.860  28.255  1.00  0.00     0.163 HD
HETATM    4  C9  UNL     1      -7.075  17.431  26.748  1.00  0.00     0.241 C 
HETATM    5  O1  UNL     1      -7.432  18.660  26.796  1.00  0.00    -0.271 OA
HETATM    6  C10 UNL     1      -6.100  17.080  25.689  1.00  0.00     0.180 C 
HETATM    7  N2  UNL     1      -6.425  17.791  24.459  1.00  0.00    -0.345 N 
ATOM      8  H2  UNL     1      -6.415  18.809  24.504  1.00  0.00     0.163 HD
HETATM    9  C19 UNL     1      -6.751  17.217  23.212  1.00  0.00     0.246 C 
HETATM   10  O3  UNL     1      -6.072  17.635  22.221  1.00  0.00    -0.271 OA
HETATM   11  C20 UNL     1      -7.789  16.197  22.949  1.00  0.00     0.110 C 
HETATM   12  C21 UNL     1      -8.159  16.388  21.437  1.00  0.00     0.049 C 
HETATM   13  N3  UNL     1      -9.032  16.420  23.650  1.00  0.00    -0.342 N 
ATOM     14  H3  UNL     1      -9.365  17.380  23.558  1.00  0.00     0.163 HD
HETATM   15  C24 UNL     1      -9.873  15.642  24.414  1.00  0.00     0.241 C 
HETATM   16  O4  UNL     1     -10.976  15.296  23.821  1.00  0.00    -0.271 OA
HETATM   17  C25 UNL     1      -9.803  15.103  25.782  1.00  0.00     0.180 C 
HETATM   18  N4  UNL     1      -8.762  14.187  26.065  1.00  0.00    -0.346 N 
ATOM     19  H4  UNL     1      -8.676  13.432  25.384  1.00  0.00     0.163 HD
HETATM   20  C30 UNL     1      -7.837  14.123  27.095  1.00  0.00     0.241 C 
HETATM   21  O5  UNL     1      -7.412  12.935  27.404  1.00  0.00    -0.271 OA
ENDROOT
BRANCH   1  22
HETATM   22  C7  UNL     1      -7.292  14.733  29.363  1.00  0.00     0.073 C 
BRANCH  22  23
HETATM   23  C6  UNL     1      -8.632  14.572  29.923  1.00  0.00    -0.056 A 
HETATM   24  C5  UNL     1      -9.514  13.564  29.599  1.00  0.00     0.007 A 
HETATM   25  C4  UNL     1     -10.764  13.454  30.164  1.00  0.00     0.007 A 
HETATM   26  C3  UNL     1     -11.189  14.365  31.096  1.00  0.00    -0.059 A 
HETATM   27  C32 UNL     1     -10.352  15.383  31.451  1.00  0.00     0.007 A 
HETATM   28  C31 UNL     1      -9.105  15.478  30.875  1.00  0.00     0.007 A 
BRANCH  26  29
HETATM   29  C2  UNL     1     -12.546  14.275  31.733  1.00  0.00     0.034 C 
HETATM   30  C1  UNL     1     -13.441  13.530  30.760  1.00  0.00     0.010 C 
ENDBRANCH  26  29
ENDBRANCH  22  23
ENDBRANCH   1  22
BRANCH   6  31
HETATM   31  C11 UNL     1      -4.713  17.419  26.173  1.00  0.00     0.073 C 
BRANCH  31  32
HETATM   32  C12 UNL     1      -3.626  17.155  25.241  1.00  0.00    -0.056 A 
HETATM   33  C13 UNL     1      -3.242  15.863  24.979  1.00  0.00     0.010 A 
HETATM   34  C14 UNL     1      -2.222  15.589  24.131  1.00  0.00     0.037 A 
HETATM   35  C15 UNL     1      -1.538  16.593  23.505  1.00  0.00     0.068 A 
HETATM   36  C17 UNL     1      -1.897  17.902  23.745  1.00  0.00     0.037 A 
HETATM   37  C18 UNL     1      -2.948  18.176  24.619  1.00  0.00     0.010 A 
BRANCH  35  38
HETATM   38  O2  UNL     1      -0.473  16.312  22.620  1.00  0.00    -0.356 OA
HETATM   39  C16 UNL     1       0.534  15.391  22.986  1.00  0.00     0.210 C 
ENDBRANCH  35  38
ENDBRANCH  31  32
ENDBRANCH   6  31
BRANCH  17  40
HETATM   40  C26 UNL     1     -11.112  14.383  26.156  1.00  0.00     0.013 C 
HETATM   41  C27 UNL     1     -11.852  15.043  27.257  1.00  0.00     0.012 C 
BRANCH  40  42
HETATM   42  C28 UNL     1     -10.927  12.895  26.293  1.00  0.00     0.002 C 
HETATM   43  C29 UNL     1     -12.139  12.233  26.906  1.00  0.00     0.005 C 
ENDBRANCH  40  42
ENDBRANCH  17  40
BRANCH  11  44
HETATM   44  C22 UNL     1      -7.262  14.802  22.950  1.00  0.00     0.036 C 
HETATM   45  C23 UNL     1      -7.895  14.035  21.775  1.00  0.00     0.008 C 
ENDBRANCH  11  44
TORSDOF 9
ENDMDL
MODEL 3
REMARK VINA RESULT: -8.821819624      2.323      4.850
REMARK  9 active torsions:
REMARK  status: ('A' for Active; 'I' for Inactive)
REMARK    1  A    between atoms: C2_2  and  C3_3 
REMARK    2  A    between atoms: C6_6  and  C7_7 
REMARK    3  A    between atoms: C7_7  and  C8_8 
REMARK    4  A    between atoms: C10_13  and  C11_14 
REMARK    5  A    between atoms: C11_14  and  C12_15 
REMARK    6  A    between atoms: C15_18  and  O2_19 
REMARK    7  A    between atoms: C20_27  and  C22_29 
REMARK    8  A    between atoms: C25_35  and  C26_36 
REMARK    9  A    between atoms: C26_36  and  C28_38 
ROOT
HETATM    1  C8  UNL     1      -9.140  16.249  28.998  1.00  0.00     0.180 C 
HETATM    2  N1  UNL     1      -8.648  14.992  29.403  1.00  0.00    -0.346 N 
ATOM      3  H1  UNL     1      -7.745  14.723  29.011  1.00  0.00     0.163 HD
HETATM    4  C9  UNL     1      -9.242  14.052  30.282  1.00  0.00     0.241 C 
HETATM    5  O1  UNL     1      -8.566  13.035  30.669  1.00  0.00    -0.271 OA
HETATM    6  C10 UNL     1     -10.625  14.148  30.806  1.00  0.00     0.180 C 
HETATM    7  N2  UNL     1     -11.244  12.829  30.824  1.00  0.00    -0.345 N 
ATOM      8  H2  UNL     1     -10.789  12.120  31.399  1.00  0.00     0.163 HD
HETATM    9  C19 UNL     1     -12.405  12.429  30.130  1.00  0.00     0.246 C 
HETATM   10  O3  UNL     1     -13.307  11.880  30.839  1.00  0.00    -0.271 OA
HETATM   11  C20 UNL     1     -12.671  12.583  28.683  1.00  0.00     0.110 C 
HETATM   12  C21 UNL     1     -13.722  11.467  28.353  1.00  0.00     0.049 C 
HETATM   13  N3  UNL     1     -11.543  12.271  27.836  1.00  0.00    -0.342 N 
ATOM     14  H3  UNL     1     -11.103  11.384  28.083  1.00  0.00     0.163 HD
HETATM   15  C24 UNL     1     -10.921  12.889  26.774  1.00  0.00     0.241 C 
HETATM   16  O4  UNL     1     -11.161  12.348  25.618  1.00  0.00    -0.271 OA
HETATM   17  C25 UNL     1     -10.025  14.050  26.652  1.00  0.00     0.180 C 
HETATM   18  N4  UNL     1     -10.543  15.311  27.033  1.00  0.00    -0.346 N 
ATOM     19  H4  UNL     1     -11.454  15.525  26.628  1.00  0.00     0.163 HD
HETATM   20  C30 UNL     1     -10.042  16.310  27.853  1.00  0.00     0.241 C 
HETATM   21  O5  UNL     1     -10.427  17.520  27.575  1.00  0.00    -0.271 OA
ENDROOT
BRANCH   1  22
HETATM   22  C7  UNL     1      -8.091  17.330  28.836  1.00  0.00     0.073 C 
BRANCH  22  23
HETATM   23  C6  UNL     1      -7.045  17.049  27.855  1.00  0.00    -0.056 A 
HETATM   24  C5  UNL     1      -6.889  17.698  26.649  1.00  0.00     0.007 A 
HETATM   25  C4  UNL     1      -5.879  17.399  25.765  1.00  0.00     0.007 A 
HETATM   26  C3  UNL     1      -4.965  16.420  26.057  1.00  0.00    -0.059 A 
HETATM   27  C32 UNL     1      -5.076  15.747  27.239  1.00  0.00     0.007 A 
HETATM   28  C31 UNL     1      -6.093  16.059  28.113  1.00  0.00     0.007 A 
BRANCH  26  29
HETATM   29  C2  UNL     1      -3.850  16.068  25.115  1.00  0.00     0.034 C 
HETATM   30  C1  UNL     1      -2.869  17.226  25.140  1.00  0.00     0.010 C 
ENDBRANCH  26  29
ENDBRANCH  22  23
ENDBRANCH   1  22
BRANCH   6  31
HETATM   31  C11 UNL     1     -10.582  14.757  32.185  1.00  0.00     0.073 C 
BRANCH  31  32
HETATM   32  C12 UNL     1     -10.740  13.833  33.300  1.00  0.00    -0.056 A 
HETATM   33  C13 UNL     1      -9.633  13.330  33.938  1.00  0.00     0.010 A 
HETATM   34  C14 UNL     1      -9.749  12.455  34.966  1.00  0.00     0.037 A 
HETATM   35  C15 UNL     1     -10.976  12.042  35.403  1.00  0.00     0.068 A 
HETATM   36  C17 UNL     1     -12.108  12.528  34.785  1.00  0.00     0.037 A 
HETATM   37  C18 UNL     1     -11.981  13.428  33.729  1.00  0.00     0.010 A 
BRANCH  35  38
HETATM   38  O2  UNL     1     -11.102  11.130  36.475  1.00  0.00    -0.356 OA
HETATM   39  C16 UNL     1     -11.441   9.781  36.226  1.00  0.00     0.210 C 
ENDBRANCH  35  38
ENDBRANCH  31  32
ENDBRANCH   6  31
BRANCH  17  40
HETATM   40  C26 UNL     1      -9.537  14.216  25.201  1.00  0.00     0.013 C 
HETATM   41  C27 UNL     1      -8.069  14.388  25.091  1.00  0.00     0.012 C 
BRANCH  40  42
HETATM   42  C28 UNL     1     -10.370  15.202  24.426  1.00  0.00     0.002 C 
HETATM   43  C29 UNL     1     -10.393  14.880  22.950  1.00  0.00     0.005 C 
ENDBRANCH  40  42
ENDBRANCH  17  40
BRANCH  11  44
HETATM   44  C22 UNL     1     -13.436  13.819  28.350  1.00  0.00     0.036 C 
HETATM   45  C23 UNL     1     -14.512  13.466  27.307  1.00  0.00     0.008 C 
ENDBRANCH  11  44
TORSDOF 9
ENDMDL
MODEL 4
REMARK VINA RESULT: -8.604117475      2.531      7.014
REMARK  9 active torsions:
REMARK  status: ('A' for Active; 'I' for Inactive)
REMARK    1  A    between atoms: C2_2  and  C3_3 
REMARK    2  A    between atoms: C6_6  and  C7_7 
REMARK    3  A    between atoms: C7_7  and  C8_8 
REMARK    4  A    between atoms: C10_13  and  C11_14 
REMARK    5  A    between atoms: C11_14  and  C12_15 
REMARK    6  A    between atoms: C15_18  and  O2_19 
REMARK    7  A    between atoms: C20_27  and  C22_29 
REMARK    8  A    between atoms: C25_35  and  C26_36 
REMARK    9  A    between atoms: C26_36  and  C28_38 
ROOT
HETATM    1  C8  UNL     1      -9.737  14.776  25.741  1.00  0.00     0.180 C 
HETATM    2  N1  UNL     1      -9.975  16.129  25.433  1.00  0.00    -0.346 N 
ATOM      3  H1  UNL     1     -10.580  16.300  24.629  1.00  0.00     0.163 HD
HETATM    4  C9  UNL     1      -9.486  17.286  26.092  1.00  0.00     0.241 C 
HETATM    5  O1  UNL     1      -9.950  18.436  25.775  1.00  0.00    -0.271 OA
HETATM    6  C10 UNL     1      -8.449  17.274  27.150  1.00  0.00     0.180 C 
HETATM    7  N2  UNL     1      -7.540  18.398  26.968  1.00  0.00    -0.345 N 
ATOM      8  H2  UNL     1      -7.953  19.330  27.009  1.00  0.00     0.163 HD
HETATM    9  C19 UNL     1      -6.149  18.333  26.741  1.00  0.00     0.246 C 
HETATM   10  O3  UNL     1      -5.431  19.032  27.524  1.00  0.00    -0.271 OA
HETATM   11  C20 UNL     1      -5.456  17.546  25.698  1.00  0.00     0.110 C 
HETATM   12  C21 UNL     1      -4.093  18.291  25.479  1.00  0.00     0.049 C 
HETATM   13  N3  UNL     1      -6.095  17.585  24.402  1.00  0.00    -0.342 N 
ATOM     14  H3  UNL     1      -6.333  18.534  24.113  1.00  0.00     0.163 HD
HETATM   15  C24 UNL     1      -6.458  16.642  23.466  1.00  0.00     0.241 C 
HETATM   16  O4  UNL     1      -5.699  16.606  22.413  1.00  0.00    -0.271 OA
HETATM   17  C25 UNL     1      -7.538  15.646  23.389  1.00  0.00     0.180 C 
HETATM   18  N4  UNL     1      -7.547  14.622  24.366  1.00  0.00    -0.346 N 
ATOM     19  H4  UNL     1      -6.647  14.158  24.489  1.00  0.00     0.163 HD
HETATM   20  C30 UNL     1      -8.550  14.132  25.187  1.00  0.00     0.241 C 
HETATM   21  O5  UNL     1      -8.438  12.886  25.540  1.00  0.00    -0.271 OA
ENDROOT
BRANCH   1  22
HETATM   22  C7  UNL     1     -10.919  13.850  25.537  1.00  0.00     0.073 C 
BRANCH  22  23
HETATM   23  C6  UNL     1     -11.631  13.462  26.753  1.00  0.00    -0.056 A 
HETATM   24  C5  UNL     1     -12.435  14.293  27.504  1.00  0.00     0.007 A 
HETATM   25  C4  UNL     1     -13.091  13.873  28.638  1.00  0.00     0.007 A 
HETATM   26  C3  UNL     1     -12.968  12.580  29.075  1.00  0.00    -0.059 A 
HETATM   27  C32 UNL     1     -12.183  11.717  28.366  1.00  0.00     0.007 A 
HETATM   28  C31 UNL     1     -11.533  12.154  27.233  1.00  0.00     0.007 A 
BRANCH  26  29
HETATM   29  C2  UNL     1     -13.670  12.088  30.308  1.00  0.00     0.034 C 
HETATM   30  C1  UNL     1     -14.094  10.657  30.034  1.00  0.00     0.010 C 
ENDBRANCH  26  29
ENDBRANCH  22  23
ENDBRANCH   1  22
BRANCH   6  31
HETATM   31  C11 UNL     1      -9.126  17.324  28.496  1.00  0.00     0.073 C 
BRANCH  31  32
HETATM   32  C12 UNL     1      -8.727  16.301  29.454  1.00  0.00    -0.056 A 
HETATM   33  C13 UNL     1      -9.251  15.034  29.365  1.00  0.00     0.010 A 
HETATM   34  C14 UNL     1      -8.913  14.068  30.253  1.00  0.00     0.037 A 
HETATM   35  C15 UNL     1      -8.035  14.323  31.269  1.00  0.00     0.068 A 
HETATM   36  C17 UNL     1      -7.490  15.583  31.387  1.00  0.00     0.037 A 
HETATM   37  C18 UNL     1      -7.843  16.572  30.470  1.00  0.00     0.010 A 
BRANCH  35  38
HETATM   38  O2  UNL     1      -7.680  13.318  32.197  1.00  0.00    -0.356 OA
HETATM   39  C16 UNL     1      -8.460  13.110  33.356  1.00  0.00     0.210 C 
ENDBRANCH  35  38
ENDBRANCH  31  32
ENDBRANCH   6  31
BRANCH  17  40
HETATM   40  C26 UNL     1      -7.525  14.928  22.027  1.00  0.00     0.013 C 
HETATM   41  C27 UNL     1      -7.409  15.854  20.875  1.00  0.00     0.012 C 
BRANCH  40  42
HETATM   42  C28 UNL     1      -8.606  13.886  21.919  1.00  0.00     0.002 C 
HETATM   43  C29 UNL     1      -9.985  14.504  21.919  1.00  0.00     0.005 C 
ENDBRANCH  40  42
ENDBRANCH  17  40
BRANCH  11  44
HETATM   44  C22 UNL     1      -4.990  16.212  26.174  1.00  0.00     0.036 C 
HETATM   45  C23 UNL     1      -3.452  16.222  26.242  1.00  0.00     0.008 C 
ENDBRANCH  11  44
TORSDOF 9
ENDMDL
MODEL 5
REMARK VINA RESULT: -8.496102268      1.984      6.810
REMARK  9 active torsions:
REMARK  status: ('A' for Active; 'I' for Inactive)
REMARK    1  A    between atoms: C2_2  and  C3_3 
REMARK    2  A    between atoms: C6_6  and  C7_7 
REMARK    3  A    between atoms: C7_7  and  C8_8 
REMARK    4  A    between atoms: C10_13  and  C11_14 
REMARK    5  A    between atoms: C11_14  and  C12_15 
REMARK    6  A    between atoms: C15_18  and  O2_19 
REMARK    7  A    between atoms: C20_27  and  C22_29 
REMARK    8  A    between atoms: C25_35  and  C26_36 
REMARK    9  A    between atoms: C26_36  and  C28_38 
ROOT
HETATM    1  C8  UNL     1     -10.444  15.346  26.259  1.00  0.00     0.180 C 
HETATM    2  N1  UNL     1      -9.329  14.502  26.428  1.00  0.00    -0.346 N 
ATOM      3  H1  UNL     1      -9.298  13.683  25.820  1.00  0.00     0.163 HD
HETATM    4  C9  UNL     1      -8.244  14.640  27.331  1.00  0.00     0.241 C 
HETATM    5  O1  UNL     1      -7.231  13.865  27.222  1.00  0.00    -0.271 OA
HETATM    6  C10 UNL     1      -8.184  15.636  28.426  1.00  0.00     0.180 C 
HETATM    7  N2  UNL     1      -7.601  15.032  29.617  1.00  0.00    -0.345 N 
ATOM      8  H2  UNL     1      -6.650  14.675  29.528  1.00  0.00     0.163 HD
HETATM    9  C19 UNL     1      -8.214  14.889  30.880  1.00  0.00     0.246 C 
HETATM   10  O3  UNL     1      -7.548  15.335  31.867  1.00  0.00    -0.271 OA
HETATM   11  C20 UNL     1      -9.533  14.282  31.163  1.00  0.00     0.110 C 
HETATM   12  C21 UNL     1      -9.441  13.812  32.656  1.00  0.00     0.049 C 
HETATM   13  N3  UNL     1      -9.798  13.069  30.424  1.00  0.00    -0.342 N 
ATOM     14  H3  UNL     1      -9.021  12.408  30.467  1.00  0.00     0.163 HD
HETATM   15  C24 UNL     1     -10.852  12.594  29.675  1.00  0.00     0.241 C 
HETATM   16  O4  UNL     1     -11.555  11.670  30.257  1.00  0.00    -0.271 OA
HETATM   17  C25 UNL     1     -11.371  12.904  28.334  1.00  0.00     0.180 C 
HETATM   18  N4  UNL     1     -11.856  14.216  28.114  1.00  0.00    -0.346 N 
ATOM     19  H4  UNL     1     -12.506  14.543  28.828  1.00  0.00     0.163 HD
HETATM   20  C30 UNL     1     -11.612  15.138  27.108  1.00  0.00     0.241 C 
HETATM   21  O5  UNL     1     -12.575  15.976  26.860  1.00  0.00    -0.271 OA
ENDROOT
BRANCH   1  22
HETATM   22  C7  UNL     1     -10.919  15.509  24.830  1.00  0.00     0.073 C 
BRANCH  22  23
HETATM   23  C6  UNL     1      -9.883  15.388  23.806  1.00  0.00    -0.056 A 
HETATM   24  C5  UNL     1      -8.826  16.255  23.636  1.00  0.00     0.007 A 
HETATM   25  C4  UNL     1      -7.872  16.089  22.658  1.00  0.00     0.007 A 
HETATM   26  C3  UNL     1      -7.938  15.025  21.795  1.00  0.00    -0.059 A 
HETATM   27  C32 UNL     1      -8.966  14.137  21.923  1.00  0.00     0.007 A 
HETATM   28  C31 UNL     1      -9.913  14.319  22.906  1.00  0.00     0.007 A 
BRANCH  26  29
HETATM   29  C2  UNL     1      -6.914  14.813  20.719  1.00  0.00     0.034 C 
HETATM   30  C1  UNL     1      -6.177  16.128  20.544  1.00  0.00     0.010 C 
ENDBRANCH  26  29
ENDBRANCH  22  23
ENDBRANCH   1  22
BRANCH   6  31
HETATM   31  C11 UNL     1      -7.381  16.824  27.959  1.00  0.00     0.073 C 
BRANCH  31  32
HETATM   32  C12 UNL     1      -6.198  16.526  27.164  1.00  0.00    -0.056 A 
HETATM   33  C13 UNL     1      -5.027  16.159  27.782  1.00  0.00     0.010 A 
HETATM   34  C14 UNL     1      -3.907  15.894  27.068  1.00  0.00     0.037 A 
HETATM   35  C15 UNL     1      -3.904  15.984  25.704  1.00  0.00     0.068 A 
HETATM   36  C17 UNL     1      -5.061  16.350  25.052  1.00  0.00     0.037 A 
HETATM   37  C18 UNL     1      -6.210  16.620  25.793  1.00  0.00     0.010 A 
BRANCH  35  38
HETATM   38  O2  UNL     1      -2.737  15.709  24.956  1.00  0.00    -0.356 OA
HETATM   39  C16 UNL     1      -2.414  16.492  23.825  1.00  0.00     0.210 C 
ENDBRANCH  35  38
ENDBRANCH  31  32
ENDBRANCH   6  31
BRANCH  17  40
HETATM   40  C26 UNL     1     -12.528  11.959  27.961  1.00  0.00     0.013 C 
HETATM   41  C27 UNL     1     -12.220  11.079  26.809  1.00  0.00     0.012 C 
BRANCH  40  42
HETATM   42  C28 UNL     1     -13.853  12.672  27.902  1.00  0.00     0.002 C 
HETATM   43  C29 UNL     1     -14.599  12.580  29.213  1.00  0.00     0.005 C 
ENDBRANCH  40  42
ENDBRANCH  17  40
BRANCH  11  44
HETATM   44  C22 UNL     1     -10.641  15.277  31.233  1.00  0.00     0.036 C 
HETATM   45  C23 UNL     1     -11.634  14.832  32.322  1.00  0.00     0.008 C 
ENDBRANCH  11  44
TORSDOF 9
ENDMDL
