MODEL 1
REMARK VINA RESULT: -5.337395716      0.000      0.000
REMARK  1 active torsions:
REMARK  status: ('A' for Active; 'I' for Inactive)
REMARK    1  A    between atoms: C4_5  and  C5_6 
ROOT
HETATM    1  C1  UNL     1      51.605  22.234  28.045  1.00  0.00     0.309 C 
HETATM    2  N1  UNL     1      51.446  22.111  29.479  1.00  0.00     0.085 N 
HETATM    3  C2  UNL     1      52.719  21.731  30.110  1.00  0.00     0.272 C 
HETATM    4  C3  UNL     1      52.328  21.884  31.582  1.00  0.00     0.043 C 
HETATM    5  C4  UNL     1      51.300  23.021  31.586  1.00  0.00     0.080 C 
HETATM    6  C7  UNL     1      51.181  23.370  30.117  1.00  0.00     0.283 C 
ENDROOT
BRANCH   5   7
HETATM    7  C5  UNL     1      50.014  22.577  32.160  1.00  0.00     0.126 C 
HETATM    8  F1  UNL     1      49.661  21.275  32.276  1.00  0.00    -0.208 F 
HETATM    9  C6  UNL     1      49.167  23.510  32.579  1.00  0.00     0.226 C 
HETATM   10  F2  UNL     1      49.437  24.831  32.501  1.00  0.00    -0.216 F 
ENDBRANCH   5   7
TORSDOF 1
ENDMDL
MODEL 2
REMARK VINA RESULT: -5.109576865      2.479      4.030
REMARK  1 active torsions:
REMARK  status: ('A' for Active; 'I' for Inactive)
REMARK    1  A    between atoms: C4_5  and  C5_6 
ROOT
HETATM    1  C1  UNL     1      49.567  22.342  32.904  1.00  0.00     0.309 C 
HETATM    2  N1  UNL     1      50.030  22.426  31.534  1.00  0.00     0.085 N 
HETATM    3  C2  UNL     1      49.324  23.497  30.814  1.00  0.00     0.272 C 
HETATM    4  C3  UNL     1      50.135  23.506  29.515  1.00  0.00     0.043 C 
HETATM    5  C4  UNL     1      51.550  23.105  29.947  1.00  0.00     0.080 C 
HETATM    6  C7  UNL     1      51.392  22.870  31.436  1.00  0.00     0.283 C 
ENDROOT
BRANCH   5   7
HETATM    7  C5  UNL     1      52.002  21.893  29.236  1.00  0.00     0.126 C 
HETATM    8  F1  UNL     1      52.117  20.681  29.828  1.00  0.00    -0.208 F 
HETATM    9  C6  UNL     1      52.312  22.009  27.950  1.00  0.00     0.226 C 
HETATM   10  F2  UNL     1      52.228  23.178  27.279  1.00  0.00    -0.216 F 
ENDBRANCH   5   7
TORSDOF 1
ENDMDL
MODEL 3
REMARK VINA RESULT: -4.970636940      1.504      2.042
REMARK  1 active torsions:
REMARK  status: ('A' for Active; 'I' for Inactive)
REMARK    1  A    between atoms: C4_5  and  C5_6 
ROOT
HETATM    1  C1  UNL     1      53.241  21.974  28.860  1.00  0.00     0.309 C 
HETATM    2  N1  UNL     1      52.150  22.673  29.508  1.00  0.00     0.085 N 
HETATM    3  C2  UNL     1      51.103  23.015  28.533  1.00  0.00     0.272 C 
HETATM    4  C3  UNL     1      50.022  23.524  29.491  1.00  0.00     0.043 C 
HETATM    5  C4  UNL     1      50.225  22.699  30.766  1.00  0.00     0.080 C 
HETATM    6  C7  UNL     1      51.422  21.837  30.420  1.00  0.00     0.283 C 
ENDROOT
BRANCH   5   7
HETATM    7  C5  UNL     1      50.482  23.569  31.931  1.00  0.00     0.126 C 
HETATM    8  F1  UNL     1      51.677  23.634  32.563  1.00  0.00    -0.208 F 
HETATM    9  C6  UNL     1      49.482  24.322  32.374  1.00  0.00     0.226 C 
HETATM   10  F2  UNL     1      48.257  24.320  31.805  1.00  0.00    -0.216 F 
ENDBRANCH   5   7
TORSDOF 1
ENDMDL
MODEL 4
REMARK VINA RESULT: -4.968957879      3.203      4.676
REMARK  1 active torsions:
REMARK  status: ('A' for Active; 'I' for Inactive)
REMARK    1  A    between atoms: C4_5  and  C5_6 
ROOT
HETATM    1  C1  UNL     1      49.883  23.391  30.930  1.00  0.00     0.309 C 
HETATM    2  N1  UNL     1      51.077  23.180  30.138  1.00  0.00     0.085 N 
HETATM    3  C2  UNL     1      51.865  22.060  30.675  1.00  0.00     0.272 C 
HETATM    4  C3  UNL     1      52.907  21.926  29.562  1.00  0.00     0.043 C 
HETATM    5  C4  UNL     1      52.159  22.342  28.290  1.00  0.00     0.080 C 
HETATM    6  C7  UNL     1      50.786  22.709  28.813  1.00  0.00     0.283 C 
ENDROOT
BRANCH   5   7
HETATM    7  C5  UNL     1      52.826  23.480  27.627  1.00  0.00     0.126 C 
HETATM    8  F1  UNL     1      52.206  24.653  27.357  1.00  0.00    -0.208 F 
HETATM    9  C6  UNL     1      54.100  23.335  27.280  1.00  0.00     0.226 C 
HETATM   10  F2  UNL     1      54.797  22.201  27.509  1.00  0.00    -0.216 F 
ENDBRANCH   5   7
TORSDOF 1
ENDMDL
MODEL 5
REMARK VINA RESULT: -4.950801686      1.281      2.294
REMARK  1 active torsions:
REMARK  status: ('A' for Active; 'I' for Inactive)
REMARK    1  A    between atoms: C4_5  and  C5_6 
ROOT
HETATM    1  C1  UNL     1      53.314  22.325  28.808  1.00  0.00     0.309 C 
HETATM    2  N1  UNL     1      52.135  22.805  29.501  1.00  0.00     0.085 N 
HETATM    3  C2  UNL     1      51.115  23.249  28.538  1.00  0.00     0.272 C 
HETATM    4  C3  UNL     1      49.946  23.485  29.500  1.00  0.00     0.043 C 
HETATM    5  C4  UNL     1      50.153  22.449  30.610  1.00  0.00     0.080 C 
HETATM    6  C7  UNL     1      51.435  21.759  30.191  1.00  0.00     0.283 C 
ENDROOT
BRANCH   5   7
HETATM    7  C5  UNL     1      50.274  23.099  31.930  1.00  0.00     0.126 C 
HETATM    8  F1  UNL     1      51.094  24.148  32.172  1.00  0.00    -0.208 F 
HETATM    9  C6  UNL     1      49.537  22.619  32.926  1.00  0.00     0.226 C 
HETATM   10  F2  UNL     1      48.693  21.576  32.776  1.00  0.00    -0.216 F 
ENDBRANCH   5   7
TORSDOF 1
ENDMDL
