MODEL 1
REMARK VINA RESULT: -6.425901455      0.000      0.000
REMARK  1 active torsions:
REMARK  status: ('A' for Active; 'I' for Inactive)
REMARK    1  A    between atoms: C4_5  and  C5_6 
ROOT
HETATM    1  C1  UNL     1      49.403  22.105  32.639  1.00  0.00     0.309 C 
HETATM    2  N1  UNL     1      50.283  23.148  32.099  1.00  0.00     0.084 N 
HETATM    3  C2  UNL     1      51.593  22.680  31.897  1.00  0.00     0.272 C 
HETATM    4  C3  UNL     1      51.981  22.322  30.499  1.00  0.00     0.039 C 
HETATM    5  C4  UNL     1      51.410  23.258  29.458  1.00  0.00     0.013 C 
HETATM    6  C7  UNL     1      49.911  23.175  29.661  1.00  0.00     0.039 C 
HETATM    7  C8  UNL     1      49.630  23.782  30.999  1.00  0.00     0.272 C 
ENDROOT
BRANCH   5   8
HETATM    8  C5  UNL     1      51.814  22.803  28.107  1.00  0.00     0.007 C 
HETATM    9  C6  UNL     1      52.888  23.303  27.522  1.00  0.00     0.184 C 
HETATM   10  F1  UNL     1      53.218  22.856  26.287  1.00  0.00    -0.220 F 
ENDBRANCH   5   8
TORSDOF 1
ENDMDL
MODEL 2
REMARK VINA RESULT: -5.837732928      0.990      1.826
REMARK  1 active torsions:
REMARK  status: ('A' for Active; 'I' for Inactive)
REMARK    1  A    between atoms: C4_5  and  C5_6 
ROOT
HETATM    1  C1  UNL     1      49.742  24.199  32.151  1.00  0.00     0.309 C 
HETATM    2  N1  UNL     1      49.694  23.025  31.273  1.00  0.00     0.084 N 
HETATM    3  C2  UNL     1      49.471  23.379  29.931  1.00  0.00     0.272 C 
HETATM    4  C3  UNL     1      50.658  23.392  29.023  1.00  0.00     0.039 C 
HETATM    5  C4  UNL     1      51.633  22.269  29.292  1.00  0.00     0.013 C 
HETATM    6  C7  UNL     1      52.034  22.458  30.741  1.00  0.00     0.039 C 
HETATM    7  C8  UNL     1      50.812  22.184  31.559  1.00  0.00     0.272 C 
ENDROOT
BRANCH   5   8
HETATM    8  C5  UNL     1      52.791  22.387  28.375  1.00  0.00     0.007 C 
HETATM    9  C6  UNL     1      52.833  23.342  27.464  1.00  0.00     0.184 C 
HETATM   10  F1  UNL     1      53.912  23.411  26.648  1.00  0.00    -0.220 F 
ENDBRANCH   5   8
TORSDOF 1
ENDMDL
MODEL 3
REMARK VINA RESULT: -5.732461001      1.445      2.478
REMARK  1 active torsions:
REMARK  status: ('A' for Active; 'I' for Inactive)
REMARK    1  A    between atoms: C4_5  and  C5_6 
ROOT
HETATM    1  C1  UNL     1      51.365  22.982  31.738  1.00  0.00     0.309 C 
HETATM    2  N1  UNL     1      51.008  22.285  30.497  1.00  0.00     0.084 N 
HETATM    3  C2  UNL     1      50.487  23.161  29.530  1.00  0.00     0.272 C 
HETATM    4  C3  UNL     1      51.407  23.598  28.438  1.00  0.00     0.039 C 
HETATM    5  C4  UNL     1      52.329  22.501  27.954  1.00  0.00     0.013 C 
HETATM    6  C7  UNL     1      53.092  22.079  29.193  1.00  0.00     0.039 C 
HETATM    7  C8  UNL     1      52.095  21.443  30.109  1.00  0.00     0.272 C 
ENDROOT
BRANCH   5   8
HETATM    8  C5  UNL     1      53.227  23.035  26.904  1.00  0.00     0.007 C 
HETATM    9  C6  UNL     1      54.507  23.243  27.155  1.00  0.00     0.184 C 
HETATM   10  F1  UNL     1      55.290  23.732  26.164  1.00  0.00    -0.220 F 
ENDBRANCH   5   8
TORSDOF 1
ENDMDL
MODEL 4
REMARK VINA RESULT: -5.723557758      3.073      4.323
REMARK  1 active torsions:
REMARK  status: ('A' for Active; 'I' for Inactive)
REMARK    1  A    between atoms: C4_5  and  C5_6 
ROOT
HETATM    1  C1  UNL     1      53.716  22.299  28.705  1.00  0.00     0.309 C 
HETATM    2  N1  UNL     1      52.451  21.675  29.109  1.00  0.00     0.084 N 
HETATM    3  C2  UNL     1      52.257  21.726  30.500  1.00  0.00     0.272 C 
HETATM    4  C3  UNL     1      51.333  22.777  31.022  1.00  0.00     0.039 C 
HETATM    5  C4  UNL     1      50.123  23.003  30.145  1.00  0.00     0.013 C 
HETATM    6  C7  UNL     1      50.701  23.386  28.798  1.00  0.00     0.039 C 
HETATM    7  C8  UNL     1      51.401  22.171  28.277  1.00  0.00     0.272 C 
ENDROOT
BRANCH   5   8
HETATM    8  C5  UNL     1      49.289  24.085  30.719  1.00  0.00     0.007 C 
HETATM    9  C6  UNL     1      49.278  24.308  32.021  1.00  0.00     0.184 C 
HETATM   10  F1  UNL     1      48.501  25.308  32.500  1.00  0.00    -0.220 F 
ENDBRANCH   5   8
TORSDOF 1
ENDMDL
MODEL 5
REMARK VINA RESULT: -5.373063733      3.245      4.815
REMARK  1 active torsions:
REMARK  status: ('A' for Active; 'I' for Inactive)
REMARK    1  A    between atoms: C4_5  and  C5_6 
ROOT
HETATM    1  C1  UNL     1      51.812  21.699  28.122  1.00  0.00     0.309 C 
HETATM    2  N1  UNL     1      51.863  22.828  29.057  1.00  0.00     0.084 N 
HETATM    3  C2  UNL     1      50.645  23.529  29.106  1.00  0.00     0.272 C 
HETATM    4  C3  UNL     1      49.744  23.251  30.265  1.00  0.00     0.039 C 
HETATM    5  C4  UNL     1      50.485  23.054  31.569  1.00  0.00     0.013 C 
HETATM    6  C7  UNL     1      51.422  21.895  31.297  1.00  0.00     0.039 C 
HETATM    7  C8  UNL     1      52.419  22.381  30.295  1.00  0.00     0.272 C 
ENDROOT
BRANCH   5   8
HETATM    8  C5  UNL     1      49.517  22.746  32.648  1.00  0.00     0.007 C 
HETATM    9  C6  UNL     1      49.041  21.522  32.794  1.00  0.00     0.184 C 
HETATM   10  F1  UNL     1      48.158  21.288  33.795  1.00  0.00    -0.220 F 
ENDBRANCH   5   8
TORSDOF 1
ENDMDL
