MODEL 1
REMARK VINA RESULT: -6.013502113      0.000      0.000
REMARK  2 active torsions:
REMARK  status: ('A' for Active; 'I' for Inactive)
REMARK    1  A    between atoms: C2_2  and  N1_4 
REMARK    2  A    between atoms: C4_6  and  C5_8 
ROOT
HETATM    1  N1  UNL     1      50.804  23.269  31.278  1.00  0.00    -0.352 N 
ATOM      2  H1  UNL     1      51.737  23.199  31.683  1.00  0.00     0.166 HD
HETATM    3  C4  UNL     1      50.689  23.238  30.009  1.00  0.00     0.100 C 
HETATM    4  N2  UNL     1      49.406  23.333  29.407  1.00  0.00    -0.087 NA
ENDROOT
BRANCH   3   5
HETATM    5  C5  UNL     1      51.857  23.105  29.111  1.00  0.00     0.087 A 
HETATM    6  C6  UNL     1      51.661  22.084  28.010  1.00  0.00     0.052 A 
HETATM    7  C7  UNL     1      52.693  21.903  29.089  1.00  0.00     0.182 A 
HETATM    8  F1  UNL     1      52.545  20.887  30.005  1.00  0.00    -0.249 F 
ENDBRANCH   3   5
BRANCH   1   9
HETATM    9  C2  UNL     1      49.711  23.394  32.143  1.00  0.00    -0.003 C 
HETATM   10  C1  UNL     1      49.111  24.549  32.323  1.00  0.00     0.037 C 
HETATM   11  C3  UNL     1      49.202  22.220  32.881  1.00  0.00     0.067 C 
ENDBRANCH   1   9
TORSDOF 2
ENDMDL
MODEL 2
REMARK VINA RESULT: -5.872034463      2.075      4.401
REMARK  2 active torsions:
REMARK  status: ('A' for Active; 'I' for Inactive)
REMARK    1  A    between atoms: C2_2  and  N1_4 
REMARK    2  A    between atoms: C4_6  and  C5_8 
ROOT
HETATM    1  N1  UNL     1      51.908  22.912  29.883  1.00  0.00    -0.352 N 
ATOM      2  H1  UNL     1      52.706  22.757  30.497  1.00  0.00     0.166 HD
HETATM    3  C4  UNL     1      50.796  23.251  30.407  1.00  0.00     0.100 C 
HETATM    4  N2  UNL     1      49.660  23.477  29.585  1.00  0.00    -0.087 NA
ENDROOT
BRANCH   3   5
HETATM    5  C5  UNL     1      50.629  23.426  31.866  1.00  0.00     0.087 A 
HETATM    6  C6  UNL     1      49.501  22.601  32.450  1.00  0.00     0.052 A 
HETATM    7  C7  UNL     1      49.468  24.105  32.445  1.00  0.00     0.182 A 
HETATM    8  F1  UNL     1      48.537  24.760  31.672  1.00  0.00    -0.249 F 
ENDBRANCH   3   5
BRANCH   1   9
HETATM    9  C2  UNL     1      52.085  22.743  28.506  1.00  0.00    -0.003 C 
HETATM   10  C1  UNL     1      51.805  21.602  27.917  1.00  0.00     0.037 C 
HETATM   11  C3  UNL     1      52.595  23.851  27.675  1.00  0.00     0.067 C 
ENDBRANCH   1   9
TORSDOF 2
ENDMDL
MODEL 3
REMARK VINA RESULT: -5.809651829      2.022      4.385
REMARK  2 active torsions:
REMARK  status: ('A' for Active; 'I' for Inactive)
REMARK    1  A    between atoms: C2_2  and  N1_4 
REMARK    2  A    between atoms: C4_6  and  C5_8 
ROOT
HETATM    1  N1  UNL     1      51.084  23.276  29.722  1.00  0.00    -0.352 N 
ATOM      2  H1  UNL     1      50.274  23.895  29.692  1.00  0.00     0.166 HD
HETATM    3  C4  UNL     1      51.494  22.867  30.858  1.00  0.00     0.100 C 
HETATM    4  N2  UNL     1      52.619  22.004  30.941  1.00  0.00    -0.087 NA
ENDROOT
BRANCH   3   5
HETATM    5  C5  UNL     1      50.836  23.256  32.124  1.00  0.00     0.087 A 
HETATM    6  C6  UNL     1      49.586  22.456  32.428  1.00  0.00     0.052 A 
HETATM    7  C7  UNL     1      49.538  23.935  32.154  1.00  0.00     0.182 A 
HETATM    8  F1  UNL     1      48.921  24.394  31.014  1.00  0.00    -0.249 F 
ENDBRANCH   3   5
BRANCH   1   9
HETATM    9  C2  UNL     1      51.693  22.919  28.514  1.00  0.00    -0.003 C 
HETATM   10  C1  UNL     1      51.556  21.713  28.010  1.00  0.00     0.037 C 
HETATM   11  C3  UNL     1      52.512  23.897  27.771  1.00  0.00     0.067 C 
ENDBRANCH   1   9
TORSDOF 2
ENDMDL
MODEL 4
REMARK VINA RESULT: -5.791276149      2.071      4.277
REMARK  2 active torsions:
REMARK  status: ('A' for Active; 'I' for Inactive)
REMARK    1  A    between atoms: C2_2  and  N1_4 
REMARK    2  A    between atoms: C4_6  and  C5_8 
ROOT
HETATM    1  N1  UNL     1      51.883  22.989  29.880  1.00  0.00    -0.352 N 
ATOM      2  H1  UNL     1      52.694  22.876  30.488  1.00  0.00     0.166 HD
HETATM    3  C4  UNL     1      50.758  23.263  30.413  1.00  0.00     0.100 C 
HETATM    4  N2  UNL     1      49.605  23.429  29.599  1.00  0.00    -0.087 NA
ENDROOT
BRANCH   3   5
HETATM    5  C5  UNL     1      50.591  23.423  31.874  1.00  0.00     0.087 A 
HETATM    6  C6  UNL     1      49.452  22.606  32.446  1.00  0.00     0.052 A 
HETATM    7  C7  UNL     1      49.438  24.110  32.459  1.00  0.00     0.182 A 
HETATM    8  F1  UNL     1      48.518  24.787  31.692  1.00  0.00    -0.249 F 
ENDBRANCH   3   5
BRANCH   1   9
HETATM    9  C2  UNL     1      52.060  22.835  28.501  1.00  0.00    -0.003 C 
HETATM   10  C1  UNL     1      52.463  23.834  27.748  1.00  0.00     0.037 C 
HETATM   11  C3  UNL     1      51.796  21.534  27.854  1.00  0.00     0.067 C 
ENDBRANCH   1   9
TORSDOF 2
ENDMDL
MODEL 5
REMARK VINA RESULT: -5.739923324      2.015      4.257
REMARK  2 active torsions:
REMARK  status: ('A' for Active; 'I' for Inactive)
REMARK    1  A    between atoms: C2_2  and  N1_4 
REMARK    2  A    between atoms: C4_6  and  C5_8 
ROOT
HETATM    1  N1  UNL     1      51.106  23.307  29.730  1.00  0.00    -0.352 N 
ATOM      2  H1  UNL     1      50.299  23.930  29.712  1.00  0.00     0.166 HD
HETATM    3  C4  UNL     1      51.507  22.866  30.857  1.00  0.00     0.100 C 
HETATM    4  N2  UNL     1      52.628  21.995  30.924  1.00  0.00    -0.087 NA
ENDROOT
BRANCH   3   5
HETATM    5  C5  UNL     1      50.845  23.226  32.129  1.00  0.00     0.087 A 
HETATM    6  C6  UNL     1      49.595  22.419  32.411  1.00  0.00     0.052 A 
HETATM    7  C7  UNL     1      49.547  23.903  32.171  1.00  0.00     0.182 A 
HETATM    8  F1  UNL     1      48.933  24.387  31.039  1.00  0.00    -0.249 F 
ENDBRANCH   3   5
BRANCH   1   9
HETATM    9  C2  UNL     1      51.719  22.977  28.517  1.00  0.00    -0.003 C 
HETATM   10  C1  UNL     1      52.402  23.867  27.833  1.00  0.00     0.037 C 
HETATM   11  C3  UNL     1      51.612  21.609  27.971  1.00  0.00     0.067 C 
ENDBRANCH   1   9
TORSDOF 2
ENDMDL
