MODEL 1
REMARK VINA RESULT: -4.944136391      0.000      0.000
REMARK  3 active torsions:
REMARK  status: ('A' for Active; 'I' for Inactive)
REMARK    1  A    between atoms: N1_1  and  C1_4 
REMARK    2  A    between atoms: C4_11  and  C5_12 
REMARK    3  A    between atoms: N4_13  and  N5_15 
ROOT
HETATM    1  C1  UNL     1      21.598  39.737  74.029  1.00  0.00     0.112 A 
HETATM    2  N2  UNL     1      22.319  40.870  74.275  1.00  0.00    -0.338 N 
ATOM      3  H2  UNL     1      22.107  41.430  75.100  1.00  0.00     0.168 HD
HETATM    4  C2  UNL     1      23.307  41.259  73.447  1.00  0.00     0.181 A 
HETATM    5  N3  UNL     1      23.575  40.510  72.366  1.00  0.00    -0.361 N 
ATOM      6  H3  UNL     1      24.324  40.804  71.738  1.00  0.00     0.166 HD
HETATM    7  C3  UNL     1      22.885  39.374  72.075  1.00  0.00     0.105 A 
HETATM    8  C4  UNL     1      21.872  38.969  72.918  1.00  0.00     0.040 A 
ENDROOT
BRANCH   8   9
HETATM    9  C5  UNL     1      21.089  37.759  72.668  1.00  0.00     0.123 C 
HETATM   10  N4  UNL     1      21.670  36.707  72.199  1.00  0.00    -0.317 N 
ATOM     11  H4  UNL     1      22.672  36.740  72.010  1.00  0.00     0.185 HD
BRANCH  10  12
HETATM   12  N5  UNL     1      20.982  35.538  71.945  1.00  0.00    -0.345 N 
ATOM     13  H52 UNL     1      20.136  35.355  72.486  1.00  0.00     0.176 HD
ATOM     14  H51 UNL     1      21.293  34.866  71.243  1.00  0.00     0.176 HD
ENDBRANCH  10  12
ENDBRANCH   8   9
BRANCH   1  15
HETATM   15  N1  UNL     1      20.652  39.357  74.813  1.00  0.00    -0.385 N 
ATOM     16  H12 UNL     1      19.694  39.610  74.572  1.00  0.00     0.157 HD
ATOM     17  H11 UNL     1      20.842  38.818  75.658  1.00  0.00     0.157 HD
ENDBRANCH   1  15
TORSDOF 3
ENDMDL
MODEL 2
REMARK VINA RESULT: -4.506332788      7.559      7.803
REMARK  3 active torsions:
REMARK  status: ('A' for Active; 'I' for Inactive)
REMARK    1  A    between atoms: N1_1  and  C1_4 
REMARK    2  A    between atoms: C4_11  and  C5_12 
REMARK    3  A    between atoms: N4_13  and  N5_15 
ROOT
HETATM    1  C1  UNL     1      21.499  35.575  79.508  1.00  0.00     0.112 A 
HETATM    2  N2  UNL     1      22.752  36.076  79.712  1.00  0.00    -0.338 N 
ATOM      3  H2  UNL     1      22.861  37.017  80.090  1.00  0.00     0.168 HD
HETATM    4  C2  UNL     1      23.847  35.349  79.422  1.00  0.00     0.181 A 
HETATM    5  N3  UNL     1      23.688  34.112  78.925  1.00  0.00    -0.361 N 
ATOM      6  H3  UNL     1      24.518  33.560  78.706  1.00  0.00     0.166 HD
HETATM    7  C3  UNL     1      22.461  33.567  78.702  1.00  0.00     0.105 A 
HETATM    8  C4  UNL     1      21.335  34.305  78.996  1.00  0.00     0.040 A 
ENDROOT
BRANCH   8   9
HETATM    9  C5  UNL     1      19.985  33.784  78.783  1.00  0.00     0.123 C 
HETATM   10  N4  UNL     1      19.780  32.511  78.815  1.00  0.00    -0.317 N 
ATOM     11  H4  UNL     1      20.569  31.888  78.989  1.00  0.00     0.185 HD
BRANCH  10  12
HETATM   12  N5  UNL     1      18.528  31.963  78.621  1.00  0.00    -0.345 N 
ATOM     13  H52 UNL     1      18.470  31.061  78.147  1.00  0.00     0.176 HD
ATOM     14  H51 UNL     1      17.676  32.429  78.935  1.00  0.00     0.176 HD
ENDBRANCH  10  12
ENDBRANCH   8   9
BRANCH   1  15
HETATM   15  N1  UNL     1      20.446  36.261  79.781  1.00  0.00    -0.385 N 
ATOM     16  H12 UNL     1      20.140  36.964  79.108  1.00  0.00     0.157 HD
ATOM     17  H11 UNL     1      19.923  36.117  80.645  1.00  0.00     0.157 HD
ENDBRANCH   1  15
TORSDOF 3
ENDMDL
MODEL 3
REMARK VINA RESULT: -4.497516167      7.431      8.249
REMARK  3 active torsions:
REMARK  status: ('A' for Active; 'I' for Inactive)
REMARK    1  A    between atoms: N1_1  and  C1_4 
REMARK    2  A    between atoms: C4_11  and  C5_12 
REMARK    3  A    between atoms: N4_13  and  N5_15 
ROOT
HETATM    1  C1  UNL     1      21.947  35.681  79.560  1.00  0.00     0.112 A 
HETATM    2  N2  UNL     1      20.607  35.942  79.550  1.00  0.00    -0.338 N 
ATOM      3  H2  UNL     1      20.266  36.826  79.928  1.00  0.00     0.168 HD
HETATM    4  C2  UNL     1      19.729  35.053  79.051  1.00  0.00     0.181 A 
HETATM    5  N3  UNL     1      20.193  33.895  78.557  1.00  0.00    -0.361 N 
ATOM      6  H3  UNL     1      19.528  33.221  78.177  1.00  0.00     0.166 HD
HETATM    7  C3  UNL     1      21.519  33.585  78.544  1.00  0.00     0.105 A 
HETATM    8  C4  UNL     1      22.424  34.491  79.054  1.00  0.00     0.040 A 
ENDROOT
BRANCH   8   9
HETATM    9  C5  UNL     1      23.863  34.226  79.072  1.00  0.00     0.123 C 
HETATM   10  N4  UNL     1      24.316  33.202  79.714  1.00  0.00    -0.317 N 
ATOM     11  H4  UNL     1      23.657  32.593  80.199  1.00  0.00     0.185 HD
BRANCH  10  12
HETATM   12  N5  UNL     1      25.662  32.903  79.765  1.00  0.00    -0.345 N 
ATOM     13  H52 UNL     1      26.324  33.680  79.753  1.00  0.00     0.176 HD
ATOM     14  H51 UNL     1      26.004  31.943  79.813  1.00  0.00     0.176 HD
ENDBRANCH  10  12
ENDBRANCH   8   9
BRANCH   1  15
HETATM   15  N1  UNL     1      22.795  36.523  80.035  1.00  0.00    -0.385 N 
ATOM     16  H12 UNL     1      23.050  36.448  81.020  1.00  0.00     0.157 HD
ATOM     17  H11 UNL     1      23.206  37.253  79.454  1.00  0.00     0.157 HD
ENDBRANCH   1  15
TORSDOF 3
ENDMDL
MODEL 4
REMARK VINA RESULT: -4.494747687      1.019      1.019
REMARK  3 active torsions:
REMARK  status: ('A' for Active; 'I' for Inactive)
REMARK    1  A    between atoms: N1_1  and  C1_4 
REMARK    2  A    between atoms: C4_11  and  C5_12 
REMARK    3  A    between atoms: N4_13  and  N5_15 
ROOT
HETATM    1  C1  UNL     1      22.554  39.760  74.336  1.00  0.00     0.112 A 
HETATM    2  N2  UNL     1      23.659  40.487  74.673  1.00  0.00    -0.338 N 
ATOM      3  H2  UNL     1      23.754  40.844  75.624  1.00  0.00     0.168 HD
HETATM    4  C2  UNL     1      24.626  40.742  73.771  1.00  0.00     0.181 A 
HETATM    5  N3  UNL     1      24.486  40.265  72.524  1.00  0.00    -0.361 N 
ATOM      6  H3  UNL     1      25.219  40.457  71.840  1.00  0.00     0.166 HD
HETATM    7  C3  UNL     1      23.404  39.536  72.138  1.00  0.00     0.105 A 
HETATM    8  C4  UNL     1      22.411  39.272  73.055  1.00  0.00     0.040 A 
ENDROOT
BRANCH   8   9
HETATM    9  C5  UNL     1      21.220  38.494  72.711  1.00  0.00     0.123 C 
HETATM   10  N4  UNL     1      21.345  37.270  72.326  1.00  0.00    -0.317 N 
ATOM     11  H4  UNL     1      22.280  36.864  72.268  1.00  0.00     0.185 HD
BRANCH  10  12
HETATM   12  N5  UNL     1      20.258  36.490  71.989  1.00  0.00    -0.345 N 
ATOM     13  H52 UNL     1      19.377  36.962  71.782  1.00  0.00     0.176 HD
ATOM     14  H51 UNL     1      20.313  35.472  71.943  1.00  0.00     0.176 HD
ENDBRANCH  10  12
ENDBRANCH   8   9
BRANCH   1  15
HETATM   15  N1  UNL     1      21.625  39.512  75.190  1.00  0.00    -0.385 N 
ATOM     16  H12 UNL     1      20.736  40.002  75.093  1.00  0.00     0.157 HD
ATOM     17  H11 UNL     1      21.762  38.845  75.950  1.00  0.00     0.157 HD
ENDBRANCH   1  15
TORSDOF 3
ENDMDL
MODEL 5
REMARK VINA RESULT: -4.477035045      7.422      8.558
REMARK  3 active torsions:
REMARK  status: ('A' for Active; 'I' for Inactive)
REMARK    1  A    between atoms: N1_1  and  C1_4 
REMARK    2  A    between atoms: C4_11  and  C5_12 
REMARK    3  A    between atoms: N4_13  and  N5_15 
ROOT
HETATM    1  C1  UNL     1      21.940  33.843  79.078  1.00  0.00     0.112 A 
HETATM    2  N2  UNL     1      20.740  33.233  78.849  1.00  0.00    -0.338 N 
ATOM      3  H2  UNL     1      20.707  32.221  78.725  1.00  0.00     0.168 HD
HETATM    4  C2  UNL     1      19.599  33.945  78.784  1.00  0.00     0.181 A 
HETATM    5  N3  UNL     1      19.659  35.276  78.949  1.00  0.00    -0.361 N 
ATOM      6  H3  UNL     1      18.794  35.816  78.901  1.00  0.00     0.166 HD
HETATM    7  C3  UNL     1      20.829  35.931  79.178  1.00  0.00     0.105 A 
HETATM    8  C4  UNL     1      22.001  35.209  79.247  1.00  0.00     0.040 A 
ENDROOT
BRANCH   8   9
HETATM    9  C5  UNL     1      23.295  35.847  79.491  1.00  0.00     0.123 C 
HETATM   10  N4  UNL     1      23.500  36.473  80.600  1.00  0.00    -0.317 N 
ATOM     11  H4  UNL     1      22.749  36.511  81.290  1.00  0.00     0.185 HD
BRANCH  10  12
HETATM   12  N5  UNL     1      24.700  37.092  80.884  1.00  0.00    -0.345 N 
ATOM     13  H52 UNL     1      24.792  38.082  80.655  1.00  0.00     0.176 HD
ATOM     14  H51 UNL     1      25.482  36.592  81.309  1.00  0.00     0.176 HD
ENDBRANCH  10  12
ENDBRANCH   8   9
BRANCH   1  15
HETATM   15  N1  UNL     1      23.035  33.172  79.141  1.00  0.00    -0.385 N 
ATOM     16  H12 UNL     1      23.010  32.182  78.896  1.00  0.00     0.157 HD
ATOM     17  H11 UNL     1      23.912  33.606  79.430  1.00  0.00     0.157 HD
ENDBRANCH   1  15
TORSDOF 3
ENDMDL
