MODEL 1
REMARK VINA RESULT: -4.625641357      0.000      0.000
REMARK  3 active torsions:
REMARK  status: ('A' for Active; 'I' for Inactive)
REMARK    1  A    between atoms: N1_2  and  N2_3 
REMARK    2  A    between atoms: N1_2  and  N3_6 
REMARK    3  A    between atoms: C2_8  and  C3_9 
ROOT
HETATM    1  N3  UNL     1      17.635  33.009  78.190  1.00  0.00    -0.294 N 
ATOM      2  H3  UNL     1      17.383  33.987  78.047  1.00  0.00     0.187 HD
HETATM    3  C2  UNL     1      18.818  32.680  78.588  1.00  0.00     0.145 C 
ENDROOT
BRANCH   1   4
HETATM    4  N1  UNL     1      16.720  31.997  77.963  1.00  0.00    -0.246 N 
HETATM    5  C1  UNL     1      16.647  30.863  78.824  1.00  0.00     0.199 C 
BRANCH   4   6
HETATM    6  N2  UNL     1      15.874  32.119  76.871  1.00  0.00    -0.329 N 
ATOM      7  H22 UNL     1      14.920  32.438  77.038  1.00  0.00     0.178 HD
ATOM      8  H21 UNL     1      16.196  31.893  75.929  1.00  0.00     0.178 HD
ENDBRANCH   4   6
ENDBRANCH   1   4
BRANCH   3   9
HETATM    9  C3  UNL     1      19.801  33.736  78.833  1.00  0.00     0.091 A 
HETATM   10  C4  UNL     1      21.172  33.628  78.695  1.00  0.00     0.040 A 
HETATM   11  C5  UNL     1      21.736  34.847  79.023  1.00  0.00     0.027 A 
HETATM   12  C6  UNL     1      20.656  35.655  79.351  1.00  0.00     0.142 A 
HETATM   13  O1  UNL     1      19.570  34.950  79.220  1.00  0.00    -0.321 OA
ENDBRANCH   3   9
TORSDOF 3
ENDMDL
MODEL 2
REMARK VINA RESULT: -4.394253197      0.887      1.132
REMARK  3 active torsions:
REMARK  status: ('A' for Active; 'I' for Inactive)
REMARK    1  A    between atoms: N1_2  and  N2_3 
REMARK    2  A    between atoms: N1_2  and  N3_6 
REMARK    3  A    between atoms: C2_8  and  C3_9 
ROOT
HETATM    1  N3  UNL     1      17.885  32.965  78.332  1.00  0.00    -0.294 N 
ATOM      2  H3  UNL     1      17.582  33.918  78.135  1.00  0.00     0.187 HD
HETATM    3  C2  UNL     1      19.086  32.719  78.736  1.00  0.00     0.145 C 
ENDROOT
BRANCH   1   4
HETATM    4  N1  UNL     1      17.020  31.896  78.175  1.00  0.00    -0.246 N 
HETATM    5  C1  UNL     1      15.953  31.944  77.231  1.00  0.00     0.199 C 
BRANCH   4   6
HETATM    6  N2  UNL     1      17.225  30.774  78.964  1.00  0.00    -0.329 N 
ATOM      7  H22 UNL     1      17.036  29.860  78.552  1.00  0.00     0.178 HD
ATOM      8  H21 UNL     1      17.552  30.861  79.926  1.00  0.00     0.178 HD
ENDBRANCH   4   6
ENDBRANCH   1   4
BRANCH   3   9
HETATM    9  C3  UNL     1      20.017  33.836  78.908  1.00  0.00     0.091 A 
HETATM   10  C4  UNL     1      21.384  33.802  78.709  1.00  0.00     0.040 A 
HETATM   11  C5  UNL     1      21.890  35.059  78.978  1.00  0.00     0.027 A 
HETATM   12  C6  UNL     1      20.782  35.814  79.335  1.00  0.00     0.142 A 
HETATM   13  O1  UNL     1      19.733  35.046  79.273  1.00  0.00    -0.321 OA
ENDBRANCH   3   9
TORSDOF 3
ENDMDL
MODEL 3
REMARK VINA RESULT: -4.265143041      2.552      5.028
REMARK  3 active torsions:
REMARK  status: ('A' for Active; 'I' for Inactive)
REMARK    1  A    between atoms: N1_2  and  N2_3 
REMARK    2  A    between atoms: N1_2  and  N3_6 
REMARK    3  A    between atoms: C2_8  and  C3_9 
ROOT
HETATM    1  N3  UNL     1      19.606  32.698  78.648  1.00  0.00    -0.294 N 
ATOM      2  H3  UNL     1      19.721  31.691  78.764  1.00  0.00     0.187 HD
HETATM    3  C2  UNL     1      18.450  33.208  78.386  1.00  0.00     0.145 C 
ENDROOT
BRANCH   1   4
HETATM    4  N1  UNL     1      20.684  33.557  78.767  1.00  0.00    -0.246 N 
HETATM    5  C1  UNL     1      20.493  34.948  79.017  1.00  0.00     0.199 C 
BRANCH   4   6
HETATM    6  N2  UNL     1      21.957  33.024  78.639  1.00  0.00    -0.329 N 
ATOM      7  H22 UNL     1      22.459  32.774  79.491  1.00  0.00     0.178 HD
ATOM      8  H21 UNL     1      22.379  32.887  77.720  1.00  0.00     0.178 HD
ENDBRANCH   4   6
ENDBRANCH   1   4
BRANCH   3   9
HETATM    9  C3  UNL     1      17.296  32.316  78.255  1.00  0.00     0.091 A 
HETATM   10  C4  UNL     1      16.398  32.285  77.205  1.00  0.00     0.040 A 
HETATM   11  C5  UNL     1      15.462  31.304  77.467  1.00  0.00     0.027 A 
HETATM   12  C6  UNL     1      15.844  30.774  78.691  1.00  0.00     0.142 A 
HETATM   13  O1  UNL     1      16.910  31.404  79.090  1.00  0.00    -0.321 OA
ENDBRANCH   3   9
TORSDOF 3
ENDMDL
MODEL 4
REMARK VINA RESULT: -4.184528054      2.464      4.979
REMARK  3 active torsions:
REMARK  status: ('A' for Active; 'I' for Inactive)
REMARK    1  A    between atoms: N1_2  and  N2_3 
REMARK    2  A    between atoms: N1_2  and  N3_6 
REMARK    3  A    between atoms: C2_8  and  C3_9 
ROOT
HETATM    1  N3  UNL     1      19.421  33.010  78.645  1.00  0.00    -0.294 N 
ATOM      2  H3  UNL     1      19.615  32.019  78.790  1.00  0.00     0.187 HD
HETATM    3  C2  UNL     1      18.236  33.418  78.337  1.00  0.00     0.145 C 
ENDROOT
BRANCH   1   4
HETATM    4  N1  UNL     1      20.422  33.958  78.772  1.00  0.00    -0.246 N 
HETATM    5  C1  UNL     1      21.796  33.599  78.645  1.00  0.00     0.199 C 
BRANCH   4   6
HETATM    6  N2  UNL     1      20.047  35.268  79.025  1.00  0.00    -0.329 N 
ATOM      7  H22 UNL     1      20.772  35.926  79.313  1.00  0.00     0.178 HD
ATOM      8  H21 UNL     1      19.075  35.564  78.929  1.00  0.00     0.178 HD
ENDBRANCH   4   6
ENDBRANCH   1   4
BRANCH   3   9
HETATM    9  C3  UNL     1      17.163  32.431  78.196  1.00  0.00     0.091 A 
HETATM   10  C4  UNL     1      16.284  32.321  77.136  1.00  0.00     0.040 A 
HETATM   11  C5  UNL     1      15.430  31.265  77.391  1.00  0.00     0.027 A 
HETATM   12  C6  UNL     1      15.841  30.774  78.622  1.00  0.00     0.142 A 
HETATM   13  O1  UNL     1      16.845  31.493  79.030  1.00  0.00    -0.321 OA
ENDBRANCH   3   9
TORSDOF 3
ENDMDL
MODEL 5
REMARK VINA RESULT: -4.057206546      1.430      1.819
REMARK  3 active torsions:
REMARK  status: ('A' for Active; 'I' for Inactive)
REMARK    1  A    between atoms: N1_2  and  N2_3 
REMARK    2  A    between atoms: N1_2  and  N3_6 
REMARK    3  A    between atoms: C2_8  and  C3_9 
ROOT
HETATM    1  N3  UNL     1      18.767  32.243  78.634  1.00  0.00    -0.294 N 
ATOM      2  H3  UNL     1      19.554  31.600  78.723  1.00  0.00     0.187 HD
HETATM    3  C2  UNL     1      18.947  33.520  78.649  1.00  0.00     0.145 C 
ENDROOT
BRANCH   1   4
HETATM    4  N1  UNL     1      17.474  31.770  78.493  1.00  0.00    -0.246 N 
HETATM    5  C1  UNL     1      16.605  32.288  77.489  1.00  0.00     0.199 C 
BRANCH   4   6
HETATM    6  N2  UNL     1      17.049  30.774  79.359  1.00  0.00    -0.329 N 
ATOM      7  H22 UNL     1      16.082  30.457  79.286  1.00  0.00     0.178 HD
ATOM      8  H21 UNL     1      17.684  30.372  80.049  1.00  0.00     0.178 HD
ENDBRANCH   4   6
ENDBRANCH   1   4
BRANCH   3   9
HETATM    9  C3  UNL     1      20.307  34.041  78.797  1.00  0.00     0.091 A 
HETATM   10  C4  UNL     1      20.657  35.333  79.141  1.00  0.00     0.040 A 
HETATM   11  C5  UNL     1      22.036  35.412  79.172  1.00  0.00     0.027 A 
HETATM   12  C6  UNL     1      22.468  34.136  78.839  1.00  0.00     0.142 A 
HETATM   13  O1  UNL     1      21.418  33.395  78.635  1.00  0.00    -0.321 OA
ENDBRANCH   3   9
TORSDOF 3
ENDMDL
