MODEL 1
REMARK VINA RESULT: -5.536565787      0.000      0.000
REMARK  2 active torsions:
REMARK  status: ('A' for Active; 'I' for Inactive)
REMARK    1  A    between atoms: N1_1  and  C1_4 
REMARK    2  A    between atoms: C3_8  and  N3_9 
ROOT
HETATM    1  C1  UNL     1      18.134  20.822  34.319  1.00  0.00     0.678 A 
HETATM    2  N2  UNL     1      17.266  21.714  34.834  1.00  0.00    -0.200 N 
ATOM      3  H2  UNL     1      16.938  21.616  35.795  1.00  0.00     0.183 HD
HETATM    4  C2  UNL     1      16.835  22.735  34.074  1.00  0.00     0.148 A 
HETATM    5  C3  UNL     1      17.246  22.919  32.769  1.00  0.00     0.186 A 
HETATM    6  C4  UNL     1      18.139  21.988  32.261  1.00  0.00     0.294 A 
HETATM    7  O3  UNL     1      18.542  22.105  31.092  1.00  0.00    -0.265 OA
HETATM    8  N4  UNL     1      18.553  20.975  33.049  1.00  0.00    -0.154 N 
ATOM      9  H4  UNL     1      19.211  20.296  32.666  1.00  0.00     0.187 HD
ENDROOT
BRANCH   1  10
HETATM   10  N1  UNL     1      18.577  19.812  35.033  1.00  0.00    -0.234 N 
ATOM     11  H12 UNL     1      19.494  19.415  34.833  1.00  0.00     0.174 HD
ATOM     12  H11 UNL     1      18.019  19.415  35.790  1.00  0.00     0.174 HD
ENDBRANCH   1  10
BRANCH   5  13
HETATM   13  N3  UNL     1      16.768  24.011  31.999  1.00  0.00    -0.108 N 
HETATM   14  O1  UNL     1      16.744  25.141  32.506  1.00  0.00    -0.532 OA
HETATM   15  O2  UNL     1      16.330  23.851  30.709  1.00  0.00    -0.532 OA
ENDBRANCH   5  13
TORSDOF 2
ENDMDL
MODEL 2
REMARK VINA RESULT: -5.162561313      0.934      2.151
REMARK  2 active torsions:
REMARK  status: ('A' for Active; 'I' for Inactive)
REMARK    1  A    between atoms: N1_1  and  C1_4 
REMARK    2  A    between atoms: C3_8  and  N3_9 
ROOT
HETATM    1  C1  UNL     1      18.209  20.859  34.018  1.00  0.00     0.678 A 
HETATM    2  N2  UNL     1      18.485  20.888  32.700  1.00  0.00    -0.200 N 
ATOM      3  H2  UNL     1      19.018  20.131  32.270  1.00  0.00     0.183 HD
HETATM    4  C2  UNL     1      18.055  21.920  31.954  1.00  0.00     0.148 A 
HETATM    5  C3  UNL     1      17.331  22.970  32.481  1.00  0.00     0.186 A 
HETATM    6  C4  UNL     1      17.058  22.918  33.840  1.00  0.00     0.294 A 
HETATM    7  O3  UNL     1      16.410  23.836  34.367  1.00  0.00    -0.265 OA
HETATM    8  N4  UNL     1      17.504  21.869  34.561  1.00  0.00    -0.154 N 
ATOM      9  H4  UNL     1      17.298  21.839  35.559  1.00  0.00     0.187 HD
ENDROOT
BRANCH   1  10
HETATM   10  N1  UNL     1      18.614  19.866  34.776  1.00  0.00    -0.234 N 
ATOM     11  H12 UNL     1      17.929  19.238  35.196  1.00  0.00     0.174 HD
ATOM     12  H11 UNL     1      19.606  19.707  34.955  1.00  0.00     0.174 HD
ENDBRANCH   1  10
BRANCH   5  13
HETATM   13  N3  UNL     1      16.893  24.041  31.661  1.00  0.00    -0.108 N 
HETATM   14  O1  UNL     1      16.277  23.788  30.615  1.00  0.00    -0.532 OA
HETATM   15  O2  UNL     1      17.134  25.350  31.989  1.00  0.00    -0.532 OA
ENDBRANCH   5  13
TORSDOF 2
ENDMDL
MODEL 3
REMARK VINA RESULT: -4.993797024      7.635      8.565
REMARK  2 active torsions:
REMARK  status: ('A' for Active; 'I' for Inactive)
REMARK    1  A    between atoms: N1_1  and  C1_4 
REMARK    2  A    between atoms: C3_8  and  N3_9 
ROOT
HETATM    1  C1  UNL     1      22.200  23.704  38.665  1.00  0.00     0.678 A 
HETATM    2  N2  UNL     1      23.427  23.386  38.210  1.00  0.00    -0.200 N 
ATOM      3  H2  UNL     1      24.089  24.121  37.960  1.00  0.00     0.183 HD
HETATM    4  C2  UNL     1      23.774  22.094  38.087  1.00  0.00     0.148 A 
HETATM    5  C3  UNL     1      22.922  21.058  38.411  1.00  0.00     0.186 A 
HETATM    6  C4  UNL     1      21.664  21.410  38.877  1.00  0.00     0.294 A 
HETATM    7  O3  UNL     1      20.856  20.518  39.183  1.00  0.00    -0.265 OA
HETATM    8  N4  UNL     1      21.346  22.716  38.989  1.00  0.00    -0.154 N 
ATOM      9  H4  UNL     1      20.418  22.965  39.333  1.00  0.00     0.187 HD
ENDROOT
BRANCH   1  10
HETATM   10  N1  UNL     1      21.826  24.957  38.797  1.00  0.00    -0.234 N 
ATOM     11  H12 UNL     1      21.366  25.259  39.656  1.00  0.00     0.174 HD
ATOM     12  H11 UNL     1      21.990  25.639  38.056  1.00  0.00     0.174 HD
ENDBRANCH   1  10
BRANCH   5  13
HETATM   13  N3  UNL     1      23.327  19.706  38.268  1.00  0.00    -0.108 N 
HETATM   14  O1  UNL     1      22.462  18.826  38.157  1.00  0.00    -0.532 OA
HETATM   15  O2  UNL     1      24.649  19.344  38.252  1.00  0.00    -0.532 OA
ENDBRANCH   5  13
TORSDOF 2
ENDMDL
MODEL 4
REMARK VINA RESULT: -4.748984091      1.771      2.611
REMARK  2 active torsions:
REMARK  status: ('A' for Active; 'I' for Inactive)
REMARK    1  A    between atoms: N1_1  and  C1_4 
REMARK    2  A    between atoms: C3_8  and  N3_9 
ROOT
HETATM    1  C1  UNL     1      19.400  21.113  32.129  1.00  0.00     0.678 A 
HETATM    2  N2  UNL     1      19.012  21.879  31.090  1.00  0.00    -0.200 N 
ATOM      3  H2  UNL     1      19.460  21.775  30.180  1.00  0.00     0.183 HD
HETATM    4  C2  UNL     1      18.030  22.780  31.261  1.00  0.00     0.148 A 
HETATM    5  C3  UNL     1      17.387  22.963  32.468  1.00  0.00     0.186 A 
HETATM    6  C4  UNL     1      17.803  22.164  33.522  1.00  0.00     0.294 A 
HETATM    7  O3  UNL     1      17.258  22.287  34.631  1.00  0.00    -0.265 OA
HETATM    8  N4  UNL     1      18.791  21.269  33.319  1.00  0.00    -0.154 N 
ATOM      9  H4  UNL     1      19.090  20.685  34.100  1.00  0.00     0.187 HD
ENDROOT
BRANCH   1  10
HETATM   10  N1  UNL     1      20.356  20.222  31.998  1.00  0.00    -0.234 N 
ATOM     11  H12 UNL     1      20.134  19.229  32.063  1.00  0.00     0.174 HD
ATOM     12  H11 UNL     1      21.322  20.504  31.829  1.00  0.00     0.174 HD
ENDBRANCH   1  10
BRANCH   5  13
HETATM   13  N3  UNL     1      16.354  23.925  32.608  1.00  0.00    -0.108 N 
HETATM   14  O1  UNL     1      15.237  23.686  32.126  1.00  0.00    -0.532 OA
HETATM   15  O2  UNL     1      16.555  25.116  33.258  1.00  0.00    -0.532 OA
ENDBRANCH   5  13
TORSDOF 2
ENDMDL
MODEL 5
REMARK VINA RESULT: -4.670081282      1.502      3.262
REMARK  2 active torsions:
REMARK  status: ('A' for Active; 'I' for Inactive)
REMARK    1  A    between atoms: N1_1  and  C1_4 
REMARK    2  A    between atoms: C3_8  and  N3_9 
ROOT
HETATM    1  C1  UNL     1      17.128  22.239  34.454  1.00  0.00     0.678 A 
HETATM    2  N2  UNL     1      17.889  21.138  34.600  1.00  0.00    -0.200 N 
ATOM      3  H2  UNL     1      17.842  20.591  35.459  1.00  0.00     0.183 HD
HETATM    4  C2  UNL     1      18.712  20.764  33.605  1.00  0.00     0.148 A 
HETATM    5  C3  UNL     1      18.816  21.465  32.421  1.00  0.00     0.186 A 
HETATM    6  C4  UNL     1      18.022  22.594  32.293  1.00  0.00     0.294 A 
HETATM    7  O3  UNL     1      18.076  23.263  31.248  1.00  0.00    -0.265 OA
HETATM    8  N4  UNL     1      17.207  22.943  33.310  1.00  0.00    -0.154 N 
ATOM      9  H4  UNL     1      16.627  23.776  33.207  1.00  0.00     0.187 HD
ENDROOT
BRANCH   1  10
HETATM   10  N1  UNL     1      16.312  22.633  35.406  1.00  0.00    -0.234 N 
ATOM     11  H12 UNL     1      16.160  22.039  36.220  1.00  0.00     0.174 HD
ATOM     12  H11 UNL     1      15.826  23.529  35.348  1.00  0.00     0.174 HD
ENDBRANCH   1  10
BRANCH   5  13
HETATM   13  N3  UNL     1      19.696  21.037  31.393  1.00  0.00    -0.108 N 
HETATM   14  O1  UNL     1      19.243  20.379  30.445  1.00  0.00    -0.532 OA
HETATM   15  O2  UNL     1      21.036  21.328  31.419  1.00  0.00    -0.532 OA
ENDBRANCH   5  13
TORSDOF 2
ENDMDL
