MODEL 1
REMARK VINA RESULT: -6.740479150      0.000      0.000
REMARK  2 active torsions:
REMARK  status: ('A' for Active; 'I' for Inactive)
REMARK    1  A    between atoms: N1_1  and  N2_4 
REMARK    2  A    between atoms: C1_6  and  C2_7 
ROOT
HETATM    1  C2  UNL     1      18.331  21.563  32.271  1.00  0.00     0.053 A 
HETATM    2  C3  UNL     1      17.905  21.676  33.575  1.00  0.00     0.057 A 
HETATM    3  C4  UNL     1      17.064  22.719  33.982  1.00  0.00     0.053 A 
HETATM    4  N3  UNL     1      16.633  22.828  35.322  1.00  0.00    -0.102 NA
HETATM    5  C5  UNL     1      16.667  23.636  33.041  1.00  0.00     0.101 A 
HETATM    6  C6  UNL     1      17.090  23.527  31.731  1.00  0.00     0.247 A 
HETATM    7  O1  UNL     1      16.716  24.382  30.873  1.00  0.00    -0.268 OA
HETATM    8  N4  UNL     1      17.890  22.521  31.385  1.00  0.00    -0.322 N 
ATOM      9  H4  UNL     1      18.193  22.457  30.413  1.00  0.00     0.169 HD
ENDROOT
BRANCH   1  10
HETATM   10  C1  UNL     1      19.189  20.519  31.805  1.00  0.00     0.136 C 
HETATM   11  N2  UNL     1      20.334  20.603  31.360  1.00  0.00    -0.316 N 
ATOM     12  H2  UNL     1      20.743  19.707  31.091  1.00  0.00     0.185 HD
BRANCH  11  13
HETATM   13  N1  UNL     1      21.144  21.655  31.163  1.00  0.00    -0.345 N 
ATOM     14  H12 UNL     1      21.231  22.247  31.990  1.00  0.00     0.176 HD
ATOM     15  H11 UNL     1      21.677  21.961  30.349  1.00  0.00     0.176 HD
ENDBRANCH  11  13
ENDBRANCH   1  10
TORSDOF 2
ENDMDL
MODEL 2
REMARK VINA RESULT: -6.446423620      2.228      2.552
REMARK  2 active torsions:
REMARK  status: ('A' for Active; 'I' for Inactive)
REMARK    1  A    between atoms: N1_1  and  N2_4 
REMARK    2  A    between atoms: C1_6  and  C2_7 
ROOT
HETATM    1  C2  UNL     1      18.525  21.445  31.977  1.00  0.00     0.053 A 
HETATM    2  C3  UNL     1      17.641  22.483  31.782  1.00  0.00     0.057 A 
HETATM    3  C4  UNL     1      16.917  23.036  32.845  1.00  0.00     0.053 A 
HETATM    4  N3  UNL     1      16.012  24.099  32.635  1.00  0.00    -0.102 NA
HETATM    5  C5  UNL     1      17.110  22.516  34.100  1.00  0.00     0.101 A 
HETATM    6  C6  UNL     1      17.995  21.476  34.302  1.00  0.00     0.247 A 
HETATM    7  O1  UNL     1      18.163  21.006  35.467  1.00  0.00    -0.268 OA
HETATM    8  N4  UNL     1      18.664  20.978  33.265  1.00  0.00    -0.322 N 
ATOM      9  H4  UNL     1      19.314  20.209  33.433  1.00  0.00     0.169 HD
ENDROOT
BRANCH   1  10
HETATM   10  C1  UNL     1      19.288  20.846  30.927  1.00  0.00     0.136 C 
HETATM   11  N2  UNL     1      20.508  20.861  30.755  1.00  0.00    -0.316 N 
ATOM     12  H2  UNL     1      20.817  20.356  29.925  1.00  0.00     0.185 HD
BRANCH  11  13
HETATM   13  N1  UNL     1      21.506  21.418  31.460  1.00  0.00    -0.345 N 
ATOM     14  H12 UNL     1      21.182  21.862  32.320  1.00  0.00     0.176 HD
ATOM     15  H11 UNL     1      22.510  21.475  31.289  1.00  0.00     0.176 HD
ENDBRANCH  11  13
ENDBRANCH   1  10
TORSDOF 2
ENDMDL
MODEL 3
REMARK VINA RESULT: -6.095151142      1.829      2.467
REMARK  2 active torsions:
REMARK  status: ('A' for Active; 'I' for Inactive)
REMARK    1  A    between atoms: N1_1  and  N2_4 
REMARK    2  A    between atoms: C1_6  and  C2_7 
ROOT
HETATM    1  C2  UNL     1      18.403  21.523  32.317  1.00  0.00     0.053 A 
HETATM    2  C3  UNL     1      17.888  22.464  31.453  1.00  0.00     0.057 A 
HETATM    3  C4  UNL     1      17.033  23.478  31.901  1.00  0.00     0.053 A 
HETATM    4  N3  UNL     1      16.509  24.437  31.008  1.00  0.00    -0.102 NA
HETATM    5  C5  UNL     1      16.715  23.515  33.236  1.00  0.00     0.101 A 
HETATM    6  C6  UNL     1      17.228  22.575  34.107  1.00  0.00     0.247 A 
HETATM    7  O1  UNL     1      16.926  22.622  35.337  1.00  0.00    -0.268 OA
HETATM    8  N4  UNL     1      18.038  21.627  33.641  1.00  0.00    -0.322 N 
ATOM      9  H4  UNL     1      18.408  20.941  34.300  1.00  0.00     0.169 HD
ENDROOT
BRANCH   1  10
HETATM   10  C1  UNL     1      19.279  20.470  31.911  1.00  0.00     0.136 C 
HETATM   11  N2  UNL     1      20.422  20.549  31.458  1.00  0.00    -0.316 N 
ATOM     12  H2  UNL     1      20.847  19.647  31.241  1.00  0.00     0.185 HD
BRANCH  11  13
HETATM   13  N1  UNL     1      21.212  21.603  31.197  1.00  0.00    -0.345 N 
ATOM     14  H12 UNL     1      22.193  21.345  31.092  1.00  0.00     0.176 HD
ATOM     15  H11 UNL     1      21.007  22.596  31.088  1.00  0.00     0.176 HD
ENDBRANCH  11  13
ENDBRANCH   1  10
TORSDOF 2
ENDMDL
MODEL 4
REMARK VINA RESULT: -5.634543050      0.963      1.083
REMARK  2 active torsions:
REMARK  status: ('A' for Active; 'I' for Inactive)
REMARK    1  A    between atoms: N1_1  and  N2_4 
REMARK    2  A    between atoms: C1_6  and  C2_7 
ROOT
HETATM    1  C2  UNL     1      18.473  21.589  31.849  1.00  0.00     0.053 A 
HETATM    2  C3  UNL     1      18.522  21.141  33.150  1.00  0.00     0.057 A 
HETATM    3  C4  UNL     1      17.768  21.748  34.161  1.00  0.00     0.053 A 
HETATM    4  N3  UNL     1      17.825  21.283  35.492  1.00  0.00    -0.102 NA
HETATM    5  C5  UNL     1      16.969  22.812  33.823  1.00  0.00     0.101 A 
HETATM    6  C6  UNL     1      16.915  23.265  32.520  1.00  0.00     0.247 A 
HETATM    7  O1  UNL     1      16.173  24.249  32.222  1.00  0.00    -0.268 OA
HETATM    8  N4  UNL     1      17.648  22.660  31.588  1.00  0.00    -0.322 N 
ATOM      9  H4  UNL     1      17.596  23.009  30.630  1.00  0.00     0.169 HD
ENDROOT
BRANCH   1  10
HETATM   10  C1  UNL     1      19.222  21.004  30.781  1.00  0.00     0.136 C 
HETATM   11  N2  UNL     1      20.445  20.915  30.654  1.00  0.00    -0.316 N 
ATOM     12  H2  UNL     1      20.742  20.450  29.796  1.00  0.00     0.185 HD
BRANCH  11  13
HETATM   13  N1  UNL     1      21.458  21.318  31.437  1.00  0.00    -0.345 N 
ATOM     14  H12 UNL     1      21.369  20.990  32.399  1.00  0.00     0.176 HD
ATOM     15  H11 UNL     1      22.285  21.883  31.243  1.00  0.00     0.176 HD
ENDBRANCH  11  13
ENDBRANCH   1  10
TORSDOF 2
ENDMDL
MODEL 5
REMARK VINA RESULT: -4.849523070      7.815      8.693
REMARK  2 active torsions:
REMARK  status: ('A' for Active; 'I' for Inactive)
REMARK    1  A    between atoms: N1_1  and  N2_4 
REMARK    2  A    between atoms: C1_6  and  C2_7 
ROOT
HETATM    1  C2  UNL     1      22.589  23.095  38.493  1.00  0.00     0.053 A 
HETATM    2  C3  UNL     1      23.550  22.177  38.132  1.00  0.00     0.057 A 
HETATM    3  C4  UNL     1      23.347  20.802  38.301  1.00  0.00     0.053 A 
HETATM    4  N3  UNL     1      24.338  19.868  37.929  1.00  0.00    -0.102 NA
HETATM    5  C5  UNL     1      22.157  20.384  38.843  1.00  0.00     0.101 A 
HETATM    6  C6  UNL     1      21.190  21.300  39.206  1.00  0.00     0.247 A 
HETATM    7  O1  UNL     1      20.095  20.899  39.704  1.00  0.00    -0.268 OA
HETATM    8  N4  UNL     1      21.421  22.598  39.028  1.00  0.00    -0.322 N 
ATOM      9  H4  UNL     1      20.695  23.260  39.303  1.00  0.00     0.169 HD
ENDROOT
BRANCH   1  10
HETATM   10  C1  UNL     1      22.745  24.507  38.340  1.00  0.00     0.136 C 
HETATM   11  N2  UNL     1      23.536  25.262  38.910  1.00  0.00    -0.316 N 
ATOM     12  H2  UNL     1      23.454  26.239  38.628  1.00  0.00     0.185 HD
BRANCH  11  13
HETATM   13  N1  UNL     1      24.485  25.035  39.831  1.00  0.00    -0.345 N 
ATOM     14  H12 UNL     1      24.325  25.549  40.698  1.00  0.00     0.176 HD
ATOM     15  H11 UNL     1      25.321  24.452  39.818  1.00  0.00     0.176 HD
ENDBRANCH  11  13
ENDBRANCH   1  10
TORSDOF 2
ENDMDL
