MODEL 1
REMARK VINA RESULT: -4.573644683      0.000      0.000
REMARK  3 active torsions:
REMARK  status: ('A' for Active; 'I' for Inactive)
REMARK    1  A    between atoms: C3_3  and  N1_4 
REMARK    2  A    between atoms: N1_4  and  N2_6 
REMARK    3  A    between atoms: C6_9  and  N3_10 
ROOT
HETATM    1  C1  UNL     1      26.487  24.649  40.833  1.00  0.00     0.018 C 
HETATM    2  C2  UNL     1      25.490  25.200  40.423  1.00  0.00    -0.071 C 
HETATM    3  C3  UNL     1      24.252  25.870  39.941  1.00  0.00     0.171 C 
ENDROOT
BRANCH   3   4
HETATM    4  N1  UNL     1      23.709  25.201  38.834  1.00  0.00    -0.294 N 
ATOM      5  H1  UNL     1      23.764  25.731  37.965  1.00  0.00     0.187 HD
BRANCH   4   6
HETATM    6  N2  UNL     1      23.115  23.959  38.697  1.00  0.00    -0.217 N 
HETATM    7  C4  UNL     1      23.890  22.879  38.397  1.00  0.00     0.125 A 
HETATM    8  C5  UNL     1      23.395  21.604  38.257  1.00  0.00     0.067 A 
HETATM    9  C6  UNL     1      22.043  21.412  38.429  1.00  0.00     0.103 A 
HETATM   10  N4  UNL     1      21.261  22.460  38.725  1.00  0.00    -0.293 N 
HETATM   11  C7  UNL     1      21.811  23.690  38.849  1.00  0.00     0.346 A 
ATOM     12  H4  UNL     1      20.258  22.332  38.855  1.00  0.00     0.172 HD
HETATM   13  O1  UNL     1      21.046  24.645  39.129  1.00  0.00    -0.245 OA
BRANCH   9  14
HETATM   14  N3  UNL     1      21.478  20.239  38.316  1.00  0.00    -0.385 N 
ATOM     15  H32 UNL     1      21.897  19.456  38.818  1.00  0.00     0.157 HD
ATOM     16  H31 UNL     1      20.643  20.084  37.751  1.00  0.00     0.157 HD
ENDBRANCH   9  14
ENDBRANCH   4   6
ENDBRANCH   3   4
TORSDOF 3
ENDMDL
MODEL 2
REMARK VINA RESULT: -4.533337508      2.739      4.953
REMARK  3 active torsions:
REMARK  status: ('A' for Active; 'I' for Inactive)
REMARK    1  A    between atoms: C3_3  and  N1_4 
REMARK    2  A    between atoms: N1_4  and  N2_6 
REMARK    3  A    between atoms: C6_9  and  N3_10 
ROOT
HETATM    1  C1  UNL     1      25.053  16.494  37.223  1.00  0.00     0.018 C 
HETATM    2  C2  UNL     1      24.986  17.628  37.642  1.00  0.00    -0.071 C 
HETATM    3  C3  UNL     1      24.907  19.012  38.183  1.00  0.00     0.171 C 
ENDROOT
BRANCH   3   4
HETATM    4  N1  UNL     1      23.617  19.543  38.033  1.00  0.00    -0.294 N 
ATOM      5  H1  UNL     1      22.931  18.869  37.692  1.00  0.00     0.187 HD
BRANCH   4   6
HETATM    6  N2  UNL     1      23.098  20.805  38.260  1.00  0.00    -0.217 N 
HETATM    7  C4  UNL     1      23.892  21.896  38.071  1.00  0.00     0.125 A 
HETATM    8  C5  UNL     1      23.463  23.189  38.254  1.00  0.00     0.067 A 
HETATM    9  C6  UNL     1      22.160  23.389  38.650  1.00  0.00     0.103 A 
HETATM   10  N4  UNL     1      21.360  22.330  38.842  1.00  0.00    -0.293 N 
HETATM   11  C7  UNL     1      21.844  21.083  38.644  1.00  0.00     0.346 A 
ATOM     12  H4  UNL     1      20.393  22.465  39.135  1.00  0.00     0.172 HD
HETATM   13  O1  UNL     1      21.063  20.119  38.832  1.00  0.00    -0.245 OA
BRANCH   9  14
HETATM   14  N3  UNL     1      21.659  24.579  38.850  1.00  0.00    -0.385 N 
ATOM     15  H32 UNL     1      20.843  24.853  38.304  1.00  0.00     0.157 HD
ATOM     16  H31 UNL     1      22.052  25.234  39.527  1.00  0.00     0.157 HD
ENDBRANCH   9  14
ENDBRANCH   4   6
ENDBRANCH   3   4
TORSDOF 3
ENDMDL
MODEL 3
REMARK VINA RESULT: -3.732734443      2.912      5.077
REMARK  3 active torsions:
REMARK  status: ('A' for Active; 'I' for Inactive)
REMARK    1  A    between atoms: C3_3  and  N1_4 
REMARK    2  A    between atoms: N1_4  and  N2_6 
REMARK    3  A    between atoms: C6_9  and  N3_10 
ROOT
HETATM    1  C1  UNL     1      24.895  16.494  37.170  1.00  0.00     0.018 C 
HETATM    2  C2  UNL     1      24.761  17.615  37.607  1.00  0.00    -0.071 C 
HETATM    3  C3  UNL     1      24.595  18.983  38.169  1.00  0.00     0.171 C 
ENDROOT
BRANCH   3   4
HETATM    4  N1  UNL     1      23.338  19.516  37.848  1.00  0.00    -0.294 N 
ATOM      5  H1  UNL     1      22.797  18.937  37.206  1.00  0.00     0.187 HD
BRANCH   4   6
HETATM    6  N2  UNL     1      22.693  20.677  38.234  1.00  0.00    -0.217 N 
HETATM    7  C4  UNL     1      21.525  20.589  38.932  1.00  0.00     0.125 A 
HETATM    8  C5  UNL     1      20.820  21.683  39.373  1.00  0.00     0.067 A 
HETATM    9  C6  UNL     1      21.323  22.933  39.094  1.00  0.00     0.103 A 
HETATM   10  N4  UNL     1      22.470  23.044  38.409  1.00  0.00    -0.293 N 
HETATM   11  C7  UNL     1      23.116  21.927  38.002  1.00  0.00     0.346 A 
ATOM     12  H4  UNL     1      22.853  23.965  38.195  1.00  0.00     0.172 HD
HETATM   13  O1  UNL     1      24.187  22.073  37.366  1.00  0.00    -0.245 OA
BRANCH   9  14
HETATM   14  N3  UNL     1      20.725  24.033  39.470  1.00  0.00    -0.385 N 
ATOM     15  H32 UNL     1      21.307  24.813  39.775  1.00  0.00     0.157 HD
ATOM     16  H31 UNL     1      19.711  24.136  39.468  1.00  0.00     0.157 HD
ENDBRANCH   9  14
ENDBRANCH   4   6
ENDBRANCH   3   4
TORSDOF 3
ENDMDL
MODEL 4
REMARK VINA RESULT: -3.726524299      5.021      6.613
REMARK  3 active torsions:
REMARK  status: ('A' for Active; 'I' for Inactive)
REMARK    1  A    between atoms: C3_3  and  N1_4 
REMARK    2  A    between atoms: N1_4  and  N2_6 
REMARK    3  A    between atoms: C6_9  and  N3_10 
ROOT
HETATM    1  C1  UNL     1      22.246  22.390  38.108  1.00  0.00     0.018 C 
HETATM    2  C2  UNL     1      22.419  21.192  38.153  1.00  0.00    -0.071 C 
HETATM    3  C3  UNL     1      22.625  19.721  38.235  1.00  0.00     0.171 C 
ENDROOT
BRANCH   3   4
HETATM    4  N1  UNL     1      23.985  19.392  38.140  1.00  0.00    -0.294 N 
ATOM      5  H1  UNL     1      24.612  20.178  38.308  1.00  0.00     0.187 HD
BRANCH   4   6
HETATM    6  N2  UNL     1      24.638  18.204  37.863  1.00  0.00    -0.217 N 
HETATM    7  C4  UNL     1      24.021  17.270  37.086  1.00  0.00     0.125 A 
HETATM    8  C5  UNL     1      24.593  16.068  36.742  1.00  0.00     0.067 A 
HETATM    9  C6  UNL     1      25.859  15.798  37.209  1.00  0.00     0.103 A 
HETATM   10  N4  UNL     1      26.486  16.702  37.975  1.00  0.00    -0.293 N 
HETATM   11  C7  UNL     1      25.866  17.866  38.278  1.00  0.00     0.346 A 
ATOM     12  H4  UNL     1      27.424  16.514  38.328  1.00  0.00     0.172 HD
HETATM   13  O1  UNL     1      26.487  18.687  38.995  1.00  0.00    -0.245 OA
BRANCH   9  14
HETATM   14  N3  UNL     1      26.487  14.684  36.938  1.00  0.00    -0.385 N 
ATOM     15  H32 UNL     1      27.326  14.465  37.476  1.00  0.00     0.157 HD
ATOM     16  H31 UNL     1      26.170  14.037  36.217  1.00  0.00     0.157 HD
ENDBRANCH   9  14
ENDBRANCH   4   6
ENDBRANCH   3   4
TORSDOF 3
ENDMDL
MODEL 5
REMARK VINA RESULT: -3.494098618      1.602      2.229
REMARK  3 active torsions:
REMARK  status: ('A' for Active; 'I' for Inactive)
REMARK    1  A    between atoms: C3_3  and  N1_4 
REMARK    2  A    between atoms: N1_4  and  N2_6 
REMARK    3  A    between atoms: C6_9  and  N3_10 
ROOT
HETATM    1  C1  UNL     1      24.563  25.730  39.724  1.00  0.00     0.018 C 
HETATM    2  C2  UNL     1      23.551  25.414  39.137  1.00  0.00    -0.071 C 
HETATM    3  C3  UNL     1      22.295  25.045  38.429  1.00  0.00     0.171 C 
ENDROOT
BRANCH   3   4
HETATM    4  N1  UNL     1      21.799  23.814  38.881  1.00  0.00    -0.294 N 
ATOM      5  H1  UNL     1      20.996  23.897  39.505  1.00  0.00     0.187 HD
BRANCH   4   6
HETATM    6  N2  UNL     1      22.191  22.509  38.644  1.00  0.00    -0.217 N 
HETATM    7  C4  UNL     1      23.379  22.273  38.018  1.00  0.00     0.125 A 
HETATM    8  C5  UNL     1      23.861  21.013  37.753  1.00  0.00     0.067 A 
HETATM    9  C6  UNL     1      23.101  19.934  38.143  1.00  0.00     0.103 A 
HETATM   10  N4  UNL     1      21.929  20.142  38.761  1.00  0.00    -0.293 N 
HETATM   11  C7  UNL     1      21.511  21.407  38.991  1.00  0.00     0.346 A 
ATOM     12  H4  UNL     1      21.357  19.351  39.054  1.00  0.00     0.172 HD
HETATM   13  O1  UNL     1      20.410  21.560  39.574  1.00  0.00    -0.245 OA
BRANCH   9  14
HETATM   14  N3  UNL     1      23.473  18.698  37.935  1.00  0.00    -0.385 N 
ATOM     15  H32 UNL     1      24.298  18.539  37.357  1.00  0.00     0.157 HD
ATOM     16  H31 UNL     1      22.974  17.901  38.328  1.00  0.00     0.157 HD
ENDBRANCH   9  14
ENDBRANCH   4   6
ENDBRANCH   3   4
TORSDOF 3
ENDMDL
