MODEL 1
REMARK VINA RESULT: -8.216929953      0.000      0.000
REMARK  6 active torsions:
REMARK  status: ('A' for Active; 'I' for Inactive)
REMARK    1  A    between atoms: C2_2  and  C3_3 
REMARK    2  A    between atoms: C3_3  and  C4_4 
REMARK    3  A    between atoms: C3_3  and  N1_7 
REMARK    4  A    between atoms: C4_4  and  O1_5 
REMARK    5  A    between atoms: C16_26  and  N4_27 
REMARK    6  A    between atoms: N4_27  and  C17_29 
ROOT
HETATM    1  N1  UNL     1      -1.235  44.756   8.959  1.00  0.00     0.103 N 
HETATM    2  C5  UNL     1      -2.317  44.808   9.902  1.00  0.00     0.314 C 
HETATM    3  C6  UNL     1      -2.977  43.493   9.752  1.00  0.00     0.005 A 
HETATM    4  C7  UNL     1      -3.841  42.798  10.619  1.00  0.00     0.081 A 
HETATM    5  C8  UNL     1      -4.067  43.397  11.928  1.00  0.00     0.102 C 
HETATM    6  N2  UNL     1      -4.210  43.871  12.984  1.00  0.00    -0.191 NA
HETATM    7  C9  UNL     1      -4.329  41.581  10.240  1.00  0.00     0.072 A 
HETATM    8  C10 UNL     1      -5.144  40.778  11.122  1.00  0.00     0.076 A 
HETATM    9  C11 UNL     1      -6.259  41.195  11.777  1.00  0.00     0.170 A 
HETATM   10  F1  UNL     1      -6.837  42.392  11.476  1.00  0.00    -0.202 F 
HETATM   11  C12 UNL     1      -6.939  40.405  12.711  1.00  0.00     0.159 A 
HETATM   12  F2  UNL     1      -8.039  40.886  13.324  1.00  0.00    -0.203 F 
HETATM   13  C13 UNL     1      -6.498  39.140  13.010  1.00  0.00     0.091 A 
HETATM   14  C14 UNL     1      -5.376  38.693  12.360  1.00  0.00     0.159 A 
HETATM   15  F3  UNL     1      -4.921  37.453  12.635  1.00  0.00    -0.203 F 
HETATM   16  C15 UNL     1      -4.714  39.477  11.446  1.00  0.00     0.170 A 
HETATM   17  F4  UNL     1      -3.600  39.042  10.816  1.00  0.00    -0.202 F 
HETATM   18  N3  UNL     1      -3.950  41.072   9.016  1.00  0.00    -0.340 N 
ATOM     19  H3  UNL     1      -4.320  40.161   8.745  1.00  0.00     0.167 HD
HETATM   20  C16 UNL     1      -3.138  41.687   8.165  1.00  0.00     0.110 A 
HETATM   21  C23 UNL     1      -2.647  42.926   8.551  1.00  0.00     0.023 A 
HETATM   22  C24 UNL     1      -1.741  43.905   7.892  1.00  0.00     0.316 C 
ENDROOT
BRANCH   1  23
HETATM   23  C3  UNL     1      -0.940  46.076   8.501  1.00  0.00     0.246 C 
BRANCH  23  24
HETATM   24  C2  UNL     1       0.454  46.529   8.888  1.00  0.00     0.033 C 
HETATM   25  C1  UNL     1       1.194  46.849   7.598  1.00  0.00     0.007 C 
ENDBRANCH  23  24
BRANCH  23  26
HETATM   26  C4  UNL     1      -1.902  47.065   9.095  1.00  0.00     0.199 C 
BRANCH  26  27
HETATM   27  O1  UNL     1      -2.477  47.916   8.166  1.00  0.00    -0.399 OA
ATOM     28  H1  UNL     1      -3.427  47.906   8.171  1.00  0.00     0.209 HD
ENDBRANCH  26  27
ENDBRANCH  23  26
ENDBRANCH   1  23
BRANCH  20  29
HETATM   29  N4  UNL     1      -2.786  41.245   7.061  1.00  0.00    -0.371 N 
ATOM     30  H4  UNL     1      -1.879  40.780   7.115  1.00  0.00     0.161 HD
BRANCH  29  31
HETATM   31  C17 UNL     1      -3.303  41.214   5.758  1.00  0.00     0.086 C 
HETATM   32  C18 UNL     1      -4.351  40.111   5.572  1.00  0.00     0.055 C 
HETATM   33  C19 UNL     1      -4.493  39.844   4.091  1.00  0.00     0.274 C 
HETATM   34  N5  UNL     1      -4.727  41.094   3.393  1.00  0.00     0.084 N 
HETATM   35  C20 UNL     1      -5.643  40.974   2.301  1.00  0.00     0.309 C 
HETATM   36  C21 UNL     1      -5.082  42.142   4.318  1.00  0.00     0.274 C 
HETATM   37  C22 UNL     1      -3.877  42.467   5.202  1.00  0.00     0.055 C 
ENDBRANCH  29  31
ENDBRANCH  20  29
TORSDOF 6
ENDMDL
MODEL 2
REMARK VINA RESULT: -8.201419346      3.183      6.782
REMARK  6 active torsions:
REMARK  status: ('A' for Active; 'I' for Inactive)
REMARK    1  A    between atoms: C2_2  and  C3_3 
REMARK    2  A    between atoms: C3_3  and  C4_4 
REMARK    3  A    between atoms: C3_3  and  N1_7 
REMARK    4  A    between atoms: C4_4  and  O1_5 
REMARK    5  A    between atoms: C16_26  and  N4_27 
REMARK    6  A    between atoms: N4_27  and  C17_29 
ROOT
HETATM    1  N1  UNL     1      -2.950  43.901   9.167  1.00  0.00     0.103 N 
HETATM    2  C5  UNL     1      -2.900  43.926   7.732  1.00  0.00     0.314 C 
HETATM    3  C6  UNL     1      -3.198  42.528   7.347  1.00  0.00     0.005 A 
HETATM    4  C7  UNL     1      -3.648  41.992   6.126  1.00  0.00     0.081 A 
HETATM    5  C8  UNL     1      -3.978  42.949   5.077  1.00  0.00     0.102 C 
HETATM    6  N2  UNL     1      -4.271  43.729   4.261  1.00  0.00    -0.191 NA
HETATM    7  C9  UNL     1      -3.845  40.645   6.022  1.00  0.00     0.072 A 
HETATM    8  C10 UNL     1      -4.393  40.045   4.827  1.00  0.00     0.076 A 
HETATM    9  C11 UNL     1      -3.940  40.234   3.560  1.00  0.00     0.170 A 
HETATM   10  F1  UNL     1      -2.754  40.866   3.331  1.00  0.00    -0.202 F 
HETATM   11  C12 UNL     1      -4.586  39.718   2.431  1.00  0.00     0.159 A 
HETATM   12  F2  UNL     1      -4.080  39.948   1.203  1.00  0.00    -0.203 F 
HETATM   13  C13 UNL     1      -5.735  38.977   2.560  1.00  0.00     0.091 A 
HETATM   14  C14 UNL     1      -6.212  38.768   3.829  1.00  0.00     0.159 A 
HETATM   15  F3  UNL     1      -7.337  38.043   3.984  1.00  0.00    -0.203 F 
HETATM   16  C15 UNL     1      -5.571  39.280   4.932  1.00  0.00     0.170 A 
HETATM   17  F4  UNL     1      -6.049  39.087   6.180  1.00  0.00    -0.202 F 
HETATM   18  N3  UNL     1      -3.599  39.857   7.126  1.00  0.00    -0.340 N 
ATOM     19  H3  UNL     1      -3.752  38.853   7.035  1.00  0.00     0.167 HD
HETATM   20  C16 UNL     1      -3.176  40.315   8.298  1.00  0.00     0.110 A 
HETATM   21  C23 UNL     1      -2.973  41.683   8.399  1.00  0.00     0.023 A 
HETATM   22  C24 UNL     1      -2.509  42.558   9.510  1.00  0.00     0.316 C 
ENDROOT
BRANCH   1  23
HETATM   23  C3  UNL     1      -2.079  44.904   9.690  1.00  0.00     0.246 C 
BRANCH  23  24
HETATM   24  C2  UNL     1      -1.611  45.882   8.628  1.00  0.00     0.033 C 
HETATM   25  C1  UNL     1      -1.983  47.275   9.111  1.00  0.00     0.007 C 
ENDBRANCH  23  24
BRANCH  23  26
HETATM   26  C4  UNL     1      -0.848  44.276  10.277  1.00  0.00     0.199 C 
BRANCH  26  27
HETATM   27  O1  UNL     1       0.320  44.596   9.605  1.00  0.00    -0.399 OA
ATOM     28  H1  UNL     1       1.080  44.677  10.170  1.00  0.00     0.209 HD
ENDBRANCH  26  27
ENDBRANCH  23  26
ENDBRANCH   1  23
BRANCH  20  29
HETATM   29  N4  UNL     1      -2.951  39.622   9.301  1.00  0.00    -0.371 N 
ATOM     30  H4  UNL     1      -2.088  39.086   9.200  1.00  0.00     0.161 HD
BRANCH  29  31
HETATM   31  C17 UNL     1      -3.568  39.378  10.537  1.00  0.00     0.086 C 
HETATM   32  C18 UNL     1      -2.662  39.733  11.721  1.00  0.00     0.055 C 
HETATM   33  C19 UNL     1      -3.189  39.021  12.945  1.00  0.00     0.274 C 
HETATM   34  N5  UNL     1      -4.605  39.300  13.097  1.00  0.00     0.084 N 
HETATM   35  C20 UNL     1      -5.013  39.447  14.460  1.00  0.00     0.309 C 
HETATM   36  C21 UNL     1      -5.003  40.407  12.263  1.00  0.00     0.274 C 
HETATM   37  C22 UNL     1      -4.893  39.999  10.793  1.00  0.00     0.055 C 
ENDBRANCH  29  31
ENDBRANCH  20  29
TORSDOF 6
ENDMDL
MODEL 3
REMARK VINA RESULT: -8.175262573      0.704      1.117
REMARK  6 active torsions:
REMARK  status: ('A' for Active; 'I' for Inactive)
REMARK    1  A    between atoms: C2_2  and  C3_3 
REMARK    2  A    between atoms: C3_3  and  C4_4 
REMARK    3  A    between atoms: C3_3  and  N1_7 
REMARK    4  A    between atoms: C4_4  and  O1_5 
REMARK    5  A    between atoms: C16_26  and  N4_27 
REMARK    6  A    between atoms: N4_27  and  C17_29 
ROOT
HETATM    1  N1  UNL     1      -1.075  45.010   9.341  1.00  0.00     0.103 N 
HETATM    2  C5  UNL     1      -2.188  45.023  10.249  1.00  0.00     0.314 C 
HETATM    3  C6  UNL     1      -2.855  43.725  10.003  1.00  0.00     0.005 A 
HETATM    4  C7  UNL     1      -3.755  42.993  10.801  1.00  0.00     0.081 A 
HETATM    5  C8  UNL     1      -4.020  43.522  12.132  1.00  0.00     0.102 C 
HETATM    6  N2  UNL     1      -4.195  43.938  13.208  1.00  0.00    -0.191 NA
HETATM    7  C9  UNL     1      -4.241  41.805  10.337  1.00  0.00     0.072 A 
HETATM    8  C10 UNL     1      -5.094  40.964  11.145  1.00  0.00     0.076 A 
HETATM    9  C11 UNL     1      -6.227  41.357  11.785  1.00  0.00     0.170 A 
HETATM   10  F1  UNL     1      -6.783  42.576  11.531  1.00  0.00    -0.202 F 
HETATM   11  C12 UNL     1      -6.946  40.524  12.649  1.00  0.00     0.159 A 
HETATM   12  F2  UNL     1      -8.061  40.983  13.251  1.00  0.00    -0.203 F 
HETATM   13  C13 UNL     1      -6.528  39.239  12.892  1.00  0.00     0.091 A 
HETATM   14  C14 UNL     1      -5.388  38.816  12.257  1.00  0.00     0.159 A 
HETATM   15  F3  UNL     1      -4.956  37.558  12.477  1.00  0.00    -0.203 F 
HETATM   16  C15 UNL     1      -4.688  39.642  11.410  1.00  0.00     0.170 A 
HETATM   17  F4  UNL     1      -3.558  39.230  10.796  1.00  0.00    -0.202 F 
HETATM   18  N3  UNL     1      -3.826  41.361   9.100  1.00  0.00    -0.340 N 
ATOM     19  H3  UNL     1      -4.195  40.471   8.767  1.00  0.00     0.167 HD
HETATM   20  C16 UNL     1      -2.979  42.012   8.313  1.00  0.00     0.110 A 
HETATM   21  C23 UNL     1      -2.490  43.222   8.784  1.00  0.00     0.023 A 
HETATM   22  C24 UNL     1      -1.552  44.226   8.212  1.00  0.00     0.316 C 
ENDROOT
BRANCH   1  23
HETATM   23  C3  UNL     1      -0.752  46.350   8.967  1.00  0.00     0.246 C 
BRANCH  23  24
HETATM   24  C2  UNL     1      -1.833  46.997   8.123  1.00  0.00     0.033 C 
HETATM   25  C1  UNL     1      -2.266  48.263   8.847  1.00  0.00     0.007 C 
ENDBRANCH  23  24
BRANCH  23  26
HETATM   26  C4  UNL     1       0.512  46.378   8.156  1.00  0.00     0.199 C 
BRANCH  26  27
HETATM   27  O1  UNL     1       0.691  47.550   7.439  1.00  0.00    -0.399 OA
ATOM     28  H1  UNL     1       0.479  48.336   7.928  1.00  0.00     0.209 HD
ENDBRANCH  26  27
ENDBRANCH  23  26
ENDBRANCH   1  23
BRANCH  20  29
HETATM   29  N4  UNL     1      -2.593  41.628   7.199  1.00  0.00    -0.371 N 
ATOM     30  H4  UNL     1      -1.623  41.313   7.226  1.00  0.00     0.161 HD
BRANCH  29  31
HETATM   31  C17 UNL     1      -3.137  41.511   5.911  1.00  0.00     0.086 C 
HETATM   32  C18 UNL     1      -4.125  40.345   5.798  1.00  0.00     0.055 C 
HETATM   33  C19 UNL     1      -4.285  40.005   4.335  1.00  0.00     0.274 C 
HETATM   34  N5  UNL     1      -4.604  41.209   3.589  1.00  0.00     0.084 N 
HETATM   35  C20 UNL     1      -5.536  40.990   2.526  1.00  0.00     0.309 C 
HETATM   36  C21 UNL     1      -4.997  42.275   4.478  1.00  0.00     0.274 C 
HETATM   37  C22 UNL     1      -3.792  42.705   5.316  1.00  0.00     0.055 C 
ENDBRANCH  29  31
ENDBRANCH  20  29
TORSDOF 6
ENDMDL
MODEL 4
REMARK VINA RESULT: -7.966340220      0.675      1.067
REMARK  6 active torsions:
REMARK  status: ('A' for Active; 'I' for Inactive)
REMARK    1  A    between atoms: C2_2  and  C3_3 
REMARK    2  A    between atoms: C3_3  and  C4_4 
REMARK    3  A    between atoms: C3_3  and  N1_7 
REMARK    4  A    between atoms: C4_4  and  O1_5 
REMARK    5  A    between atoms: C16_26  and  N4_27 
REMARK    6  A    between atoms: N4_27  and  C17_29 
ROOT
HETATM    1  N1  UNL     1      -1.122  44.233   8.790  1.00  0.00     0.103 N 
HETATM    2  C5  UNL     1      -1.985  44.394   9.926  1.00  0.00     0.314 C 
HETATM    3  C6  UNL     1      -2.808  43.164   9.918  1.00  0.00     0.005 A 
HETATM    4  C7  UNL     1      -3.560  42.559  10.943  1.00  0.00     0.081 A 
HETATM    5  C8  UNL     1      -3.457  43.161  12.266  1.00  0.00     0.102 C 
HETATM    6  N2  UNL     1      -3.336  43.632  13.326  1.00  0.00    -0.191 NA
HETATM    7  C9  UNL     1      -4.248  41.411  10.676  1.00  0.00     0.072 A 
HETATM    8  C10 UNL     1      -4.962  40.693  11.706  1.00  0.00     0.076 A 
HETATM    9  C11 UNL     1      -5.873  41.224  12.563  1.00  0.00     0.170 A 
HETATM   10  F1  UNL     1      -6.358  42.484  12.371  1.00  0.00    -0.202 F 
HETATM   11  C12 UNL     1      -6.443  40.503  13.618  1.00  0.00     0.159 A 
HETATM   12  F2  UNL     1      -7.340  41.097  14.430  1.00  0.00    -0.203 F 
HETATM   13  C13 UNL     1      -6.099  39.192  13.835  1.00  0.00     0.091 A 
HETATM   14  C14 UNL     1      -5.184  38.630  12.983  1.00  0.00     0.159 A 
HETATM   15  F3  UNL     1      -4.829  37.343  13.173  1.00  0.00    -0.203 F 
HETATM   16  C15 UNL     1      -4.628  39.347  11.950  1.00  0.00     0.170 A 
HETATM   17  F4  UNL     1      -3.715  38.797  11.119  1.00  0.00    -0.202 F 
HETATM   18  N3  UNL     1      -4.176  40.880   9.405  1.00  0.00    -0.340 N 
ATOM     19  H3  UNL     1      -4.692  40.021   9.219  1.00  0.00     0.167 HD
HETATM   20  C16 UNL     1      -3.479  41.411   8.407  1.00  0.00     0.110 A 
HETATM   21  C23 UNL     1      -2.785  42.580   8.680  1.00  0.00     0.023 A 
HETATM   22  C24 UNL     1      -1.919  43.460   7.850  1.00  0.00     0.316 C 
ENDROOT
BRANCH   1  23
HETATM   23  C3  UNL     1      -0.773  45.517   8.273  1.00  0.00     0.246 C 
BRANCH  23  24
HETATM   24  C2  UNL     1       0.512  46.058   8.871  1.00  0.00     0.033 C 
HETATM   25  C1  UNL     1       1.361  46.568   7.717  1.00  0.00     0.007 C 
ENDBRANCH  23  24
BRANCH  23  26
HETATM   26  C4  UNL     1      -1.851  46.517   8.578  1.00  0.00     0.199 C 
BRANCH  26  27
HETATM   27  O1  UNL     1      -2.090  47.415   7.552  1.00  0.00    -0.399 OA
ATOM     28  H1  UNL     1      -2.602  48.172   7.814  1.00  0.00     0.209 HD
ENDBRANCH  26  27
ENDBRANCH  23  26
ENDBRANCH   1  23
BRANCH  20  29
HETATM   29  N4  UNL     1      -3.402  40.948   7.260  1.00  0.00    -0.371 N 
ATOM     30  H4  UNL     1      -2.514  40.467   7.108  1.00  0.00     0.161 HD
BRANCH  29  31
HETATM   31  C17 UNL     1      -4.211  40.909   6.114  1.00  0.00     0.086 C 
HETATM   32  C18 UNL     1      -3.814  41.971   5.083  1.00  0.00     0.055 C 
HETATM   33  C19 UNL     1      -4.980  42.173   4.144  1.00  0.00     0.274 C 
HETATM   34  N5  UNL     1      -5.415  40.888   3.627  1.00  0.00     0.084 N 
HETATM   35  C20 UNL     1      -5.831  40.936   2.259  1.00  0.00     0.309 C 
HETATM   36  C21 UNL     1      -4.427  39.870   3.885  1.00  0.00     0.274 C 
HETATM   37  C22 UNL     1      -4.340  39.617   5.391  1.00  0.00     0.055 C 
ENDBRANCH  29  31
ENDBRANCH  20  29
TORSDOF 6
ENDMDL
MODEL 5
REMARK VINA RESULT: -7.945698095      4.103      7.113
REMARK  6 active torsions:
REMARK  status: ('A' for Active; 'I' for Inactive)
REMARK    1  A    between atoms: C2_2  and  C3_3 
REMARK    2  A    between atoms: C3_3  and  C4_4 
REMARK    3  A    between atoms: C3_3  and  N1_7 
REMARK    4  A    between atoms: C4_4  and  O1_5 
REMARK    5  A    between atoms: C16_26  and  N4_27 
REMARK    6  A    between atoms: N4_27  and  C17_29 
ROOT
HETATM    1  N1  UNL     1      -4.454  39.792  11.743  1.00  0.00     0.103 N 
HETATM    2  C5  UNL     1      -3.061  39.653  12.065  1.00  0.00     0.314 C 
HETATM    3  C6  UNL     1      -2.372  40.255  10.902  1.00  0.00     0.005 A 
HETATM    4  C7  UNL     1      -1.060  40.748  10.770  1.00  0.00     0.081 A 
HETATM    5  C8  UNL     1      -0.252  40.777  11.983  1.00  0.00     0.102 C 
HETATM    6  N2  UNL     1       0.369  40.827  12.969  1.00  0.00    -0.191 NA
HETATM    7  C9  UNL     1      -0.656  41.255   9.569  1.00  0.00     0.072 A 
HETATM    8  C10 UNL     1       0.645  41.860   9.396  1.00  0.00     0.076 A 
HETATM    9  C11 UNL     1       1.836  41.302   9.737  1.00  0.00     0.170 A 
HETATM   10  F1  UNL     1       1.913  39.988  10.092  1.00  0.00    -0.202 F 
HETATM   11  C12 UNL     1       3.053  41.986   9.654  1.00  0.00     0.159 A 
HETATM   12  F2  UNL     1       4.197  41.368  10.012  1.00  0.00    -0.203 F 
HETATM   13  C13 UNL     1       3.098  43.284   9.209  1.00  0.00     0.091 A 
HETATM   14  C14 UNL     1       1.910  43.870   8.854  1.00  0.00     0.159 A 
HETATM   15  F3  UNL     1       1.925  45.144   8.412  1.00  0.00    -0.203 F 
HETATM   16  C15 UNL     1       0.718  43.191   8.941  1.00  0.00     0.170 A 
HETATM   17  F4  UNL     1      -0.454  43.773   8.605  1.00  0.00    -0.202 F 
HETATM   18  N3  UNL     1      -1.556  41.269   8.524  1.00  0.00    -0.340 N 
ATOM     19  H3  UNL     1      -1.242  41.653   7.633  1.00  0.00     0.167 HD
HETATM   20  C16 UNL     1      -2.802  40.819   8.599  1.00  0.00     0.110 A 
HETATM   21  C23 UNL     1      -3.208  40.300   9.820  1.00  0.00     0.023 A 
HETATM   22  C24 UNL     1      -4.489  39.706  10.291  1.00  0.00     0.316 C 
ENDROOT
BRANCH   1  23
HETATM   23  C3  UNL     1      -5.192  38.738  12.363  1.00  0.00     0.246 C 
BRANCH  23  24
HETATM   24  C2  UNL     1      -6.203  39.248  13.371  1.00  0.00     0.033 C 
HETATM   25  C1  UNL     1      -7.187  40.124  12.611  1.00  0.00     0.007 C 
ENDBRANCH  23  24
BRANCH  23  26
HETATM   26  C4  UNL     1      -4.266  37.814  13.102  1.00  0.00     0.199 C 
BRANCH  26  27
HETATM   27  O1  UNL     1      -4.812  36.569  13.367  1.00  0.00    -0.399 OA
ATOM     28  H1  UNL     1      -4.780  36.322  14.284  1.00  0.00     0.209 HD
ENDBRANCH  26  27
ENDBRANCH  23  26
ENDBRANCH   1  23
BRANCH  20  29
HETATM   29  N4  UNL     1      -3.625  40.825   7.672  1.00  0.00    -0.371 N 
ATOM     30  H4  UNL     1      -4.566  40.615   8.004  1.00  0.00     0.161 HD
BRANCH  29  31
HETATM   31  C17 UNL     1      -3.604  41.044   6.286  1.00  0.00     0.086 C 
HETATM   32  C18 UNL     1      -4.535  40.090   5.530  1.00  0.00     0.055 C 
HETATM   33  C19 UNL     1      -4.108  40.067   4.081  1.00  0.00     0.274 C 
HETATM   34  N5  UNL     1      -4.016  41.426   3.581  1.00  0.00     0.084 N 
HETATM   35  C20 UNL     1      -4.447  41.564   2.224  1.00  0.00     0.309 C 
HETATM   36  C21 UNL     1      -4.665  42.349   4.479  1.00  0.00     0.274 C 
HETATM   37  C22 UNL     1      -3.881  42.417   5.790  1.00  0.00     0.055 C 
ENDBRANCH  29  31
ENDBRANCH  20  29
TORSDOF 6
ENDMDL
