MODEL 1
REMARK VINA RESULT: -9.537975269      0.000      0.000
REMARK  5 active torsions:
REMARK  status: ('A' for Active; 'I' for Inactive)
REMARK    1  A    between atoms: N3_11  and  C7_12 
REMARK    2  A    between atoms: C8_13  and  C9_14 
REMARK    3  A    between atoms: C14_21  and  N4_22 
REMARK       I    between atoms: N4_22  and  C15_24 
REMARK    4  A    between atoms: C15_24  and  C16_26 
REMARK    5  A    between atoms: C20_30  and  O2_31 
ROOT
HETATM    1  C9  UNL     1      -2.496  41.935   8.839  1.00  0.00     0.014 C 
HETATM    2  C10 UNL     1      -3.473  43.078   8.861  1.00  0.00     0.022 C 
HETATM    3  C11 UNL     1      -2.985  44.245   8.068  1.00  0.00     0.080 C 
HETATM    4  C12 UNL     1      -1.823  44.820   8.800  1.00  0.00     0.246 C 
HETATM    5  F1  UNL     1      -2.258  46.049   9.333  1.00  0.00    -0.206 F 
HETATM    6  F2  UNL     1      -0.773  45.219   7.957  1.00  0.00    -0.206 F 
HETATM    7  C13 UNL     1      -1.390  43.966   9.920  1.00  0.00     0.111 C 
HETATM    8  C14 UNL     1      -1.353  42.478   9.757  1.00  0.00     0.052 C 
HETATM    9  C19 UNL     1      -1.637  41.979  11.179  1.00  0.00     0.070 C 
HETATM   10  C20 UNL     1      -1.783  40.529  11.335  1.00  0.00     0.066 C 
HETATM   11  C21 UNL     1      -1.869  39.809  10.030  1.00  0.00     0.050 C 
HETATM   12  C22 UNL     1      -3.000  40.661   9.406  1.00  0.00     0.075 C 
HETATM   13  C23 UNL     1      -3.973  40.613  10.496  1.00  0.00     0.251 C 
HETATM   14  F3  UNL     1      -4.801  39.480  10.315  1.00  0.00    -0.206 F 
HETATM   15  F4  UNL     1      -4.828  41.611  10.728  1.00  0.00    -0.206 F 
HETATM   16  C24 UNL     1      -3.238  40.295  11.806  1.00  0.00     0.117 C 
ENDROOT
BRANCH   1  17
HETATM   17  C8  UNL     1      -1.981  41.648   7.482  1.00  0.00     0.003 C 
HETATM   18  C7  UNL     1      -2.669  41.538   6.249  1.00  0.00     0.088 C 
BRANCH  18  19
HETATM   19  N3  UNL     1      -3.657  40.571   5.893  1.00  0.00    -0.350 N 
HETATM   20  C4  UNL     1      -4.640  40.501   4.902  1.00  0.00     0.062 A 
HETATM   21  C3  UNL     1      -5.295  41.078   3.784  1.00  0.00     0.057 A 
HETATM   22  C5  UNL     1      -5.085  39.333   5.341  1.00  0.00     0.070 A 
HETATM   23  C2  UNL     1      -6.354  40.446   3.181  1.00  0.00     0.024 A 
HETATM   24  C1  UNL     1      -6.988  41.108   2.019  1.00  0.00     0.070 C 
HETATM   25  N2  UNL     1      -6.760  39.266   3.671  1.00  0.00    -0.305 N 
HETATM   26  N1  UNL     1      -6.160  38.722   4.707  1.00  0.00    -0.301 N 
ATOM     27  H2  UNL     1      -7.546  38.783   3.235  1.00  0.00     0.186 HD
ATOM     28  H1  UNL     1      -6.493  37.824   5.056  1.00  0.00     0.186 HD
HETATM   29  C6  UNL     1      -4.077  39.299   6.379  1.00  0.00     0.189 A 
ENDBRANCH  18  19
ENDBRANCH   1  17
BRANCH   8  30
HETATM   30  N4  UNL     1      -0.057  42.090   9.364  1.00  0.00    -0.350 N 
HETATM   31  C15 UNL     1       1.131  42.404  10.021  1.00  0.00     0.222 C 
HETATM   32  O1  UNL     1       1.199  43.067  11.052  1.00  0.00    -0.273 OA
ATOM     33  H4  UNL     1       0.020  41.525   8.518  1.00  0.00     0.163 HD
BRANCH  31  34
HETATM   34  C16 UNL     1       2.465  41.933   9.493  1.00  0.00     0.078 A 
HETATM   35  C17 UNL     1       2.537  41.069   8.286  1.00  0.00     0.015 A 
HETATM   36  C18 UNL     1       2.690  40.435   9.608  1.00  0.00     0.015 A 
ENDBRANCH  31  34
ENDBRANCH   8  30
BRANCH  10  37
HETATM   37  O2  UNL     1      -0.981  39.907  12.264  1.00  0.00    -0.390 OA
ATOM     38  H2  UNL     1      -0.504  39.135  11.983  1.00  0.00     0.210 HD
ENDBRANCH  10  37
TORSDOF 5
ENDMDL
MODEL 2
REMARK VINA RESULT: -8.002008888      1.662      1.862
REMARK  5 active torsions:
REMARK  status: ('A' for Active; 'I' for Inactive)
REMARK    1  A    between atoms: N3_11  and  C7_12 
REMARK    2  A    between atoms: C8_13  and  C9_14 
REMARK    3  A    between atoms: C14_21  and  N4_22 
REMARK       I    between atoms: N4_22  and  C15_24 
REMARK    4  A    between atoms: C15_24  and  C16_26 
REMARK    5  A    between atoms: C20_30  and  O2_31 
ROOT
HETATM    1  C9  UNL     1      -2.304  41.776   9.274  1.00  0.00     0.014 C 
HETATM    2  C10 UNL     1      -2.664  43.230   9.143  1.00  0.00     0.022 C 
HETATM    3  C11 UNL     1      -1.620  43.998   8.402  1.00  0.00     0.080 C 
HETATM    4  C12 UNL     1      -0.416  44.059   9.274  1.00  0.00     0.246 C 
HETATM    5  F1  UNL     1      -0.313  45.390   9.721  1.00  0.00    -0.206 F 
HETATM    6  F2  UNL     1       0.791  43.889   8.574  1.00  0.00    -0.206 F 
HETATM    7  C13 UNL     1      -0.538  43.190  10.458  1.00  0.00     0.111 C 
HETATM    8  C14 UNL     1      -1.151  41.830  10.329  1.00  0.00     0.052 C 
HETATM    9  C19 UNL     1      -1.788  41.618  11.708  1.00  0.00     0.070 C 
HETATM   10  C20 UNL     1      -2.582  40.396  11.870  1.00  0.00     0.066 C 
HETATM   11  C21 UNL     1      -2.831  39.689  10.579  1.00  0.00     0.050 C 
HETATM   12  C22 UNL     1      -3.384  40.901   9.791  1.00  0.00     0.075 C 
HETATM   13  C23 UNL     1      -4.393  41.370  10.740  1.00  0.00     0.251 C 
HETATM   14  F3  UNL     1      -5.613  40.707  10.469  1.00  0.00    -0.206 F 
HETATM   15  F4  UNL     1      -4.733  42.657  10.836  1.00  0.00    -0.206 F 
HETATM   16  C24 UNL     1      -4.032  40.863  12.143  1.00  0.00     0.117 C 
ENDROOT
BRANCH   1  17
HETATM   17  C8  UNL     1      -1.821  41.188   8.005  1.00  0.00     0.003 C 
HETATM   18  C7  UNL     1      -1.896  41.687   6.683  1.00  0.00     0.088 C 
BRANCH  18  19
HETATM   19  N3  UNL     1      -3.075  41.939   5.918  1.00  0.00    -0.350 N 
HETATM   20  C4  UNL     1      -3.557  41.479   4.690  1.00  0.00     0.062 A 
HETATM   21  C3  UNL     1      -3.398  40.665   3.539  1.00  0.00     0.057 A 
HETATM   22  C5  UNL     1      -4.635  42.245   4.758  1.00  0.00     0.070 A 
HETATM   23  C2  UNL     1      -4.331  40.673   2.533  1.00  0.00     0.024 A 
HETATM   24  C1  UNL     1      -4.099  39.798   1.362  1.00  0.00     0.070 C 
HETATM   25  N2  UNL     1      -5.403  41.470   2.657  1.00  0.00    -0.305 N 
HETATM   26  N1  UNL     1      -5.560  42.228   3.720  1.00  0.00    -0.301 N 
ATOM     27  H2  UNL     1      -6.106  41.488   1.918  1.00  0.00     0.186 HD
ATOM     28  H1  UNL     1      -6.385  42.823   3.785  1.00  0.00     0.186 HD
HETATM   29  C6  UNL     1      -4.237  42.752   6.053  1.00  0.00     0.189 A 
ENDBRANCH  18  19
ENDBRANCH   1  17
BRANCH   8  30
HETATM   30  N4  UNL     1      -0.129  40.882  10.123  1.00  0.00    -0.350 N 
HETATM   31  C15 UNL     1       1.059  40.784  10.843  1.00  0.00     0.222 C 
HETATM   32  O1  UNL     1       1.371  41.523  11.773  1.00  0.00    -0.273 OA
ATOM     33  H4  UNL     1      -0.273  40.202   9.376  1.00  0.00     0.163 HD
BRANCH  31  34
HETATM   34  C16 UNL     1       2.085  39.725  10.519  1.00  0.00     0.078 A 
HETATM   35  C17 UNL     1       3.522  39.944  10.831  1.00  0.00     0.015 A 
HETATM   36  C18 UNL     1       3.075  40.123   9.438  1.00  0.00     0.015 A 
ENDBRANCH  31  34
ENDBRANCH   8  30
BRANCH  10  37
HETATM   37  O2  UNL     1      -2.253  39.558  12.910  1.00  0.00    -0.390 OA
ATOM     38  H2  UNL     1      -2.958  39.262  13.473  1.00  0.00     0.210 HD
ENDBRANCH  10  37
TORSDOF 5
ENDMDL
MODEL 3
REMARK VINA RESULT: -7.864996509      2.654      5.272
REMARK  5 active torsions:
REMARK  status: ('A' for Active; 'I' for Inactive)
REMARK    1  A    between atoms: N3_11  and  C7_12 
REMARK    2  A    between atoms: C8_13  and  C9_14 
REMARK    3  A    between atoms: C14_21  and  N4_22 
REMARK       I    between atoms: N4_22  and  C15_24 
REMARK    4  A    between atoms: C15_24  and  C16_26 
REMARK    5  A    between atoms: C20_30  and  O2_31 
ROOT
HETATM    1  C9  UNL     1      -2.561  42.037   9.819  1.00  0.00     0.014 C 
HETATM    2  C10 UNL     1      -1.214  41.388   9.982  1.00  0.00     0.022 C 
HETATM    3  C11 UNL     1      -1.328  39.982  10.470  1.00  0.00     0.080 C 
HETATM    4  C12 UNL     1      -1.812  40.040  11.876  1.00  0.00     0.246 C 
HETATM    5  F1  UNL     1      -0.725  39.665  12.688  1.00  0.00    -0.206 F 
HETATM    6  F2  UNL     1      -2.763  39.052  12.182  1.00  0.00    -0.206 F 
HETATM    7  C13 UNL     1      -2.226  41.398  12.269  1.00  0.00     0.111 C 
HETATM    8  C14 UNL     1      -2.988  42.257  11.307  1.00  0.00     0.052 C 
HETATM    9  C19 UNL     1      -2.548  43.672  11.701  1.00  0.00     0.070 C 
HETATM   10  C20 UNL     1      -3.044  44.760  10.852  1.00  0.00     0.066 C 
HETATM   11  C21 UNL     1      -3.698  44.271   9.602  1.00  0.00     0.050 C 
HETATM   12  C22 UNL     1      -2.552  43.347   9.126  1.00  0.00     0.075 C 
HETATM   13  C23 UNL     1      -1.430  44.280   9.217  1.00  0.00     0.251 C 
HETATM   14  F3  UNL     1      -1.313  44.970   7.987  1.00  0.00    -0.206 F 
HETATM   15  F4  UNL     1      -0.188  43.873   9.485  1.00  0.00    -0.206 F 
HETATM   16  C24 UNL     1      -1.792  45.400  10.204  1.00  0.00     0.117 C 
ENDROOT
BRANCH   1  17
HETATM   17  C8  UNL     1      -3.535  41.168   9.122  1.00  0.00     0.003 C 
HETATM   18  C7  UNL     1      -3.587  40.761   7.767  1.00  0.00     0.088 C 
BRANCH  18  19
HETATM   19  N3  UNL     1      -3.767  41.592   6.620  1.00  0.00    -0.350 N 
HETATM   20  C4  UNL     1      -3.896  41.349   5.250  1.00  0.00     0.062 A 
HETATM   21  C3  UNL     1      -3.955  40.431   4.170  1.00  0.00     0.057 A 
HETATM   22  C5  UNL     1      -3.967  42.640   4.966  1.00  0.00     0.070 A 
HETATM   23  C2  UNL     1      -4.081  40.871   2.875  1.00  0.00     0.024 A 
HETATM   24  C1  UNL     1      -4.136  39.856   1.799  1.00  0.00     0.070 C 
HETATM   25  N2  UNL     1      -4.147  42.191   2.649  1.00  0.00    -0.305 N 
HETATM   26  N1  UNL     1      -4.094  43.050   3.644  1.00  0.00    -0.301 N 
ATOM     27  H2  UNL     1      -4.241  42.534   1.693  1.00  0.00     0.186 HD
ATOM     28  H1  UNL     1      -4.147  44.047   3.439  1.00  0.00     0.186 HD
HETATM   29  C6  UNL     1      -3.877  42.990   6.367  1.00  0.00     0.189 A 
ENDBRANCH  18  19
ENDBRANCH   1  17
BRANCH   8  30
HETATM   30  N4  UNL     1      -4.368  42.102  11.545  1.00  0.00    -0.350 N 
HETATM   31  C15 UNL     1      -5.037  42.401  12.730  1.00  0.00     0.222 C 
HETATM   32  O1  UNL     1      -4.499  42.855  13.736  1.00  0.00    -0.273 OA
ATOM     33  H4  UNL     1      -4.932  41.736  10.778  1.00  0.00     0.163 HD
BRANCH  31  34
HETATM   34  C16 UNL     1      -6.525  42.181  12.865  1.00  0.00     0.078 A 
HETATM   35  C17 UNL     1      -7.284  41.477  11.799  1.00  0.00     0.015 A 
HETATM   36  C18 UNL     1      -7.364  42.948  11.858  1.00  0.00     0.015 A 
ENDBRANCH  31  34
ENDBRANCH   8  30
BRANCH  10  37
HETATM   37  O2  UNL     1      -3.717  45.789  11.469  1.00  0.00    -0.390 OA
ATOM     38  H2  UNL     1      -4.642  45.885  11.276  1.00  0.00     0.210 HD
ENDBRANCH  10  37
TORSDOF 5
ENDMDL
MODEL 4
REMARK VINA RESULT: -7.807609987      3.783      5.637
REMARK  5 active torsions:
REMARK  status: ('A' for Active; 'I' for Inactive)
REMARK    1  A    between atoms: N3_11  and  C7_12 
REMARK    2  A    between atoms: C8_13  and  C9_14 
REMARK    3  A    between atoms: C14_21  and  N4_22 
REMARK       I    between atoms: N4_22  and  C15_24 
REMARK    4  A    between atoms: C15_24  and  C16_26 
REMARK    5  A    between atoms: C20_30  and  O2_31 
ROOT
HETATM    1  C9  UNL     1      -2.983  42.938  10.177  1.00  0.00     0.014 C 
HETATM    2  C10 UNL     1      -1.818  43.622  10.838  1.00  0.00     0.022 C 
HETATM    3  C11 UNL     1      -1.677  45.040  10.390  1.00  0.00     0.080 C 
HETATM    4  C12 UNL     1      -1.248  45.012   8.965  1.00  0.00     0.246 C 
HETATM    5  F1  UNL     1       0.094  45.435   8.944  1.00  0.00    -0.206 F 
HETATM    6  F2  UNL     1      -1.877  45.986   8.172  1.00  0.00    -0.206 F 
HETATM    7  C13 UNL     1      -1.306  43.656   8.391  1.00  0.00     0.111 C 
HETATM    8  C14 UNL     1      -2.454  42.752   8.718  1.00  0.00     0.052 C 
HETATM    9  C19 UNL     1      -1.816  41.359   8.640  1.00  0.00     0.070 C 
HETATM   10  C20 UNL     1      -2.674  40.236   9.029  1.00  0.00     0.066 C 
HETATM   11  C21 UNL     1      -3.951  40.672   9.667  1.00  0.00     0.050 C 
HETATM   12  C22 UNL     1      -3.332  41.609  10.732  1.00  0.00     0.075 C 
HETATM   13  C23 UNL     1      -2.334  40.705  11.303  1.00  0.00     0.251 C 
HETATM   14  F3  UNL     1      -2.931  39.983  12.363  1.00  0.00    -0.206 F 
HETATM   15  F4  UNL     1      -1.185  41.149  11.815  1.00  0.00    -0.206 F 
HETATM   16  C24 UNL     1      -2.013  39.607  10.279  1.00  0.00     0.117 C 
ENDROOT
BRANCH   1  17
HETATM   17  C8  UNL     1      -4.211  43.763  10.185  1.00  0.00     0.003 C 
HETATM   18  C7  UNL     1      -5.220  43.887  11.169  1.00  0.00     0.088 C 
BRANCH  18  19
HETATM   19  N3  UNL     1      -6.108  42.869  11.632  1.00  0.00    -0.350 N 
HETATM   20  C4  UNL     1      -7.490  42.675  11.565  1.00  0.00     0.062 A 
HETATM   21  C3  UNL     1      -8.769  43.120  11.142  1.00  0.00     0.057 A 
HETATM   22  C5  UNL     1      -7.428  41.552  12.263  1.00  0.00     0.070 A 
HETATM   23  C2  UNL     1      -9.902  42.407  11.449  1.00  0.00     0.024 A 
HETATM   24  C1  UNL     1     -11.203  42.932  10.976  1.00  0.00     0.070 C 
HETATM   25  N2  UNL     1      -9.777  41.277  12.160  1.00  0.00    -0.305 N 
HETATM   26  N1  UNL     1      -8.595  40.857  12.556  1.00  0.00    -0.301 N 
ATOM     27  H2  UNL     1     -10.609  40.736  12.397  1.00  0.00     0.186 HD
ATOM     28  H1  UNL     1      -8.533  39.993  13.095  1.00  0.00     0.186 HD
HETATM   29  C6  UNL     1      -5.987  41.646  12.354  1.00  0.00     0.189 A 
ENDBRANCH  18  19
ENDBRANCH   1  17
BRANCH   8  30
HETATM   30  N4  UNL     1      -3.441  42.882   7.721  1.00  0.00    -0.350 N 
HETATM   31  C15 UNL     1      -3.405  42.314   6.449  1.00  0.00     0.222 C 
HETATM   32  O1  UNL     1      -2.494  41.607   6.030  1.00  0.00    -0.273 OA
ATOM     33  H4  UNL     1      -4.260  43.445   7.951  1.00  0.00     0.163 HD
BRANCH  31  34
HETATM   34  C16 UNL     1      -4.527  42.535   5.462  1.00  0.00     0.078 A 
HETATM   35  C17 UNL     1      -4.742  41.586   4.339  1.00  0.00     0.015 A 
HETATM   36  C18 UNL     1      -4.063  42.863   4.053  1.00  0.00     0.015 A 
ENDBRANCH  31  34
ENDBRANCH   8  30
BRANCH  10  37
HETATM   37  O2  UNL     1      -2.824  39.210   8.125  1.00  0.00    -0.390 OA
ATOM     38  H2  UNL     1      -3.558  38.621   8.250  1.00  0.00     0.210 HD
ENDBRANCH  10  37
TORSDOF 5
ENDMDL
MODEL 5
REMARK VINA RESULT: -7.629271475      2.326      3.226
REMARK  5 active torsions:
REMARK  status: ('A' for Active; 'I' for Inactive)
REMARK    1  A    between atoms: N3_11  and  C7_12 
REMARK    2  A    between atoms: C8_13  and  C9_14 
REMARK    3  A    between atoms: C14_21  and  N4_22 
REMARK       I    between atoms: N4_22  and  C15_24 
REMARK    4  A    between atoms: C15_24  and  C16_26 
REMARK    5  A    between atoms: C20_30  and  O2_31 
ROOT
HETATM    1  C9  UNL     1      -1.490  43.326   9.380  1.00  0.00     0.014 C 
HETATM    2  C10 UNL     1      -2.498  43.500  10.482  1.00  0.00     0.022 C 
HETATM    3  C11 UNL     1      -3.178  44.827  10.411  1.00  0.00     0.080 C 
HETATM    4  C12 UNL     1      -2.165  45.861  10.756  1.00  0.00     0.246 C 
HETATM    5  F1  UNL     1      -2.514  46.352  12.029  1.00  0.00    -0.206 F 
HETATM    6  F2  UNL     1      -2.250  47.016   9.961  1.00  0.00    -0.206 F 
HETATM    7  C13 UNL     1      -0.804  45.303  10.842  1.00  0.00     0.111 C 
HETATM    8  C14 UNL     1      -0.346  44.287   9.843  1.00  0.00     0.052 C 
HETATM    9  C19 UNL     1       0.652  43.448  10.651  1.00  0.00     0.070 C 
HETATM   10  C20 UNL     1       1.204  42.273   9.971  1.00  0.00     0.066 C 
HETATM   11  C21 UNL     1       0.509  41.963   8.687  1.00  0.00     0.050 C 
HETATM   12  C22 UNL     1      -0.937  41.958   9.239  1.00  0.00     0.075 C 
HETATM   13  C23 UNL     1      -0.761  41.057  10.378  1.00  0.00     0.251 C 
HETATM   14  F3  UNL     1      -0.981  39.729   9.942  1.00  0.00    -0.206 F 
HETATM   15  F4  UNL     1      -1.494  41.164  11.487  1.00  0.00    -0.206 F 
HETATM   16  C24 UNL     1       0.721  41.045  10.780  1.00  0.00     0.117 C 
ENDROOT
BRANCH   1  17
HETATM   17  C8  UNL     1      -2.011  43.736   8.057  1.00  0.00     0.003 C 
HETATM   18  C7  UNL     1      -3.199  43.359   7.388  1.00  0.00     0.088 C 
BRANCH  18  19
HETATM   19  N3  UNL     1      -3.559  42.054   6.934  1.00  0.00    -0.350 N 
HETATM   20  C4  UNL     1      -4.171  41.557   5.780  1.00  0.00     0.062 A 
HETATM   21  C3  UNL     1      -4.754  41.788   4.506  1.00  0.00     0.057 A 
HETATM   22  C5  UNL     1      -4.142  40.311   6.227  1.00  0.00     0.070 A 
HETATM   23  C2  UNL     1      -5.269  40.753   3.767  1.00  0.00     0.024 A 
HETATM   24  C1  UNL     1      -5.862  41.068   2.448  1.00  0.00     0.070 C 
HETATM   25  N2  UNL     1      -5.213  39.512   4.273  1.00  0.00    -0.305 N 
HETATM   26  N1  UNL     1      -4.675  39.288   5.452  1.00  0.00    -0.301 N 
ATOM     27  H2  UNL     1      -5.592  38.732   3.737  1.00  0.00     0.186 HD
ATOM     28  H1  UNL     1      -4.647  38.333   5.809  1.00  0.00     0.186 HD
HETATM   29  C6  UNL     1      -3.473  40.725   7.441  1.00  0.00     0.189 A 
ENDBRANCH  18  19
ENDBRANCH   1  17
BRANCH   8  30
HETATM   30  N4  UNL     1       0.323  44.943   8.791  1.00  0.00    -0.350 N 
HETATM   31  C15 UNL     1       1.397  45.821   8.921  1.00  0.00     0.222 C 
HETATM   32  O1  UNL     1       1.912  46.135   9.990  1.00  0.00    -0.273 OA
ATOM     33  H4  UNL     1      -0.010  44.759   7.845  1.00  0.00     0.163 HD
BRANCH  31  34
HETATM   34  C16 UNL     1       2.026  46.472   7.711  1.00  0.00     0.078 A 
HETATM   35  C17 UNL     1       2.644  47.820   7.815  1.00  0.00     0.015 A 
HETATM   36  C18 UNL     1       1.299  47.713   7.221  1.00  0.00     0.015 A 
ENDBRANCH  31  34
ENDBRANCH   8  30
BRANCH  10  37
HETATM   37  O2  UNL     1       2.574  42.165   9.904  1.00  0.00    -0.390 OA
ATOM     38  H2  UNL     1       3.035  42.778   9.344  1.00  0.00     0.210 HD
ENDBRANCH  10  37
TORSDOF 5
ENDMDL
