MODEL 1
REMARK VINA RESULT: -8.539380002      0.000      0.000
REMARK  6 active torsions:
REMARK  status: ('A' for Active; 'I' for Inactive)
REMARK    1  A    between atoms: C2_2  and  C3_3 
REMARK    2  A    between atoms: C8_10  and  N1_11 
REMARK    3  A    between atoms: N1_11  and  C9_12 
REMARK    4  A    between atoms: N3_15  and  C10_16 
REMARK    5  A    between atoms: C13_19  and  N4_20 
REMARK    6  A    between atoms: C22_32  and  C23_33 
ROOT
HETATM    1  C10 UNL     1      -4.092  39.514  11.577  1.00  0.00     0.125 C 
HETATM    2  C11 UNL     1      -5.582  39.631  11.498  1.00  0.00     0.031 C 
HETATM    3  C12 UNL     1      -6.295  39.427  12.786  1.00  0.00     0.038 C 
HETATM    4  C13 UNL     1      -5.587  39.857  14.016  1.00  0.00     0.224 C 
HETATM    5  C18 UNL     1      -4.469  40.791  13.710  1.00  0.00     0.057 C 
HETATM    6  C19 UNL     1      -3.484  40.225  12.739  1.00  0.00     0.119 C 
HETATM    7  C20 UNL     1      -2.508  39.311  13.346  1.00  0.00     0.066 C 
HETATM    8  N5  UNL     1      -1.752  38.592  13.841  1.00  0.00    -0.197 NA
ENDROOT
BRANCH   1   9
HETATM    9  N3  UNL     1      -3.559  40.103  10.336  1.00  0.00    -0.294 N 
HETATM   10  N2  UNL     1      -4.054  39.788   9.178  1.00  0.00    -0.271 N 
HETATM   11  C9  UNL     1      -3.373  40.483   8.171  1.00  0.00     0.211 A 
ATOM     12  H2  UNL     1      -4.821  39.133   9.025  1.00  0.00     0.190 HD
HETATM   13  C22 UNL     1      -2.425  41.243   8.824  1.00  0.00     0.105 A 
HETATM   14  C21 UNL     1      -2.574  40.974  10.191  1.00  0.00     0.132 A 
BRANCH  11  15
HETATM   15  N1  UNL     1      -3.607  40.395   7.000  1.00  0.00    -0.381 NA
BRANCH  15  16
HETATM   16  C8  UNL     1      -4.236  40.495   5.832  1.00  0.00     0.154 A 
HETATM   17  C3  UNL     1      -4.157  41.682   5.083  1.00  0.00    -0.012 A 
HETATM   18  C4  UNL     1      -4.768  41.840   3.878  1.00  0.00     0.052 A 
HETATM   19  C5  UNL     1      -5.491  40.805   3.369  1.00  0.00     0.120 A 
HETATM   20  F1  UNL     1      -6.115  40.950   2.157  1.00  0.00    -0.206 F 
HETATM   21  C6  UNL     1      -5.604  39.625   4.052  1.00  0.00     0.088 A 
HETATM   22  C7  UNL     1      -4.997  39.462   5.254  1.00  0.00     0.160 A 
HETATM   23  F2  UNL     1      -5.103  38.300   5.937  1.00  0.00    -0.202 F 
BRANCH  17  24
HETATM   24  C2  UNL     1      -3.351  42.791   5.684  1.00  0.00     0.037 C 
HETATM   25  C1  UNL     1      -4.276  43.928   6.054  1.00  0.00     0.010 C 
ENDBRANCH  17  24
ENDBRANCH  15  16
ENDBRANCH  11  15
BRANCH  13  26
HETATM   26  C23 UNL     1      -1.430  42.160   8.332  1.00  0.00     0.271 C 
HETATM   27  N6  UNL     1      -1.389  43.527   8.646  1.00  0.00    -0.057 NA
HETATM   28  O1  UNL     1      -0.507  41.745   7.554  1.00  0.00    -0.271 OA
ENDBRANCH  13  26
ENDBRANCH   1   9
BRANCH   4  29
HETATM   29  N4  UNL     1      -5.096  38.769  14.835  1.00  0.00     0.099 N 
HETATM   30  C14 UNL     1      -4.966  39.249  16.194  1.00  0.00     0.279 C 
HETATM   31  C15 UNL     1      -5.153  38.066  17.118  1.00  0.00     0.111 C 
HETATM   32  C16 UNL     1      -5.506  36.954  16.190  1.00  0.00     0.271 C 
HETATM   33  F3  UNL     1      -4.317  36.330  15.794  1.00  0.00    -0.204 F 
HETATM   34  F4  UNL     1      -6.420  36.070  16.680  1.00  0.00    -0.204 F 
HETATM   35  C17 UNL     1      -6.041  37.698  14.961  1.00  0.00     0.351 C 
ENDBRANCH   4  29
TORSDOF 6
ENDMDL
MODEL 2
REMARK VINA RESULT: -8.257492564      2.023      2.391
REMARK  6 active torsions:
REMARK  status: ('A' for Active; 'I' for Inactive)
REMARK    1  A    between atoms: C2_2  and  C3_3 
REMARK    2  A    between atoms: C8_10  and  N1_11 
REMARK    3  A    between atoms: N1_11  and  C9_12 
REMARK    4  A    between atoms: N3_15  and  C10_16 
REMARK    5  A    between atoms: C13_19  and  N4_20 
REMARK    6  A    between atoms: C22_32  and  C23_33 
ROOT
HETATM    1  C10 UNL     1      -5.628  39.534  12.296  1.00  0.00     0.125 C 
HETATM    2  C11 UNL     1      -6.747  40.467  11.951  1.00  0.00     0.031 C 
HETATM    3  C12 UNL     1      -7.781  40.620  13.009  1.00  0.00     0.038 C 
HETATM    4  C13 UNL     1      -7.320  40.509  14.414  1.00  0.00     0.224 C 
HETATM    5  C18 UNL     1      -5.845  40.677  14.524  1.00  0.00     0.057 C 
HETATM    6  C19 UNL     1      -5.082  39.716  13.672  1.00  0.00     0.119 C 
HETATM    7  C20 UNL     1      -4.939  38.380  14.263  1.00  0.00     0.066 C 
HETATM    8  N5  UNL     1      -4.841  37.334  14.743  1.00  0.00    -0.197 NA
ENDROOT
BRANCH   1   9
HETATM    9  N3  UNL     1      -4.551  39.797  11.325  1.00  0.00    -0.294 N 
HETATM   10  N2  UNL     1      -4.796  39.862  10.052  1.00  0.00    -0.271 N 
HETATM   11  C9  UNL     1      -3.608  40.122   9.357  1.00  0.00     0.211 A 
ATOM     12  H2  UNL     1      -5.713  39.742   9.623  1.00  0.00     0.190 HD
HETATM   13  C22 UNL     1      -2.627  40.206  10.323  1.00  0.00     0.105 A 
HETATM   14  C21 UNL     1      -3.263  39.996  11.554  1.00  0.00     0.132 A 
BRANCH  11  15
HETATM   15  N1  UNL     1      -3.521  40.234   8.169  1.00  0.00    -0.381 NA
BRANCH  15  16
HETATM   16  C8  UNL     1      -3.807  40.564   6.912  1.00  0.00     0.154 A 
HETATM   17  C3  UNL     1      -3.637  41.888   6.470  1.00  0.00    -0.012 A 
HETATM   18  C4  UNL     1      -3.901  42.284   5.196  1.00  0.00     0.052 A 
HETATM   19  C5  UNL     1      -4.351  41.361   4.303  1.00  0.00     0.120 A 
HETATM   20  F1  UNL     1      -4.624  41.746   3.015  1.00  0.00    -0.206 F 
HETATM   21  C6  UNL     1      -4.536  40.057   4.674  1.00  0.00     0.088 A 
HETATM   22  C7  UNL     1      -4.275  39.657   5.943  1.00  0.00     0.160 A 
HETATM   23  F2  UNL     1      -4.454  38.371   6.320  1.00  0.00    -0.202 F 
BRANCH  17  24
HETATM   24  C2  UNL     1      -3.140  42.866   7.489  1.00  0.00     0.037 C 
HETATM   25  C1  UNL     1      -3.551  44.261   7.075  1.00  0.00     0.010 C 
ENDBRANCH  17  24
ENDBRANCH  15  16
ENDBRANCH  11  15
BRANCH  13  26
HETATM   26  C23 UNL     1      -1.212  40.455  10.229  1.00  0.00     0.271 C 
HETATM   27  N6  UNL     1      -0.641  41.529   9.529  1.00  0.00    -0.057 NA
HETATM   28  O1  UNL     1      -0.385  39.669  10.803  1.00  0.00    -0.271 OA
ENDBRANCH  13  26
ENDBRANCH   1   9
BRANCH   4  29
HETATM   29  N4  UNL     1      -7.717  39.287  15.079  1.00  0.00     0.099 N 
HETATM   30  C14 UNL     1      -7.835  39.560  16.495  1.00  0.00     0.279 C 
HETATM   31  C15 UNL     1      -8.863  38.607  17.062  1.00  0.00     0.111 C 
HETATM   32  C16 UNL     1      -9.374  37.891  15.859  1.00  0.00     0.271 C 
HETATM   33  F3  UNL     1      -8.576  36.758  15.661  1.00  0.00    -0.204 F 
HETATM   34  F4  UNL     1     -10.704  37.594  15.892  1.00  0.00    -0.204 F 
HETATM   35  C17 UNL     1      -9.040  38.864  14.721  1.00  0.00     0.351 C 
ENDBRANCH   4  29
TORSDOF 6
ENDMDL
MODEL 3
REMARK VINA RESULT: -8.230671182      1.344      2.027
REMARK  6 active torsions:
REMARK  status: ('A' for Active; 'I' for Inactive)
REMARK    1  A    between atoms: C2_2  and  C3_3 
REMARK    2  A    between atoms: C8_10  and  N1_11 
REMARK    3  A    between atoms: N1_11  and  C9_12 
REMARK    4  A    between atoms: N3_15  and  C10_16 
REMARK    5  A    between atoms: C13_19  and  N4_20 
REMARK    6  A    between atoms: C22_32  and  C23_33 
ROOT
HETATM    1  C10 UNL     1      -3.713  39.363  11.642  1.00  0.00     0.125 C 
HETATM    2  C11 UNL     1      -5.189  39.129  11.559  1.00  0.00     0.031 C 
HETATM    3  C12 UNL     1      -5.832  38.729  12.839  1.00  0.00     0.038 C 
HETATM    4  C13 UNL     1      -5.243  39.283  14.082  1.00  0.00     0.224 C 
HETATM    5  C18 UNL     1      -4.376  40.462  13.804  1.00  0.00     0.057 C 
HETATM    6  C19 UNL     1      -3.288  40.168  12.823  1.00  0.00     0.119 C 
HETATM    7  C20 UNL     1      -2.123  39.495  13.411  1.00  0.00     0.066 C 
HETATM    8  N5  UNL     1      -1.218  38.962  13.891  1.00  0.00    -0.197 NA
ENDROOT
BRANCH   1   9
HETATM    9  N3  UNL     1      -3.337  40.092  10.417  1.00  0.00    -0.294 N 
HETATM   10  N2  UNL     1      -4.068  40.027   9.347  1.00  0.00    -0.271 N 
HETATM   11  C9  UNL     1      -3.491  40.806   8.336  1.00  0.00     0.211 A 
ATOM     12  H2  UNL     1      -4.930  39.491   9.255  1.00  0.00     0.190 HD
HETATM   13  C22 UNL     1      -2.348  41.345   8.892  1.00  0.00     0.105 A 
HETATM   14  C21 UNL     1      -2.287  40.869  10.209  1.00  0.00     0.132 A 
BRANCH  11  15
HETATM   15  N1  UNL     1      -3.938  40.939   7.234  1.00  0.00    -0.381 NA
BRANCH  15  16
HETATM   16  C8  UNL     1      -4.071  41.327   5.968  1.00  0.00     0.154 A 
HETATM   17  C3  UNL     1      -4.536  40.426   4.995  1.00  0.00    -0.012 A 
HETATM   18  C4  UNL     1      -4.703  40.766   3.689  1.00  0.00     0.052 A 
HETATM   19  C5  UNL     1      -4.406  42.037   3.299  1.00  0.00     0.120 A 
HETATM   20  F1  UNL     1      -4.567  42.394   1.985  1.00  0.00    -0.206 F 
HETATM   21  C6  UNL     1      -3.949  42.958   4.200  1.00  0.00     0.088 A 
HETATM   22  C7  UNL     1      -3.781  42.624   5.505  1.00  0.00     0.160 A 
HETATM   23  F2  UNL     1      -3.330  43.527   6.403  1.00  0.00    -0.202 F 
BRANCH  17  24
HETATM   24  C2  UNL     1      -4.848  39.041   5.471  1.00  0.00     0.037 C 
HETATM   25  C1  UNL     1      -6.090  38.545   4.765  1.00  0.00     0.010 C 
ENDBRANCH  17  24
ENDBRANCH  15  16
ENDBRANCH  11  15
BRANCH  13  26
HETATM   26  C23 UNL     1      -1.344  42.223   8.351  1.00  0.00     0.271 C 
HETATM   27  N6  UNL     1      -1.108  43.530   8.804  1.00  0.00    -0.057 NA
HETATM   28  O1  UNL     1      -0.598  41.828   7.394  1.00  0.00    -0.271 OA
ENDBRANCH  13  26
ENDBRANCH   1   9
BRANCH   4  29
HETATM   29  N4  UNL     1      -4.507  38.321  14.875  1.00  0.00     0.099 N 
HETATM   30  C14 UNL     1      -5.165  38.194  16.158  1.00  0.00     0.279 C 
HETATM   31  C15 UNL     1      -4.896  36.799  16.676  1.00  0.00     0.111 C 
HETATM   32  C16 UNL     1      -4.161  36.149  15.555  1.00  0.00     0.271 C 
HETATM   33  F3  UNL     1      -2.793  36.377  15.746  1.00  0.00    -0.204 F 
HETATM   34  F4  UNL     1      -4.449  34.829  15.373  1.00  0.00    -0.204 F 
HETATM   35  C17 UNL     1      -4.580  36.991  14.344  1.00  0.00     0.351 C 
ENDBRANCH   4  29
TORSDOF 6
ENDMDL
MODEL 4
REMARK VINA RESULT: -8.190020754      4.965      8.942
REMARK  6 active torsions:
REMARK  status: ('A' for Active; 'I' for Inactive)
REMARK    1  A    between atoms: C2_2  and  C3_3 
REMARK    2  A    between atoms: C8_10  and  N1_11 
REMARK    3  A    between atoms: N1_11  and  C9_12 
REMARK    4  A    between atoms: N3_15  and  C10_16 
REMARK    5  A    between atoms: C13_19  and  N4_20 
REMARK    6  A    between atoms: C22_32  and  C23_33 
ROOT
HETATM    1  C10 UNL     1       0.333  44.743   8.545  1.00  0.00     0.125 C 
HETATM    2  C11 UNL     1       1.698  44.275   8.943  1.00  0.00     0.031 C 
HETATM    3  C12 UNL     1       2.687  45.361   9.179  1.00  0.00     0.038 C 
HETATM    4  C13 UNL     1       2.160  46.637   9.719  1.00  0.00     0.224 C 
HETATM    5  C18 UNL     1       0.806  46.466  10.315  1.00  0.00     0.057 C 
HETATM    6  C19 UNL     1      -0.183  45.883   9.358  1.00  0.00     0.119 C 
HETATM    7  C20 UNL     1      -0.756  46.860   8.424  1.00  0.00     0.066 C 
HETATM    8  N5  UNL     1      -1.191  47.642   7.695  1.00  0.00    -0.197 NA
ENDROOT
BRANCH   1   9
HETATM    9  N3  UNL     1      -0.571  43.593   8.722  1.00  0.00    -0.294 N 
HETATM   10  N2  UNL     1      -1.478  43.311   7.837  1.00  0.00    -0.271 N 
HETATM   11  C9  UNL     1      -2.195  42.179   8.244  1.00  0.00     0.211 A 
ATOM     12  H2  UNL     1      -1.644  43.833   6.977  1.00  0.00     0.190 HD
HETATM   13  C22 UNL     1      -1.641  41.806   9.452  1.00  0.00     0.105 A 
HETATM   14  C21 UNL     1      -0.618  42.725   9.719  1.00  0.00     0.132 A 
BRANCH  11  15
HETATM   15  N1  UNL     1      -3.096  41.682   7.632  1.00  0.00    -0.381 NA
BRANCH  15  16
HETATM   16  C8  UNL     1      -3.757  40.943   6.745  1.00  0.00     0.154 A 
HETATM   17  C3  UNL     1      -4.305  41.538   5.595  1.00  0.00    -0.012 A 
HETATM   18  C4  UNL     1      -4.981  40.834   4.647  1.00  0.00     0.052 A 
HETATM   19  C5  UNL     1      -5.137  39.492   4.814  1.00  0.00     0.120 A 
HETATM   20  F1  UNL     1      -5.819  38.771   3.868  1.00  0.00    -0.206 F 
HETATM   21  C6  UNL     1      -4.626  38.858   5.912  1.00  0.00     0.088 A 
HETATM   22  C7  UNL     1      -3.951  39.554   6.861  1.00  0.00     0.160 A 
HETATM   23  F2  UNL     1      -3.442  38.936   7.950  1.00  0.00    -0.202 F 
BRANCH  17  24
HETATM   24  C2  UNL     1      -4.108  43.016   5.456  1.00  0.00     0.037 C 
HETATM   25  C1  UNL     1      -3.955  43.357   3.992  1.00  0.00     0.010 C 
ENDBRANCH  17  24
ENDBRANCH  15  16
ENDBRANCH  11  15
BRANCH  13  26
HETATM   26  C23 UNL     1      -1.949  40.724  10.351  1.00  0.00     0.271 C 
HETATM   27  N6  UNL     1      -0.999  39.831  10.870  1.00  0.00    -0.057 NA
HETATM   28  O1  UNL     1      -3.153  40.528  10.726  1.00  0.00    -0.271 OA
ENDBRANCH  13  26
ENDBRANCH   1   9
BRANCH   4  29
HETATM   29  N4  UNL     1       2.133  47.724   8.765  1.00  0.00     0.099 N 
HETATM   30  C14 UNL     1       2.960  48.796   9.276  1.00  0.00     0.279 C 
HETATM   31  C15 UNL     1       3.502  49.563   8.091  1.00  0.00     0.111 C 
HETATM   32  C16 UNL     1       3.019  48.777   6.919  1.00  0.00     0.271 C 
HETATM   33  F3  UNL     1       1.768  49.282   6.548  1.00  0.00    -0.204 F 
HETATM   34  F4  UNL     1       3.890  48.720   5.872  1.00  0.00    -0.204 F 
HETATM   35  C17 UNL     1       2.770  47.390   7.524  1.00  0.00     0.351 C 
ENDBRANCH   4  29
TORSDOF 6
ENDMDL
MODEL 5
REMARK VINA RESULT: -8.167190700      1.489      2.187
REMARK  6 active torsions:
REMARK  status: ('A' for Active; 'I' for Inactive)
REMARK    1  A    between atoms: C2_2  and  C3_3 
REMARK    2  A    between atoms: C8_10  and  N1_11 
REMARK    3  A    between atoms: N1_11  and  C9_12 
REMARK    4  A    between atoms: N3_15  and  C10_16 
REMARK    5  A    between atoms: C13_19  and  N4_20 
REMARK    6  A    between atoms: C22_32  and  C23_33 
ROOT
HETATM    1  C10 UNL     1      -3.907  40.191  11.931  1.00  0.00     0.125 C 
HETATM    2  C11 UNL     1      -2.815  39.484  12.671  1.00  0.00     0.031 C 
HETATM    3  C12 UNL     1      -3.271  38.662  13.823  1.00  0.00     0.038 C 
HETATM    4  C13 UNL     1      -4.608  38.032  13.706  1.00  0.00     0.224 C 
HETATM    5  C18 UNL     1      -5.077  37.995  12.292  1.00  0.00     0.057 C 
HETATM    6  C19 UNL     1      -5.102  39.345  11.651  1.00  0.00     0.119 C 
HETATM    7  C20 UNL     1      -6.288  40.142  11.986  1.00  0.00     0.066 C 
HETATM    8  N5  UNL     1      -7.226  40.755  12.266  1.00  0.00    -0.197 NA
ENDROOT
BRANCH   1   9
HETATM    9  N3  UNL     1      -3.328  40.626  10.647  1.00  0.00    -0.294 N 
HETATM   10  N2  UNL     1      -3.846  40.253   9.517  1.00  0.00    -0.271 N 
HETATM   11  C9  UNL     1      -3.111  40.802   8.460  1.00  0.00     0.211 A 
ATOM     12  H2  UNL     1      -4.663  39.651   9.415  1.00  0.00     0.190 HD
HETATM   13  C22 UNL     1      -2.104  41.537   9.052  1.00  0.00     0.105 A 
HETATM   14  C21 UNL     1      -2.276  41.400  10.436  1.00  0.00     0.132 A 
BRANCH  11  15
HETATM   15  N1  UNL     1      -3.350  40.632   7.299  1.00  0.00    -0.381 NA
BRANCH  15  16
HETATM   16  C8  UNL     1      -3.982  40.654   6.128  1.00  0.00     0.154 A 
HETATM   17  C3  UNL     1      -3.976  41.818   5.340  1.00  0.00    -0.012 A 
HETATM   18  C4  UNL     1      -4.593  41.898   4.131  1.00  0.00     0.052 A 
HETATM   19  C5  UNL     1      -5.250  40.804   3.657  1.00  0.00     0.120 A 
HETATM   20  F1  UNL     1      -5.880  40.870   2.441  1.00  0.00    -0.206 F 
HETATM   21  C6  UNL     1      -5.292  39.643   4.379  1.00  0.00     0.088 A 
HETATM   22  C7  UNL     1      -4.678  39.557   5.586  1.00  0.00     0.160 A 
HETATM   23  F2  UNL     1      -4.712  38.415   6.307  1.00  0.00    -0.202 F 
BRANCH  17  24
HETATM   24  C2  UNL     1      -3.240  42.994   5.904  1.00  0.00     0.037 C 
HETATM   25  C1  UNL     1      -4.239  44.058   6.296  1.00  0.00     0.010 C 
ENDBRANCH  17  24
ENDBRANCH  15  16
ENDBRANCH  11  15
BRANCH  13  26
HETATM   26  C23 UNL     1      -1.039  42.326   8.490  1.00  0.00     0.271 C 
HETATM   27  N6  UNL     1      -0.993  43.728   8.517  1.00  0.00    -0.057 NA
HETATM   28  O1  UNL     1      -0.053  41.752   7.918  1.00  0.00    -0.271 OA
ENDBRANCH  13  26
ENDBRANCH   1   9
BRANCH   4  29
HETATM   29  N4  UNL     1      -5.629  38.635  14.536  1.00  0.00     0.099 N 
HETATM   30  C14 UNL     1      -6.189  37.604  15.383  1.00  0.00     0.279 C 
HETATM   31  C15 UNL     1      -6.676  38.268  16.652  1.00  0.00     0.111 C 
HETATM   32  C16 UNL     1      -6.242  39.685  16.491  1.00  0.00     0.271 C 
HETATM   33  F3  UNL     1      -7.273  40.381  15.849  1.00  0.00    -0.204 F 
HETATM   34  F4  UNL     1      -5.840  40.294  17.642  1.00  0.00    -0.204 F 
HETATM   35  C17 UNL     1      -5.094  39.572  15.480  1.00  0.00     0.351 C 
ENDBRANCH   4  29
TORSDOF 6
ENDMDL
