MODEL 1
REMARK VINA RESULT: -7.466234229      0.000      0.000
REMARK  6 active torsions:
REMARK  status: ('A' for Active; 'I' for Inactive)
REMARK    1  A    between atoms: C2_2  and  C3_3 
REMARK    2  A    between atoms: C4_4  and  C5_5 
REMARK    3  A    between atoms: C5_5  and  C6_6 
REMARK    4  A    between atoms: C7_9  and  N1_10 
REMARK    5  A    between atoms: N3_19  and  C13_20 
REMARK    6  A    between atoms: C16_24  and  N4_25 
ROOT
HETATM    1  C3  UNL     1      -1.587  41.287   9.625  1.00  0.00     0.090 C 
HETATM    2  C4  UNL     1      -1.767  41.455  11.142  1.00  0.00     0.038 C 
HETATM    3  C7  UNL     1      -3.189  41.025  11.374  1.00  0.00     0.118 C 
HETATM    4  C12 UNL     1      -3.922  41.472  10.175  1.00  0.00     0.150 C 
HETATM    5  N3  UNL     1      -2.929  41.287   9.096  1.00  0.00    -0.369 N 
ENDROOT
BRANCH   5   6
HETATM    6  C13 UNL     1      -3.348  41.172   7.749  1.00  0.00     0.109 A 
HETATM    7  C14 UNL     1      -3.616  39.880   7.264  1.00  0.00     0.148 A 
HETATM    8  F3  UNL     1      -3.401  38.821   8.084  1.00  0.00    -0.203 F 
HETATM    9  C15 UNL     1      -4.085  39.693   5.989  1.00  0.00     0.074 A 
HETATM   10  C16 UNL     1      -4.315  40.733   5.132  1.00  0.00     0.043 A 
HETATM   11  C22 UNL     1      -4.049  42.003   5.623  1.00  0.00     0.074 A 
HETATM   12  C23 UNL     1      -3.585  42.199   6.887  1.00  0.00     0.148 A 
HETATM   13  F4  UNL     1      -3.407  43.487   7.299  1.00  0.00    -0.203 F 
BRANCH  10  14
HETATM   14  N4  UNL     1      -4.790  40.539   3.806  1.00  0.00    -0.316 N 
HETATM   15  C17 UNL     1      -6.186  40.373   3.578  1.00  0.00     0.151 C 
HETATM   16  C18 UNL     1      -6.746  41.370   2.588  1.00  0.00     0.134 C 
HETATM   17  N5  UNL     1      -6.098  41.383   1.322  1.00  0.00    -0.419 N 
HETATM   18  C19 UNL     1      -5.312  40.242   0.987  1.00  0.00     0.123 C 
ATOM     19  H5  UNL     1      -6.191  42.171   0.682  1.00  0.00     0.153 HD
HETATM   20  C20 UNL     1      -3.867  40.472   1.359  1.00  0.00     0.122 C 
HETATM   21  C21 UNL     1      -3.753  40.538   2.819  1.00  0.00     0.226 C 
HETATM   22  O2  UNL     1      -2.581  40.605   3.296  1.00  0.00    -0.273 OA
ENDBRANCH  10  14
ENDBRANCH   5   6
BRANCH   1  23
HETATM   23  C2  UNL     1      -0.791  42.414   9.072  1.00  0.00     0.021 C 
HETATM   24  C1  UNL     1       0.554  41.990   8.568  1.00  0.00     0.007 C 
ENDBRANCH   1  23
BRANCH   2  25
HETATM   25  C5  UNL     1      -0.907  40.507  11.913  1.00  0.00     0.080 C 
BRANCH  25  26
HETATM   26  C6  UNL     1       0.539  40.786  12.033  1.00  0.00     0.353 C 
HETATM   27  F1  UNL     1       0.858  42.124  12.020  1.00  0.00    -0.214 F 
HETATM   28  F2  UNL     1       1.292  40.013  11.184  1.00  0.00    -0.214 F 
ENDBRANCH  25  26
ENDBRANCH   2  25
BRANCH   3  29
HETATM   29  N1  UNL     1      -3.737  41.557  12.602  1.00  0.00    -0.301 N 
HETATM   30  C8  UNL     1      -3.799  42.858  12.930  1.00  0.00     0.120 A 
HETATM   31  C9  UNL     1      -4.404  42.971  14.191  1.00  0.00     0.025 A 
HETATM   32  C10 UNL     1      -4.671  44.253  14.920  1.00  0.00     0.070 C 
HETATM   33  N2  UNL     1      -4.671  41.704  14.548  1.00  0.00    -0.311 N 
HETATM   34  C11 UNL     1      -4.270  40.842  13.591  1.00  0.00     0.327 A 
ATOM     35  H2  UNL     1      -5.117  41.431  15.424  1.00  0.00     0.170 HD
HETATM   36  O1  UNL     1      -4.409  39.581  13.683  1.00  0.00    -0.246 OA
ENDBRANCH   3  29
TORSDOF 6
ENDMDL
MODEL 2
REMARK VINA RESULT: -7.379884211      2.394      3.970
REMARK  6 active torsions:
REMARK  status: ('A' for Active; 'I' for Inactive)
REMARK    1  A    between atoms: C2_2  and  C3_3 
REMARK    2  A    between atoms: C4_4  and  C5_5 
REMARK    3  A    between atoms: C5_5  and  C6_6 
REMARK    4  A    between atoms: C7_9  and  N1_10 
REMARK    5  A    between atoms: N3_19  and  C13_20 
REMARK    6  A    between atoms: C16_24  and  N4_25 
ROOT
HETATM    1  C3  UNL     1      -3.587  41.985  10.232  1.00  0.00     0.090 C 
HETATM    2  C4  UNL     1      -2.494  42.169  11.297  1.00  0.00     0.038 C 
HETATM    3  C7  UNL     1      -1.240  42.341  10.484  1.00  0.00     0.118 C 
HETATM    4  C12 UNL     1      -1.425  41.467   9.310  1.00  0.00     0.150 C 
HETATM    5  N3  UNL     1      -2.876  41.576   9.046  1.00  0.00    -0.369 N 
ENDROOT
BRANCH   5   6
HETATM    6  C13 UNL     1      -3.395  41.262   7.768  1.00  0.00     0.109 A 
HETATM    7  C14 UNL     1      -3.617  42.329   6.880  1.00  0.00     0.148 A 
HETATM    8  F3  UNL     1      -3.383  43.593   7.312  1.00  0.00    -0.203 F 
HETATM    9  C15 UNL     1      -4.061  42.098   5.603  1.00  0.00     0.074 A 
HETATM   10  C16 UNL     1      -4.309  40.840   5.129  1.00  0.00     0.043 A 
HETATM   11  C22 UNL     1      -4.084  39.796   6.013  1.00  0.00     0.074 A 
HETATM   12  C23 UNL     1      -3.642  40.014   7.282  1.00  0.00     0.148 A 
HETATM   13  F4  UNL     1      -3.396  38.920   8.059  1.00  0.00    -0.203 F 
BRANCH  10  14
HETATM   14  N4  UNL     1      -4.781  40.602   3.809  1.00  0.00    -0.316 N 
HETATM   15  C17 UNL     1      -6.175  40.404   3.587  1.00  0.00     0.151 C 
HETATM   16  C18 UNL     1      -6.752  41.364   2.571  1.00  0.00     0.134 C 
HETATM   17  N5  UNL     1      -6.106  41.355   1.304  1.00  0.00    -0.419 N 
HETATM   18  C19 UNL     1      -5.299  40.220   1.000  1.00  0.00     0.123 C 
ATOM     19  H5  UNL     1      -6.214  42.125   0.644  1.00  0.00     0.153 HD
HETATM   20  C20 UNL     1      -3.858  40.487   1.364  1.00  0.00     0.122 C 
HETATM   21  C21 UNL     1      -3.745  40.594   2.821  1.00  0.00     0.226 C 
HETATM   22  O2  UNL     1      -2.575  40.695   3.295  1.00  0.00    -0.273 OA
ENDBRANCH  10  14
ENDBRANCH   5   6
BRANCH   1  23
HETATM   23  C2  UNL     1      -4.557  40.943  10.662  1.00  0.00     0.021 C 
HETATM   24  C1  UNL     1      -3.898  39.752  11.286  1.00  0.00     0.007 C 
ENDBRANCH   1  23
BRANCH   2  25
HETATM   25  C5  UNL     1      -2.676  43.436  12.068  1.00  0.00     0.080 C 
BRANCH  25  26
HETATM   26  C6  UNL     1      -2.519  44.728  11.371  1.00  0.00     0.353 C 
HETATM   27  F1  UNL     1      -1.538  45.537  11.895  1.00  0.00    -0.214 F 
HETATM   28  F2  UNL     1      -3.722  45.357  11.160  1.00  0.00    -0.214 F 
ENDBRANCH  25  26
ENDBRANCH   2  25
BRANCH   3  29
HETATM   29  N1  UNL     1      -0.044  42.032  11.235  1.00  0.00    -0.301 N 
HETATM   30  C8  UNL     1       0.213  40.866  11.850  1.00  0.00     0.120 A 
HETATM   31  C9  UNL     1       1.473  40.953  12.461  1.00  0.00     0.025 A 
HETATM   32  C10 UNL     1       2.141  39.863  13.245  1.00  0.00     0.070 C 
HETATM   33  N2  UNL     1       1.902  42.191  12.168  1.00  0.00    -0.311 N 
HETATM   34  C11 UNL     1       0.988  42.851  11.427  1.00  0.00     0.327 A 
ATOM     35  H2  UNL     1       2.796  42.580  12.467  1.00  0.00     0.170 HD
HETATM   36  O1  UNL     1       1.151  44.044  11.016  1.00  0.00    -0.246 OA
ENDBRANCH   3  29
TORSDOF 6
ENDMDL
MODEL 3
REMARK VINA RESULT: -7.366197417      0.943      1.732
REMARK  6 active torsions:
REMARK  status: ('A' for Active; 'I' for Inactive)
REMARK    1  A    between atoms: C2_2  and  C3_3 
REMARK    2  A    between atoms: C4_4  and  C5_5 
REMARK    3  A    between atoms: C5_5  and  C6_6 
REMARK    4  A    between atoms: C7_9  and  N1_10 
REMARK    5  A    between atoms: N3_19  and  C13_20 
REMARK    6  A    between atoms: C16_24  and  N4_25 
ROOT
HETATM    1  C3  UNL     1      -1.363  41.435   9.393  1.00  0.00     0.090 C 
HETATM    2  C4  UNL     1      -1.354  41.973  10.833  1.00  0.00     0.038 C 
HETATM    3  C7  UNL     1      -2.802  41.917  11.235  1.00  0.00     0.118 C 
HETATM    4  C12 UNL     1      -3.551  42.229  10.004  1.00  0.00     0.150 C 
HETATM    5  N3  UNL     1      -2.725  41.602   8.950  1.00  0.00    -0.369 N 
ENDROOT
BRANCH   5   6
HETATM    6  C13 UNL     1      -3.292  41.281   7.694  1.00  0.00     0.109 A 
HETATM    7  C14 UNL     1      -3.494  42.337   6.787  1.00  0.00     0.148 A 
HETATM    8  F3  UNL     1      -3.196  43.599   7.184  1.00  0.00    -0.203 F 
HETATM    9  C15 UNL     1      -3.981  42.096   5.528  1.00  0.00     0.074 A 
HETATM   10  C16 UNL     1      -4.292  40.839   5.090  1.00  0.00     0.043 A 
HETATM   11  C22 UNL     1      -4.086  39.806   5.992  1.00  0.00     0.074 A 
HETATM   12  C23 UNL     1      -3.602  40.034   7.243  1.00  0.00     0.148 A 
HETATM   13  F4  UNL     1      -3.380  38.949   8.039  1.00  0.00    -0.203 F 
BRANCH  10  14
HETATM   14  N4  UNL     1      -4.809  40.591   3.788  1.00  0.00    -0.316 N 
HETATM   15  C17 UNL     1      -6.209  40.389   3.616  1.00  0.00     0.151 C 
HETATM   16  C18 UNL     1      -6.824  41.342   2.615  1.00  0.00     0.134 C 
HETATM   17  N5  UNL     1      -6.221  41.325   1.326  1.00  0.00    -0.419 N 
HETATM   18  C19 UNL     1      -5.423  40.190   1.001  1.00  0.00     0.123 C 
ATOM     19  H5  UNL     1      -6.353  42.090   0.665  1.00  0.00     0.153 HD
HETATM   20  C20 UNL     1      -3.971  40.462   1.314  1.00  0.00     0.122 C 
HETATM   21  C21 UNL     1      -3.808  40.579   2.766  1.00  0.00     0.226 C 
HETATM   22  O2  UNL     1      -2.622  40.685   3.198  1.00  0.00    -0.273 OA
ENDBRANCH  10  14
ENDBRANCH   5   6
BRANCH   1  23
HETATM   23  C2  UNL     1      -0.423  42.216   8.546  1.00  0.00     0.021 C 
HETATM   24  C1  UNL     1      -0.320  43.652   8.957  1.00  0.00     0.007 C 
ENDBRANCH   1  23
BRANCH   2  25
HETATM   25  C5  UNL     1      -0.621  41.061  11.763  1.00  0.00     0.080 C 
BRANCH  25  26
HETATM   26  C6  UNL     1       0.835  40.882  11.592  1.00  0.00     0.353 C 
HETATM   27  F1  UNL     1       1.514  42.040  11.293  1.00  0.00    -0.214 F 
HETATM   28  F2  UNL     1       1.139  39.818  10.779  1.00  0.00    -0.214 F 
ENDBRANCH  25  26
ENDBRANCH   2  25
BRANCH   3  29
HETATM   29  N1  UNL     1      -3.111  42.813  12.327  1.00  0.00    -0.301 N 
HETATM   30  C8  UNL     1      -2.778  44.113  12.388  1.00  0.00     0.120 A 
HETATM   31  C9  UNL     1      -3.260  44.640  13.595  1.00  0.00     0.025 A 
HETATM   32  C10 UNL     1      -3.109  46.061  14.051  1.00  0.00     0.070 C 
HETATM   33  N2  UNL     1      -3.864  43.602  14.196  1.00  0.00    -0.311 N 
HETATM   34  C11 UNL     1      -3.777  42.492  13.434  1.00  0.00     0.327 A 
ATOM     35  H2  UNL     1      -4.325  43.647  15.105  1.00  0.00     0.170 HD
HETATM   36  O1  UNL     1      -4.269  41.369  13.775  1.00  0.00    -0.246 OA
ENDBRANCH   3  29
TORSDOF 6
ENDMDL
MODEL 4
REMARK VINA RESULT: -7.293600703      2.306      3.664
REMARK  6 active torsions:
REMARK  status: ('A' for Active; 'I' for Inactive)
REMARK    1  A    between atoms: C2_2  and  C3_3 
REMARK    2  A    between atoms: C4_4  and  C5_5 
REMARK    3  A    between atoms: C5_5  and  C6_6 
REMARK    4  A    between atoms: C7_9  and  N1_10 
REMARK    5  A    between atoms: N3_19  and  C13_20 
REMARK    6  A    between atoms: C16_24  and  N4_25 
ROOT
HETATM    1  C3  UNL     1      -3.717  41.618  10.277  1.00  0.00     0.090 C 
HETATM    2  C4  UNL     1      -2.700  41.705  11.426  1.00  0.00     0.038 C 
HETATM    3  C7  UNL     1      -1.418  42.071  10.729  1.00  0.00     0.118 C 
HETATM    4  C12 UNL     1      -1.478  41.373   9.431  1.00  0.00     0.150 C 
HETATM    5  N3  UNL     1      -2.916  41.434   9.092  1.00  0.00    -0.369 N 
ENDROOT
BRANCH   5   6
HETATM    6  C13 UNL     1      -3.342  41.284   7.752  1.00  0.00     0.109 A 
HETATM    7  C14 UNL     1      -3.569  39.976   7.289  1.00  0.00     0.148 A 
HETATM    8  F3  UNL     1      -3.311  38.938   8.123  1.00  0.00    -0.203 F 
HETATM    9  C15 UNL     1      -4.042  39.753   6.021  1.00  0.00     0.074 A 
HETATM   10  C16 UNL     1      -4.314  40.771   5.150  1.00  0.00     0.043 A 
HETATM   11  C22 UNL     1      -4.088  42.057   5.619  1.00  0.00     0.074 A 
HETATM   12  C23 UNL     1      -3.620  42.289   6.876  1.00  0.00     0.148 A 
HETATM   13  F4  UNL     1      -3.484  43.588   7.266  1.00  0.00    -0.203 F 
BRANCH  10  14
HETATM   14  N4  UNL     1      -4.792  40.540   3.831  1.00  0.00    -0.316 N 
HETATM   15  C17 UNL     1      -6.182  40.307   3.620  1.00  0.00     0.151 C 
HETATM   16  C18 UNL     1      -6.797  41.266   2.625  1.00  0.00     0.134 C 
HETATM   17  N5  UNL     1      -6.163  41.294   1.351  1.00  0.00    -0.419 N 
HETATM   18  C19 UNL     1      -5.329  40.187   1.022  1.00  0.00     0.123 C 
ATOM     19  H5  UNL     1      -6.299  42.070   0.704  1.00  0.00     0.153 HD
HETATM   20  C20 UNL     1      -3.892  40.488   1.376  1.00  0.00     0.122 C 
HETATM   21  C21 UNL     1      -3.767  40.576   2.833  1.00  0.00     0.226 C 
HETATM   22  O2  UNL     1      -2.595  40.702   3.297  1.00  0.00    -0.273 OA
ENDBRANCH  10  14
ENDBRANCH   5   6
BRANCH   1  23
HETATM   23  C2  UNL     1      -4.636  40.468  10.488  1.00  0.00     0.021 C 
HETATM   24  C1  UNL     1      -4.047  39.401  11.357  1.00  0.00     0.007 C 
ENDBRANCH   1  23
BRANCH   2  25
HETATM   25  C5  UNL     1      -3.010  42.829  12.360  1.00  0.00     0.080 C 
BRANCH  25  26
HETATM   26  C6  UNL     1      -3.989  42.611  13.444  1.00  0.00     0.353 C 
HETATM   27  F1  UNL     1      -3.812  41.437  14.137  1.00  0.00    -0.214 F 
HETATM   28  F2  UNL     1      -5.280  42.841  13.035  1.00  0.00    -0.214 F 
ENDBRANCH  25  26
ENDBRANCH   2  25
BRANCH   3  29
HETATM   29  N1  UNL     1      -0.247  41.725  11.503  1.00  0.00    -0.301 N 
HETATM   30  C8  UNL     1      -0.163  40.715  12.384  1.00  0.00     0.120 A 
HETATM   31  C9  UNL     1       1.133  40.698  12.921  1.00  0.00     0.025 A 
HETATM   32  C10 UNL     1       1.646  39.720  13.936  1.00  0.00     0.070 C 
HETATM   33  N2  UNL     1       1.759  41.720  12.316  1.00  0.00    -0.311 N 
HETATM   34  C11 UNL     1       0.929  42.348  11.456  1.00  0.00     0.327 A 
ATOM     35  H2  UNL     1       2.729  41.987  12.485  1.00  0.00     0.170 HD
HETATM   36  O1  UNL     1       1.277  43.351  10.756  1.00  0.00    -0.246 OA
ENDBRANCH   3  29
TORSDOF 6
ENDMDL
MODEL 5
REMARK VINA RESULT: -7.221149634      1.371      1.532
REMARK  6 active torsions:
REMARK  status: ('A' for Active; 'I' for Inactive)
REMARK    1  A    between atoms: C2_2  and  C3_3 
REMARK    2  A    between atoms: C4_4  and  C5_5 
REMARK    3  A    between atoms: C5_5  and  C6_6 
REMARK    4  A    between atoms: C7_9  and  N1_10 
REMARK    5  A    between atoms: N3_19  and  C13_20 
REMARK    6  A    between atoms: C16_24  and  N4_25 
ROOT
HETATM    1  C3  UNL     1      -1.588  41.738   9.593  1.00  0.00     0.090 C 
HETATM    2  C4  UNL     1      -1.720  42.255  11.034  1.00  0.00     0.038 C 
HETATM    3  C7  UNL     1      -3.207  42.301  11.254  1.00  0.00     0.118 C 
HETATM    4  C12 UNL     1      -3.773  42.683   9.947  1.00  0.00     0.150 C 
HETATM    5  N3  UNL     1      -2.870  42.010   8.989  1.00  0.00    -0.369 N 
ENDROOT
BRANCH   5   6
HETATM    6  C13 UNL     1      -3.297  41.747   7.667  1.00  0.00     0.109 A 
HETATM    7  C14 UNL     1      -3.592  40.413   7.336  1.00  0.00     0.148 A 
HETATM    8  F3  UNL     1      -3.392  39.452   8.273  1.00  0.00    -0.203 F 
HETATM    9  C15 UNL     1      -4.070  40.088   6.093  1.00  0.00     0.074 A 
HETATM   10  C16 UNL     1      -4.284  41.025   5.121  1.00  0.00     0.043 A 
HETATM   11  C22 UNL     1      -3.993  42.338   5.460  1.00  0.00     0.074 A 
HETATM   12  C23 UNL     1      -3.519  42.671   6.691  1.00  0.00     0.148 A 
HETATM   13  F4  UNL     1      -3.315  43.995   6.950  1.00  0.00    -0.203 F 
BRANCH  10  14
HETATM   14  N4  UNL     1      -4.768  40.686   3.827  1.00  0.00    -0.316 N 
HETATM   15  C17 UNL     1      -6.167  40.494   3.630  1.00  0.00     0.151 C 
HETATM   16  C18 UNL     1      -6.736  41.377   2.542  1.00  0.00     0.134 C 
HETATM   17  N5  UNL     1      -6.097  41.252   1.276  1.00  0.00    -0.419 N 
HETATM   18  C19 UNL     1      -5.311  40.083   1.062  1.00  0.00     0.123 C 
ATOM     19  H5  UNL     1      -6.198  41.967   0.556  1.00  0.00     0.153 HD
HETATM   20  C20 UNL     1      -3.864  40.356   1.395  1.00  0.00     0.122 C 
HETATM   21  C21 UNL     1      -3.739  40.580   2.838  1.00  0.00     0.226 C 
HETATM   22  O2  UNL     1      -2.564  40.701   3.296  1.00  0.00    -0.273 OA
ENDBRANCH  10  14
ENDBRANCH   5   6
BRANCH   1  23
HETATM   23  C2  UNL     1      -0.497  42.459   8.885  1.00  0.00     0.021 C 
HETATM   24  C1  UNL     1      -0.609  43.947   8.998  1.00  0.00     0.007 C 
ENDBRANCH   1  23
BRANCH   2  25
HETATM   25  C5  UNL     1      -1.175  41.280  12.027  1.00  0.00     0.080 C 
BRANCH  25  26
HETATM   26  C6  UNL     1      -1.955  40.065  12.341  1.00  0.00     0.353 C 
HETATM   27  F1  UNL     1      -1.546  39.411  13.479  1.00  0.00    -0.214 F 
HETATM   28  F2  UNL     1      -2.120  39.254  11.246  1.00  0.00    -0.214 F 
ENDBRANCH  25  26
ENDBRANCH   2  25
BRANCH   3  29
HETATM   29  N1  UNL     1      -3.584  43.204  12.319  1.00  0.00    -0.301 N 
HETATM   30  C8  UNL     1      -3.252  44.503  12.395  1.00  0.00     0.120 A 
HETATM   31  C9  UNL     1      -3.811  45.038  13.565  1.00  0.00     0.025 A 
HETATM   32  C10 UNL     1      -3.686  46.460  14.023  1.00  0.00     0.070 C 
HETATM   33  N2  UNL     1      -4.456  44.005  14.130  1.00  0.00    -0.311 N 
HETATM   34  C11 UNL     1      -4.323  42.890  13.381  1.00  0.00     0.327 A 
ATOM     35  H2  UNL     1      -4.975  44.055  15.007  1.00  0.00     0.170 HD
HETATM   36  O1  UNL     1      -4.839  41.771  13.695  1.00  0.00    -0.246 OA
ENDBRANCH   3  29
TORSDOF 6
ENDMDL
