MODEL 1
REMARK VINA RESULT: -5.964518501      0.000      0.000
REMARK  2 active torsions:
REMARK  status: ('A' for Active; 'I' for Inactive)
REMARK    1  A    between atoms: N1_1  and  C1_5 
REMARK    2  A    between atoms: C1_5  and  C2_6 
ROOT
HETATM    1  C2  UNL     1       1.508  39.092 -10.435  1.00  0.00    -0.030 A 
HETATM    2  C3  UNL     1       0.791  38.851 -11.591  1.00  0.00     0.012 A 
HETATM    3  C4  UNL     1       0.766  39.766 -12.616  1.00  0.00     0.046 A 
HETATM    4  C5  UNL     1       1.458  40.954 -12.524  1.00  0.00     0.154 A 
HETATM    5  F1  UNL     1       1.400  41.825 -13.568  1.00  0.00    -0.203 F 
HETATM    6  C6  UNL     1       2.177  41.207 -11.379  1.00  0.00     0.155 A 
HETATM    7  F2  UNL     1       2.861  42.371 -11.275  1.00  0.00    -0.203 F 
HETATM    8  C7  UNL     1       2.188  40.276 -10.361  1.00  0.00     0.054 A 
ENDROOT
BRANCH   1   9
HETATM    9  C1  UNL     1       1.482  38.062  -9.386  1.00  0.00     0.268 C 
BRANCH   9  10
HETATM   10  N1  UNL     1       2.781  37.716  -8.892  1.00  0.00    -0.075 N 
ATOM     11  H13 UNL     1       3.403  37.464  -9.660  1.00  0.00     0.274 HD
ATOM     12  H12 UNL     1       3.267  38.542  -8.544  1.00  0.00     0.274 HD
ATOM     13  H11 UNL     1       2.765  36.982  -8.185  1.00  0.00     0.274 HD
ENDBRANCH   9  10
ENDBRANCH   1   9
TORSDOF 2
ENDMDL
MODEL 2
REMARK VINA RESULT: -5.956443744      3.160      3.976
REMARK  2 active torsions:
REMARK  status: ('A' for Active; 'I' for Inactive)
REMARK    1  A    between atoms: N1_1  and  C1_5 
REMARK    2  A    between atoms: C1_5  and  C2_6 
ROOT
HETATM    1  C2  UNL     1       0.762  39.958 -11.821  1.00  0.00    -0.030 A 
HETATM    2  C3  UNL     1      -0.438  39.325 -11.560  1.00  0.00     0.012 A 
HETATM    3  C4  UNL     1      -0.591  38.518 -10.459  1.00  0.00     0.046 A 
HETATM    4  C5  UNL     1       0.449  38.314  -9.578  1.00  0.00     0.154 A 
HETATM    5  F1  UNL     1       0.244  37.505  -8.504  1.00  0.00    -0.203 F 
HETATM    6  C6  UNL     1       1.649  38.938  -9.825  1.00  0.00     0.155 A 
HETATM    7  F2  UNL     1       2.680  38.746  -8.967  1.00  0.00    -0.203 F 
HETATM    8  C7  UNL     1       1.782  39.745 -10.937  1.00  0.00     0.054 A 
ENDROOT
BRANCH   1   9
HETATM    9  C1  UNL     1       0.843  40.806 -13.020  1.00  0.00     0.268 C 
BRANCH   9  10
HETATM   10  N1  UNL     1       1.767  41.892 -12.892  1.00  0.00    -0.075 N 
ATOM     11  H13 UNL     1       1.380  42.626 -12.298  1.00  0.00     0.274 HD
ATOM     12  H12 UNL     1       2.569  41.619 -12.324  1.00  0.00     0.274 HD
ATOM     13  H11 UNL     1       2.072  42.275 -13.787  1.00  0.00     0.274 HD
ENDBRANCH   9  10
ENDBRANCH   1   9
TORSDOF 2
ENDMDL
MODEL 3
REMARK VINA RESULT: -5.827180911      3.355      4.430
REMARK  2 active torsions:
REMARK  status: ('A' for Active; 'I' for Inactive)
REMARK    1  A    between atoms: N1_1  and  C1_5 
REMARK    2  A    between atoms: C1_5  and  C2_6 
ROOT
HETATM    1  C2  UNL     1       1.368  40.123 -11.966  1.00  0.00    -0.030 A 
HETATM    2  C3  UNL     1       1.976  40.244 -10.732  1.00  0.00     0.012 A 
HETATM    3  C4  UNL     1       1.605  39.446  -9.676  1.00  0.00     0.046 A 
HETATM    4  C5  UNL     1       0.615  38.498  -9.816  1.00  0.00     0.154 A 
HETATM    5  F1  UNL     1       0.287  37.734  -8.740  1.00  0.00    -0.203 F 
HETATM    6  C6  UNL     1       0.002  38.367 -11.041  1.00  0.00     0.155 A 
HETATM    7  F2  UNL     1      -0.973  37.439 -11.192  1.00  0.00    -0.203 F 
HETATM    8  C7  UNL     1       0.388  39.179 -12.087  1.00  0.00     0.054 A 
ENDROOT
BRANCH   1   9
HETATM    9  C1  UNL     1       1.823  41.016 -13.043  1.00  0.00     0.268 C 
BRANCH   9  10
HETATM   10  N1  UNL     1       0.886  42.051 -13.363  1.00  0.00    -0.075 N 
ATOM     11  H13 UNL     1       0.658  42.599 -12.534  1.00  0.00     0.274 HD
ATOM     12  H12 UNL     1       1.328  42.775 -13.929  1.00  0.00     0.274 HD
ATOM     13  H11 UNL     1       0.038  41.707 -13.814  1.00  0.00     0.274 HD
ENDBRANCH   9  10
ENDBRANCH   1   9
TORSDOF 2
ENDMDL
MODEL 4
REMARK VINA RESULT: -5.635178970      0.820      2.016
REMARK  2 active torsions:
REMARK  status: ('A' for Active; 'I' for Inactive)
REMARK    1  A    between atoms: N1_1  and  C1_5 
REMARK    2  A    between atoms: C1_5  and  C2_6 
ROOT
HETATM    1  C2  UNL     1       1.606  39.069 -10.407  1.00  0.00    -0.030 A 
HETATM    2  C3  UNL     1       2.027  40.337 -10.054  1.00  0.00     0.012 A 
HETATM    3  C4  UNL     1       2.112  41.343 -10.987  1.00  0.00     0.046 A 
HETATM    4  C5  UNL     1       1.778  41.119 -12.305  1.00  0.00     0.154 A 
HETATM    5  F1  UNL     1       1.880  42.149 -13.188  1.00  0.00    -0.203 F 
HETATM    6  C6  UNL     1       1.358  39.861 -12.670  1.00  0.00     0.155 A 
HETATM    7  F2  UNL     1       1.027  39.627 -13.962  1.00  0.00    -0.203 F 
HETATM    8  C7  UNL     1       1.281  38.865 -11.718  1.00  0.00     0.054 A 
ENDROOT
BRANCH   1   9
HETATM    9  C1  UNL     1       1.544  38.050  -9.349  1.00  0.00     0.268 C 
BRANCH   9  10
HETATM   10  N1  UNL     1       2.830  37.652  -8.861  1.00  0.00    -0.075 N 
ATOM     11  H13 UNL     1       3.545  37.790  -9.575  1.00  0.00     0.274 HD
ATOM     12  H12 UNL     1       3.167  38.306  -8.155  1.00  0.00     0.274 HD
ATOM     13  H11 UNL     1       2.854  36.696  -8.507  1.00  0.00     0.274 HD
ENDBRANCH   9  10
ENDBRANCH   1   9
TORSDOF 2
ENDMDL
MODEL 5
REMARK VINA RESULT: -5.599043316      1.436      2.328
REMARK  2 active torsions:
REMARK  status: ('A' for Active; 'I' for Inactive)
REMARK    1  A    between atoms: N1_1  and  C1_5 
REMARK    2  A    between atoms: C1_5  and  C2_6 
ROOT
HETATM    1  C2  UNL     1       0.316  39.073 -10.765  1.00  0.00    -0.030 A 
HETATM    2  C3  UNL     1       1.051  39.922  -9.961  1.00  0.00     0.012 A 
HETATM    3  C4  UNL     1       1.825  40.920 -10.502  1.00  0.00     0.046 A 
HETATM    4  C5  UNL     1       1.892  41.107 -11.866  1.00  0.00     0.154 A 
HETATM    5  F1  UNL     1       2.674  42.109 -12.350  1.00  0.00    -0.203 F 
HETATM    6  C6  UNL     1       1.165  40.268 -12.678  1.00  0.00     0.155 A 
HETATM    7  F2  UNL     1       1.222  40.439 -14.021  1.00  0.00    -0.203 F 
HETATM    8  C7  UNL     1       0.394  39.271 -12.115  1.00  0.00     0.054 A 
ENDROOT
BRANCH   1   9
HETATM    9  C1  UNL     1      -0.487  38.031 -10.106  1.00  0.00     0.268 C 
BRANCH   9  10
HETATM   10  N1  UNL     1      -0.178  37.864  -8.718  1.00  0.00    -0.075 N 
ATOM     11  H13 UNL     1      -0.000  38.766  -8.276  1.00  0.00     0.274 HD
ATOM     12  H12 UNL     1      -1.007  37.579  -8.195  1.00  0.00     0.274 HD
ATOM     13  H11 UNL     1       0.594  37.220  -8.547  1.00  0.00     0.274 HD
ENDBRANCH   9  10
ENDBRANCH   1   9
TORSDOF 2
ENDMDL
