MODEL 1
REMARK VINA RESULT: -4.893383492      0.000      0.000
REMARK  1 active torsions:
REMARK  status: ('A' for Active; 'I' for Inactive)
REMARK    1  A    between atoms: C3_3  and  N1_4 
ROOT
HETATM    1  C1  UNL     1       0.739  42.362  -8.617  1.00  0.00     0.023 C 
HETATM    2  C2  UNL     1       1.057  41.655  -9.704  1.00  0.00     0.021 A 
HETATM    3  C3  UNL     1       0.527  41.040 -11.015  1.00  0.00     0.296 A 
HETATM    4  C5  UNL     1       1.929  40.899 -10.622  1.00  0.00     0.300 A 
HETATM    5  F1  UNL     1       2.848  41.696 -11.295  1.00  0.00    -0.198 F 
HETATM    6  F2  UNL     1       2.468  39.751 -10.110  1.00  0.00    -0.198 F 
ENDROOT
BRANCH   3   7
HETATM    7  N1  UNL     1      -0.469  40.034 -10.711  1.00  0.00    -0.065 N 
HETATM    8  C4  UNL     1      -0.587  39.001 -11.693  1.00  0.00     0.268 C 
ATOM      9  H12 UNL     1      -0.297  39.630  -9.790  1.00  0.00     0.277 HD
ATOM     10  H11 UNL     1      -1.375  40.470 -10.543  1.00  0.00     0.277 HD
ENDBRANCH   3   7
TORSDOF 1
ENDMDL
MODEL 2
REMARK VINA RESULT: -4.852413184      1.922      2.075
REMARK  1 active torsions:
REMARK  status: ('A' for Active; 'I' for Inactive)
REMARK    1  A    between atoms: C3_3  and  N1_4 
ROOT
HETATM    1  C1  UNL     1       0.759  42.235  -8.837  1.00  0.00     0.023 C 
HETATM    2  C2  UNL     1       1.333  41.335  -9.640  1.00  0.00     0.021 A 
HETATM    3  C3  UNL     1       2.146  41.127 -10.934  1.00  0.00     0.296 A 
HETATM    4  C5  UNL     1       1.736  39.995 -10.103  1.00  0.00     0.300 A 
HETATM    5  F1  UNL     1       2.721  39.410  -9.317  1.00  0.00    -0.198 F 
HETATM    6  F2  UNL     1       0.710  39.148 -10.419  1.00  0.00    -0.198 F 
ENDROOT
BRANCH   3   7
HETATM    7  N1  UNL     1       1.370  41.577 -12.071  1.00  0.00    -0.065 N 
HETATM    8  C4  UNL     1       1.537  40.786 -13.251  1.00  0.00     0.268 C 
ATOM      9  H12 UNL     1       0.383  41.643 -11.824  1.00  0.00     0.277 HD
ATOM     10  H11 UNL     1       1.567  42.557 -12.270  1.00  0.00     0.277 HD
ENDBRANCH   3   7
TORSDOF 1
ENDMDL
MODEL 3
REMARK VINA RESULT: -4.846703106      2.021      2.289
REMARK  1 active torsions:
REMARK  status: ('A' for Active; 'I' for Inactive)
REMARK    1  A    between atoms: C3_3  and  N1_4 
ROOT
HETATM    1  C1  UNL     1       2.416  41.728 -11.467  1.00  0.00     0.023 C 
HETATM    2  C2  UNL     1       1.980  40.566 -10.975  1.00  0.00     0.021 A 
HETATM    3  C3  UNL     1       1.514  39.138 -11.324  1.00  0.00     0.296 A 
HETATM    4  C5  UNL     1       1.569  39.602  -9.938  1.00  0.00     0.300 A 
HETATM    5  F1  UNL     1       2.626  39.135  -9.166  1.00  0.00    -0.198 F 
HETATM    6  F2  UNL     1       0.469  39.957  -9.207  1.00  0.00    -0.198 F 
ENDROOT
BRANCH   3   7
HETATM    7  N1  UNL     1       0.304  39.202 -12.117  1.00  0.00    -0.065 N 
HETATM    8  C4  UNL     1      -0.654  38.183 -11.819  1.00  0.00     0.268 C 
ATOM      9  H12 UNL     1      -0.123  40.125 -12.039  1.00  0.00     0.277 HD
ATOM     10  H11 UNL     1       0.530  39.198 -13.111  1.00  0.00     0.277 HD
ENDBRANCH   3   7
TORSDOF 1
ENDMDL
MODEL 4
REMARK VINA RESULT: -4.653839403      2.430      2.652
REMARK  1 active torsions:
REMARK  status: ('A' for Active; 'I' for Inactive)
REMARK    1  A    between atoms: C3_3  and  N1_4 
ROOT
HETATM    1  C1  UNL     1       2.504  41.393 -10.884  1.00  0.00     0.023 C 
HETATM    2  C2  UNL     1       1.721  40.969 -11.879  1.00  0.00     0.021 A 
HETATM    3  C3  UNL     1       0.450  40.172 -12.238  1.00  0.00     0.296 A 
HETATM    4  C5  UNL     1       1.275  40.796 -13.273  1.00  0.00     0.300 A 
HETATM    5  F1  UNL     1       0.781  41.962 -13.845  1.00  0.00    -0.198 F 
HETATM    6  F2  UNL     1       2.133  40.106 -14.084  1.00  0.00    -0.198 F 
ENDROOT
BRANCH   3   7
HETATM    7  N1  UNL     1       0.616  38.790 -11.842  1.00  0.00    -0.065 N 
HETATM    8  C4  UNL     1      -0.603  38.117 -11.516  1.00  0.00     0.268 C 
ATOM      9  H12 UNL     1       1.126  38.273 -12.558  1.00  0.00     0.277 HD
ATOM     10  H11 UNL     1       1.278  38.718 -11.069  1.00  0.00     0.277 HD
ENDBRANCH   3   7
TORSDOF 1
ENDMDL
MODEL 5
REMARK VINA RESULT: -4.652629393      2.100      2.594
REMARK  1 active torsions:
REMARK  status: ('A' for Active; 'I' for Inactive)
REMARK    1  A    between atoms: C3_3  and  N1_4 
ROOT
HETATM    1  C1  UNL     1       0.806  42.367  -8.534  1.00  0.00     0.023 C 
HETATM    2  C2  UNL     1       0.870  41.395  -9.447  1.00  0.00     0.021 A 
HETATM    3  C3  UNL     1       1.728  40.755 -10.558  1.00  0.00     0.296 A 
HETATM    4  C5  UNL     1       0.409  40.224 -10.214  1.00  0.00     0.300 A 
HETATM    5  F1  UNL     1       0.383  39.050  -9.471  1.00  0.00    -0.198 F 
HETATM    6  F2  UNL     1      -0.714  40.421 -10.970  1.00  0.00    -0.198 F 
ENDROOT
BRANCH   3   7
HETATM    7  N1  UNL     1       1.926  41.709 -11.628  1.00  0.00    -0.065 N 
HETATM    8  C4  UNL     1       1.787  41.163 -12.942  1.00  0.00     0.268 C 
ATOM      9  H12 UNL     1       1.306  42.510 -11.510  1.00  0.00     0.277 HD
ATOM     10  H11 UNL     1       2.830  42.171 -11.529  1.00  0.00     0.277 HD
ENDBRANCH   3   7
TORSDOF 1
ENDMDL
