MODEL 1
REMARK VINA RESULT: -5.267759107      0.000      0.000
REMARK  1 active torsions:
REMARK  status: ('A' for Active; 'I' for Inactive)
REMARK    1  A    between atoms: C2_2  and  C3_3 
ROOT
HETATM    1  C3  UNL     1       1.785  40.138 -10.537  1.00  0.00     0.134 C 
HETATM    2  F1  UNL     1       2.639  39.729  -9.568  1.00  0.00    -0.240 F 
HETATM    3  C4  UNL     1       1.413  38.998 -11.462  1.00  0.00     0.049 C 
HETATM    4  C5  UNL     1       0.473  38.553 -10.331  1.00  0.00     0.044 C 
HETATM    5  C6  UNL     1       0.337  40.055 -10.037  1.00  0.00     0.209 C 
HETATM    6  F2  UNL     1      -0.581  40.574 -10.926  1.00  0.00    -0.246 F 
ENDROOT
BRANCH   1   7
HETATM    7  C2  UNL     1       2.122  41.431 -11.217  1.00  0.00     0.042 C 
HETATM    8  C1  UNL     1       1.921  41.246 -12.705  1.00  0.00     0.008 C 
ENDBRANCH   1   7
TORSDOF 1
ENDMDL
MODEL 2
REMARK VINA RESULT: -5.207031313      1.407      2.186
REMARK  1 active torsions:
REMARK  status: ('A' for Active; 'I' for Inactive)
REMARK    1  A    between atoms: C2_2  and  C3_3 
ROOT
HETATM    1  C3  UNL     1       0.690  40.047 -11.096  1.00  0.00     0.134 C 
HETATM    2  F1  UNL     1      -0.284  40.428 -10.234  1.00  0.00    -0.240 F 
HETATM    3  C4  UNL     1       2.067  40.271 -10.506  1.00  0.00     0.049 C 
HETATM    4  C5  UNL     1       1.791  38.992  -9.700  1.00  0.00     0.044 C 
HETATM    5  C6  UNL     1       0.987  38.551 -10.933  1.00  0.00     0.209 C 
HETATM    6  F2  UNL     1       1.880  38.063 -11.863  1.00  0.00    -0.246 F 
ENDROOT
BRANCH   1   7
HETATM    7  C2  UNL     1       0.524  40.484 -12.521  1.00  0.00     0.042 C 
HETATM    8  C1  UNL     1       1.767  41.245 -12.926  1.00  0.00     0.008 C 
ENDBRANCH   1   7
TORSDOF 1
ENDMDL
MODEL 3
REMARK VINA RESULT: -5.187048881      1.391      2.607
REMARK  1 active torsions:
REMARK  status: ('A' for Active; 'I' for Inactive)
REMARK    1  A    between atoms: C2_2  and  C3_3 
ROOT
HETATM    1  C3  UNL     1       1.231  40.246 -11.225  1.00  0.00     0.134 C 
HETATM    2  F1  UNL     1       1.874  39.067 -11.405  1.00  0.00    -0.240 F 
HETATM    3  C4  UNL     1       2.100  41.417 -11.632  1.00  0.00     0.049 C 
HETATM    4  C5  UNL     1       1.729  41.031 -13.072  1.00  0.00     0.044 C 
HETATM    5  C6  UNL     1       0.390  40.586 -12.463  1.00  0.00     0.209 C 
HETATM    6  F2  UNL     1      -0.392  41.711 -12.304  1.00  0.00    -0.246 F 
ENDROOT
BRANCH   1   7
HETATM    7  C2  UNL     1       0.499  40.412  -9.927  1.00  0.00     0.042 C 
HETATM    8  C1  UNL     1       0.978  41.691  -9.277  1.00  0.00     0.008 C 
ENDBRANCH   1   7
TORSDOF 1
ENDMDL
MODEL 4
REMARK VINA RESULT: -5.150411050      1.443      3.247
REMARK  1 active torsions:
REMARK  status: ('A' for Active; 'I' for Inactive)
REMARK    1  A    between atoms: C2_2  and  C3_3 
ROOT
HETATM    1  C3  UNL     1       0.171  40.708 -11.946  1.00  0.00     0.134 C 
HETATM    2  F1  UNL     1      -0.573  41.746 -12.398  1.00  0.00    -0.240 F 
HETATM    3  C4  UNL     1       1.051  40.142 -13.041  1.00  0.00     0.049 C 
HETATM    4  C5  UNL     1       1.950  41.360 -12.775  1.00  0.00     0.044 C 
HETATM    5  C6  UNL     1       1.475  41.222 -11.321  1.00  0.00     0.209 C 
HETATM    6  F2  UNL     1       2.227  40.231 -10.726  1.00  0.00    -0.246 F 
ENDROOT
BRANCH   1   7
HETATM    7  C2  UNL     1      -0.546  39.691 -11.110  1.00  0.00     0.042 C 
HETATM    8  C1  UNL     1      -0.357  38.335 -11.755  1.00  0.00     0.008 C 
ENDBRANCH   1   7
TORSDOF 1
ENDMDL
MODEL 5
REMARK VINA RESULT: -5.138491830      1.495      1.926
REMARK  1 active torsions:
REMARK  status: ('A' for Active; 'I' for Inactive)
REMARK    1  A    between atoms: C2_2  and  C3_3 
ROOT
HETATM    1  C3  UNL     1       1.787  40.650 -11.251  1.00  0.00     0.134 C 
HETATM    2  F1  UNL     1       2.751  41.586 -11.431  1.00  0.00    -0.240 F 
HETATM    3  C4  UNL     1       1.835  40.071  -9.853  1.00  0.00     0.049 C 
HETATM    4  C5  UNL     1       1.143  41.374  -9.424  1.00  0.00     0.044 C 
HETATM    5  C6  UNL     1       0.478  41.316 -10.808  1.00  0.00     0.209 C 
HETATM    6  F2  UNL     1      -0.584  40.440 -10.726  1.00  0.00    -0.246 F 
ENDROOT
BRANCH   1   7
HETATM    7  C2  UNL     1       1.619  39.649 -12.355  1.00  0.00     0.042 C 
HETATM    8  C1  UNL     1       1.433  40.407 -13.651  1.00  0.00     0.008 C 
ENDBRANCH   1   7
TORSDOF 1
ENDMDL
