MODEL 1
REMARK VINA RESULT: -5.906368807      0.000      0.000
REMARK  2 active torsions:
REMARK  status: ('A' for Active; 'I' for Inactive)
REMARK    1  A    between atoms: N1_1  and  C1_5 
REMARK    2  A    between atoms: C1_5  and  C2_6 
ROOT
HETATM    1  C2  UNL     1       1.459  39.265 -11.551  1.00  0.00     0.106 C 
HETATM    2  C3  UNL     1       1.047  40.057 -12.752  1.00  0.00    -0.018 C 
HETATM    3  C4  UNL     1       1.569  41.277 -12.688  1.00  0.00    -0.024 C 
HETATM    4  C5  UNL     1       2.374  41.407 -11.442  1.00  0.00     0.106 C 
HETATM    5  C6  UNL     1       1.705  40.383 -10.546  1.00  0.00     0.255 C 
HETATM    6  F1  UNL     1       0.537  40.938 -10.089  1.00  0.00    -0.205 F 
HETATM    7  F2  UNL     1       2.532  39.967  -9.526  1.00  0.00    -0.205 F 
ENDROOT
BRANCH   1   8
HETATM    8  C1  UNL     1       0.351  38.339 -11.103  1.00  0.00     0.244 C 
BRANCH   8   9
HETATM    9  N1  UNL     1      -0.619  38.280 -12.181  1.00  0.00    -0.079 N 
ATOM     10  H13 UNL     1      -1.230  39.096 -12.214  1.00  0.00     0.274 HD
ATOM     11  H12 UNL     1      -0.200  38.394 -13.104  1.00  0.00     0.274 HD
ATOM     12  H11 UNL     1      -1.129  37.403 -12.079  1.00  0.00     0.274 HD
ENDBRANCH   8   9
ENDBRANCH   1   8
TORSDOF 2
ENDMDL
MODEL 2
REMARK VINA RESULT: -5.576987073      2.117      2.997
REMARK  2 active torsions:
REMARK  status: ('A' for Active; 'I' for Inactive)
REMARK    1  A    between atoms: N1_1  and  C1_5 
REMARK    2  A    between atoms: C1_5  and  C2_6 
ROOT
HETATM    1  C2  UNL     1       1.490  39.738 -12.078  1.00  0.00     0.106 C 
HETATM    2  C3  UNL     1       2.038  40.552 -10.950  1.00  0.00    -0.018 C 
HETATM    3  C4  UNL     1       1.707  39.996  -9.790  1.00  0.00    -0.024 C 
HETATM    4  C5  UNL     1       0.909  38.764 -10.041  1.00  0.00     0.106 C 
HETATM    5  C6  UNL     1       0.303  39.072 -11.396  1.00  0.00     0.255 C 
HETATM    6  F1  UNL     1      -0.736  39.945 -11.192  1.00  0.00    -0.205 F 
HETATM    7  F2  UNL     1      -0.084  37.931 -12.063  1.00  0.00    -0.205 F 
ENDROOT
BRANCH   1   8
HETATM    8  C1  UNL     1       1.058  40.620 -13.227  1.00  0.00     0.244 C 
BRANCH   8   9
HETATM    9  N1  UNL     1       1.561  41.955 -12.954  1.00  0.00    -0.079 N 
ATOM     10  H13 UNL     1       1.117  42.673 -13.524  1.00  0.00     0.274 HD
ATOM     11  H12 UNL     1       1.272  42.312 -12.043  1.00  0.00     0.274 HD
ATOM     12  H11 UNL     1       2.574  41.923 -13.068  1.00  0.00     0.274 HD
ENDBRANCH   8   9
ENDBRANCH   1   8
TORSDOF 2
ENDMDL
MODEL 3
REMARK VINA RESULT: -5.565545057      1.989      2.868
REMARK  2 active torsions:
REMARK  status: ('A' for Active; 'I' for Inactive)
REMARK    1  A    between atoms: N1_1  and  C1_5 
REMARK    2  A    between atoms: C1_5  and  C2_6 
ROOT
HETATM    1  C2  UNL     1       1.249  40.855 -10.623  1.00  0.00     0.106 C 
HETATM    2  C3  UNL     1      -0.031  40.823 -11.396  1.00  0.00    -0.018 C 
HETATM    3  C4  UNL     1      -0.708  39.718 -11.101  1.00  0.00    -0.024 C 
HETATM    4  C5  UNL     1       0.059  38.917 -10.108  1.00  0.00     0.106 C 
HETATM    5  C6  UNL     1       1.478  39.367 -10.393  1.00  0.00     0.255 C 
HETATM    6  F1  UNL     1       1.893  38.723 -11.532  1.00  0.00    -0.205 F 
HETATM    7  F2  UNL     1       2.317  39.148  -9.323  1.00  0.00    -0.205 F 
ENDROOT
BRANCH   1   8
HETATM    8  C1  UNL     1       2.360  41.478 -11.436  1.00  0.00     0.244 C 
BRANCH   8   9
HETATM    9  N1  UNL     1       1.794  41.852 -12.719  1.00  0.00    -0.079 N 
ATOM     10  H13 UNL     1       1.725  41.069 -13.368  1.00  0.00     0.274 HD
ATOM     11  H12 UNL     1       0.799  42.069 -12.669  1.00  0.00     0.274 HD
ATOM     12  H11 UNL     1       2.354  42.623 -13.081  1.00  0.00     0.274 HD
ENDBRANCH   8   9
ENDBRANCH   1   8
TORSDOF 2
ENDMDL
MODEL 4
REMARK VINA RESULT: -5.392168536      2.145      2.717
REMARK  2 active torsions:
REMARK  status: ('A' for Active; 'I' for Inactive)
REMARK    1  A    between atoms: N1_1  and  C1_5 
REMARK    2  A    between atoms: C1_5  and  C2_6 
ROOT
HETATM    1  C2  UNL     1       0.842  39.760 -10.382  1.00  0.00     0.106 C 
HETATM    2  C3  UNL     1       2.068  40.603 -10.223  1.00  0.00    -0.018 C 
HETATM    3  C4  UNL     1       2.274  41.311 -11.329  1.00  0.00    -0.024 C 
HETATM    4  C5  UNL     1       1.207  41.004 -12.320  1.00  0.00     0.106 C 
HETATM    5  C6  UNL     1       0.799  39.607 -11.897  1.00  0.00     0.255 C 
HETATM    6  F1  UNL     1       1.757  38.741 -12.359  1.00  0.00    -0.205 F 
HETATM    7  F2  UNL     1      -0.467  39.281 -12.332  1.00  0.00    -0.205 F 
ENDROOT
BRANCH   1   8
HETATM    8  C1  UNL     1       1.003  38.429  -9.685  1.00  0.00     0.244 C 
BRANCH   8   9
HETATM    9  N1  UNL     1       2.390  38.329  -9.267  1.00  0.00    -0.079 N 
ATOM     10  H13 UNL     1       2.972  39.081  -9.634  1.00  0.00     0.274 HD
ATOM     11  H12 UNL     1       2.524  38.531  -8.276  1.00  0.00     0.274 HD
ATOM     12  H11 UNL     1       2.718  37.402  -9.535  1.00  0.00     0.274 HD
ENDBRANCH   8   9
ENDBRANCH   1   8
TORSDOF 2
ENDMDL
MODEL 5
REMARK VINA RESULT: -5.363927524      1.748      1.943
REMARK  2 active torsions:
REMARK  status: ('A' for Active; 'I' for Inactive)
REMARK    1  A    between atoms: N1_1  and  C1_5 
REMARK    2  A    between atoms: C1_5  and  C2_6 
ROOT
HETATM    1  C2  UNL     1       1.814  39.685 -11.223  1.00  0.00     0.106 C 
HETATM    2  C3  UNL     1       0.802  39.289 -12.251  1.00  0.00    -0.018 C 
HETATM    3  C4  UNL     1       0.765  40.196 -13.220  1.00  0.00    -0.024 C 
HETATM    4  C5  UNL     1       1.748  41.276 -12.926  1.00  0.00     0.106 C 
HETATM    5  C6  UNL     1       1.836  41.195 -11.415  1.00  0.00     0.255 C 
HETATM    6  F1  UNL     1       0.715  41.800 -10.905  1.00  0.00    -0.205 F 
HETATM    7  F2  UNL     1       3.003  41.746 -10.933  1.00  0.00    -0.205 F 
ENDROOT
BRANCH   1   8
HETATM    8  C1  UNL     1       1.360  39.299  -9.834  1.00  0.00     0.244 C 
BRANCH   8   9
HETATM    9  N1  UNL     1       2.250  38.252  -9.367  1.00  0.00    -0.079 N 
ATOM     10  H13 UNL     1       2.087  37.356  -9.825  1.00  0.00     0.274 HD
ATOM     11  H12 UNL     1       3.215  38.382  -9.673  1.00  0.00     0.274 HD
ATOM     12  H11 UNL     1       2.155  38.207  -8.353  1.00  0.00     0.274 HD
ENDBRANCH   8   9
ENDBRANCH   1   8
TORSDOF 2
ENDMDL
