MODEL 1
REMARK VINA RESULT: -8.054249453      0.000      0.000
REMARK  10 active torsions:
REMARK  status: ('A' for Active; 'I' for Inactive)
REMARK    1  A    between atoms: O1_2  and  C2_3 
REMARK    2  A    between atoms: C2_3  and  C3_5 
REMARK    3  A    between atoms: C4_7  and  N1_8 
REMARK    4  A    between atoms: N2_10  and  N3_12 
REMARK    5  A    between atoms: N3_12  and  C5_14 
REMARK    6  A    between atoms: C6_17  and  N5_18 
REMARK    7  A    between atoms: C7_23  and  O4_24 
REMARK    8  A    between atoms: O4_24  and  N7_25 
REMARK    9  A    between atoms: C8_28  and  O5_29 
REMARK   10  A    between atoms: C10_35  and  O7_36 
ROOT
HETATM    1  C5  UNL     1     115.195  54.980  20.360  1.00  0.00     0.190 C 
HETATM    2  N4  UNL     1     116.093  55.413  19.459  1.00  0.00    -0.171 N 
ATOM      3  H4  UNL     1     116.404  54.701  18.798  1.00  0.00     0.186 HD
HETATM    4  C6  UNL     1     116.656  56.630  19.277  1.00  0.00     0.679 C 
HETATM    5  N6  UNL     1     116.287  57.785  19.853  1.00  0.00    -0.166 N 
ATOM      6  H6  UNL     1     116.786  58.611  19.522  1.00  0.00     0.186 HD
HETATM    7  C7  UNL     1     115.349  58.022  20.811  1.00  0.00     0.221 C 
HETATM    8  C8  UNL     1     114.544  57.132  21.462  1.00  0.00     0.174 C 
HETATM    9  C9  UNL     1     114.440  55.761  21.203  1.00  0.00     0.255 C 
HETATM   10  O6  UNL     1     113.511  55.232  21.863  1.00  0.00    -0.281 OA
ENDROOT
BRANCH   1  11
HETATM   11  N3  UNL     1     114.992  53.721  20.475  1.00  0.00    -0.267 N 
ATOM     12  H3  UNL     1     115.736  53.107  20.810  1.00  0.00     0.190 HD
BRANCH  11  13
HETATM   13  N2  UNL     1     113.747  53.196  20.137  1.00  0.00    -0.238 N 
HETATM   14  N1  UNL     1     113.528  52.509  19.092  1.00  0.00    -0.250 N 
ATOM     15  H1  UNL     1     112.591  52.155  18.903  1.00  0.00     0.192 HD
ATOM     16  H2  UNL     1     112.965  53.375  20.766  1.00  0.00     0.208 HD
BRANCH  14  17
HETATM   17  C4  UNL     1     114.589  52.233  18.184  1.00  0.00     0.247 A 
HETATM   18  O3  UNL     1     115.560  53.020  17.804  1.00  0.00    -0.267 OA
HETATM   19  C3  UNL     1     116.357  52.447  16.962  1.00  0.00     0.204 A 
HETATM   20  C10 UNL     1     115.887  51.170  16.756  1.00  0.00     0.184 A 
HETATM   21  N8  UNL     1     114.783  51.055  17.527  1.00  0.00    -0.299 N 
ATOM     22  H8  UNL     1     114.194  50.226  17.604  1.00  0.00     0.171 HD
BRANCH  19  23
HETATM   23  C2  UNL     1     117.556  53.001  16.312  1.00  0.00     0.321 C 
HETATM   24  O2  UNL     1     118.414  52.250  15.779  1.00  0.00    -0.257 OA
BRANCH  23  25
HETATM   25  O1  UNL     1     117.786  54.370  16.262  1.00  0.00    -0.321 OA
HETATM   26  C1  UNL     1     117.247  55.125  15.193  1.00  0.00     0.213 C 
ENDBRANCH  23  25
ENDBRANCH  19  23
BRANCH  20  27
HETATM   27  O7  UNL     1     116.376  50.152  15.951  1.00  0.00    -0.344 OA
ATOM     28  H7  UNL     1     116.188  49.941  15.043  1.00  0.00     0.219 HD
ENDBRANCH  20  27
ENDBRANCH  14  17
ENDBRANCH  11  13
ENDBRANCH   1  11
BRANCH   4  29
HETATM   29  N5  UNL     1     117.651  56.738  18.476  1.00  0.00    -0.234 N 
ATOM     30  H52 UNL     1     117.460  57.300  17.647  1.00  0.00     0.174 HD
ATOM     31  H51 UNL     1     118.527  56.272  18.714  1.00  0.00     0.174 HD
ENDBRANCH   4  29
BRANCH   8  32
HETATM   32  O5  UNL     1     113.749  57.638  22.482  1.00  0.00    -0.353 OA
ATOM     33  H5  UNL     1     113.140  57.033  22.890  1.00  0.00     0.218 HD
ENDBRANCH   8  32
BRANCH   7  34
HETATM   34  O4  UNL     1     115.207  59.351  21.158  1.00  0.00    -0.223 OA
BRANCH  34  35
HETATM   35  N7  UNL     1     115.717  59.923  22.276  1.00  0.00    -0.303 N 
ATOM     36  H72 UNL     1     116.664  59.646  22.535  1.00  0.00     0.184 HD
ATOM     37  H71 UNL     1     115.229  60.598  22.864  1.00  0.00     0.184 HD
ENDBRANCH  34  35
ENDBRANCH   7  34
TORSDOF 10
ENDMDL
MODEL 2
REMARK VINA RESULT: -7.364399086      2.315      6.856
REMARK  10 active torsions:
REMARK  status: ('A' for Active; 'I' for Inactive)
REMARK    1  A    between atoms: O1_2  and  C2_3 
REMARK    2  A    between atoms: C2_3  and  C3_5 
REMARK    3  A    between atoms: C4_7  and  N1_8 
REMARK    4  A    between atoms: N2_10  and  N3_12 
REMARK    5  A    between atoms: N3_12  and  C5_14 
REMARK    6  A    between atoms: C6_17  and  N5_18 
REMARK    7  A    between atoms: C7_23  and  O4_24 
REMARK    8  A    between atoms: O4_24  and  N7_25 
REMARK    9  A    between atoms: C8_28  and  O5_29 
REMARK   10  A    between atoms: C10_35  and  O7_36 
ROOT
HETATM    1  C5  UNL     1     115.569  53.151  18.815  1.00  0.00     0.190 C 
HETATM    2  N4  UNL     1     116.561  53.331  17.928  1.00  0.00    -0.171 N 
ATOM      3  H4  UNL     1     117.180  54.113  18.141  1.00  0.00     0.186 HD
HETATM    4  C6  UNL     1     116.882  52.655  16.800  1.00  0.00     0.679 C 
HETATM    5  N6  UNL     1     116.381  51.478  16.395  1.00  0.00    -0.166 N 
ATOM      6  H6  UNL     1     116.812  51.090  15.555  1.00  0.00     0.186 HD
HETATM    7  C7  UNL     1     115.384  50.721  16.933  1.00  0.00     0.221 C 
HETATM    8  C8  UNL     1     114.608  50.977  18.026  1.00  0.00     0.174 C 
HETATM    9  C9  UNL     1     114.744  52.054  18.909  1.00  0.00     0.255 C 
HETATM   10  O6  UNL     1     113.981  51.943  19.900  1.00  0.00    -0.281 OA
ENDROOT
BRANCH   1  11
HETATM   11  N3  UNL     1     115.336  54.069  19.677  1.00  0.00    -0.267 N 
ATOM     12  H3  UNL     1     115.869  54.939  19.660  1.00  0.00     0.190 HD
BRANCH  11  13
HETATM   13  N2  UNL     1     114.349  53.868  20.638  1.00  0.00    -0.238 N 
HETATM   14  N1  UNL     1     113.898  54.784  21.393  1.00  0.00    -0.250 N 
ATOM     15  H1  UNL     1     113.174  54.569  22.078  1.00  0.00     0.192 HD
ATOM     16  H2  UNL     1     113.964  52.929  20.742  1.00  0.00     0.208 HD
BRANCH  14  17
HETATM   17  C4  UNL     1     114.402  56.111  21.285  1.00  0.00     0.247 A 
HETATM   18  O3  UNL     1     115.316  56.569  20.471  1.00  0.00    -0.267 OA
HETATM   19  C3  UNL     1     115.537  57.832  20.641  1.00  0.00     0.204 A 
HETATM   20  C10 UNL     1     114.705  58.262  21.650  1.00  0.00     0.184 A 
HETATM   21  N8  UNL     1     114.005  57.173  22.039  1.00  0.00    -0.299 N 
ATOM     22  H8  UNL     1     113.298  57.151  22.774  1.00  0.00     0.171 HD
BRANCH  19  23
HETATM   23  C2  UNL     1     116.483  58.702  19.924  1.00  0.00     0.321 C 
HETATM   24  O2  UNL     1     116.170  59.876  19.597  1.00  0.00    -0.257 OA
BRANCH  23  25
HETATM   25  O1  UNL     1     117.755  58.261  19.581  1.00  0.00    -0.321 OA
HETATM   26  C1  UNL     1     118.707  58.029  20.602  1.00  0.00     0.213 C 
ENDBRANCH  23  25
ENDBRANCH  19  23
BRANCH  20  27
HETATM   27  O7  UNL     1     114.550  59.521  22.211  1.00  0.00    -0.344 OA
ATOM     28  H7  UNL     1     115.086  59.982  22.845  1.00  0.00     0.219 HD
ENDBRANCH  20  27
ENDBRANCH  14  17
ENDBRANCH  11  13
ENDBRANCH   1  11
BRANCH   4  29
HETATM   29  N5  UNL     1     117.754  53.154  16.006  1.00  0.00    -0.234 N 
ATOM     30  H52 UNL     1     117.529  54.093  15.675  1.00  0.00     0.174 HD
ATOM     31  H51 UNL     1     118.578  52.602  15.769  1.00  0.00     0.174 HD
ENDBRANCH   4  29
BRANCH   8  32
HETATM   32  O5  UNL     1     113.582  50.079  18.289  1.00  0.00    -0.353 OA
ATOM     33  H5  UNL     1     113.113  49.733  17.539  1.00  0.00     0.218 HD
ENDBRANCH   8  32
BRANCH   7  34
HETATM   34  O4  UNL     1     115.140  49.537  16.267  1.00  0.00    -0.223 OA
BRANCH  34  35
HETATM   35  N7  UNL     1     115.825  49.095  15.184  1.00  0.00    -0.303 N 
ATOM     36  H72 UNL     1     115.270  48.860  14.362  1.00  0.00     0.184 HD
ATOM     37  H71 UNL     1     116.838  48.985  15.135  1.00  0.00     0.184 HD
ENDBRANCH  34  35
ENDBRANCH   7  34
TORSDOF 10
ENDMDL
MODEL 3
REMARK VINA RESULT: -7.350448391      2.109      6.439
REMARK  10 active torsions:
REMARK  status: ('A' for Active; 'I' for Inactive)
REMARK    1  A    between atoms: O1_2  and  C2_3 
REMARK    2  A    between atoms: C2_3  and  C3_5 
REMARK    3  A    between atoms: C4_7  and  N1_8 
REMARK    4  A    between atoms: N2_10  and  N3_12 
REMARK    5  A    between atoms: N3_12  and  C5_14 
REMARK    6  A    between atoms: C6_17  and  N5_18 
REMARK    7  A    between atoms: C7_23  and  O4_24 
REMARK    8  A    between atoms: O4_24  and  N7_25 
REMARK    9  A    between atoms: C8_28  and  O5_29 
REMARK   10  A    between atoms: C10_35  and  O7_36 
ROOT
HETATM    1  C5  UNL     1     116.874  54.470  19.180  1.00  0.00     0.190 C 
HETATM    2  N4  UNL     1     117.433  55.639  18.829  1.00  0.00    -0.171 N 
ATOM      3  H4  UNL     1     117.585  56.284  19.604  1.00  0.00     0.186 HD
HETATM    4  C6  UNL     1     117.831  56.110  17.624  1.00  0.00     0.679 C 
HETATM    5  N6  UNL     1     117.945  55.413  16.483  1.00  0.00    -0.166 N 
ATOM      6  H6  UNL     1     118.341  55.931  15.698  1.00  0.00     0.186 HD
HETATM    7  C7  UNL     1     117.613  54.120  16.212  1.00  0.00     0.221 C 
HETATM    8  C8  UNL     1     117.048  53.190  17.035  1.00  0.00     0.174 C 
HETATM    9  C9  UNL     1     116.774  53.342  18.399  1.00  0.00     0.255 C 
HETATM   10  O6  UNL     1     116.390  52.266  18.920  1.00  0.00    -0.281 OA
ENDROOT
BRANCH   1  11
HETATM   11  N3  UNL     1     116.372  54.352  20.353  1.00  0.00    -0.267 N 
ATOM     12  H3  UNL     1     116.968  54.424  21.178  1.00  0.00     0.190 HD
BRANCH  11  13
HETATM   13  N2  UNL     1     115.005  54.125  20.491  1.00  0.00    -0.238 N 
HETATM   14  N1  UNL     1     114.158  55.036  20.744  1.00  0.00    -0.250 N 
ATOM     15  H1  UNL     1     113.170  54.801  20.833  1.00  0.00     0.192 HD
ATOM     16  H2  UNL     1     114.665  53.169  20.383  1.00  0.00     0.208 HD
BRANCH  14  17
HETATM   17  C4  UNL     1     114.585  56.384  20.902  1.00  0.00     0.247 A 
HETATM   18  O3  UNL     1     115.479  57.041  20.212  1.00  0.00    -0.267 OA
HETATM   19  C3  UNL     1     115.624  58.257  20.624  1.00  0.00     0.204 A 
HETATM   20  C10 UNL     1     114.758  58.439  21.679  1.00  0.00     0.184 A 
HETATM   21  N8  UNL     1     114.118  57.259  21.837  1.00  0.00    -0.299 N 
ATOM     22  H8  UNL     1     113.406  57.057  22.539  1.00  0.00     0.171 HD
BRANCH  19  23
HETATM   23  C2  UNL     1     116.526  59.300  20.107  1.00  0.00     0.321 C 
HETATM   24  O2  UNL     1     116.094  60.440  19.797  1.00  0.00    -0.257 OA
BRANCH  23  25
HETATM   25  O1  UNL     1     117.885  59.065  19.943  1.00  0.00    -0.321 OA
HETATM   26  C1  UNL     1     118.614  58.451  20.989  1.00  0.00     0.213 C 
ENDBRANCH  23  25
ENDBRANCH  19  23
BRANCH  20  27
HETATM   27  O7  UNL     1     114.523  59.556  22.467  1.00  0.00    -0.344 OA
ATOM     28  H7  UNL     1     114.723  59.716  23.382  1.00  0.00     0.219 HD
ENDBRANCH  20  27
ENDBRANCH  14  17
ENDBRANCH  11  13
ENDBRANCH   1  11
BRANCH   4  29
HETATM   29  N5  UNL     1     118.143  57.348  17.516  1.00  0.00    -0.234 N 
ATOM     30  H52 UNL     1     118.313  57.815  18.407  1.00  0.00     0.174 HD
ATOM     31  H51 UNL     1     118.197  57.763  16.586  1.00  0.00     0.174 HD
ENDBRANCH   4  29
BRANCH   8  32
HETATM   32  O5  UNL     1     116.711  51.970  16.463  1.00  0.00    -0.353 OA
ATOM     33  H5  UNL     1     116.346  51.995  15.585  1.00  0.00     0.218 HD
ENDBRANCH   8  32
BRANCH   7  34
HETATM   34  O4  UNL     1     117.894  53.714  14.923  1.00  0.00    -0.223 OA
BRANCH  34  35
HETATM   35  N7  UNL     1     119.096  53.256  14.494  1.00  0.00    -0.303 N 
ATOM     36  H72 UNL     1     119.467  52.438  14.977  1.00  0.00     0.184 HD
ATOM     37  H71 UNL     1     119.643  53.664  13.737  1.00  0.00     0.184 HD
ENDBRANCH  34  35
ENDBRANCH   7  34
TORSDOF 10
ENDMDL
MODEL 4
REMARK VINA RESULT: -7.325528367      3.411      7.342
REMARK  10 active torsions:
REMARK  status: ('A' for Active; 'I' for Inactive)
REMARK    1  A    between atoms: O1_2  and  C2_3 
REMARK    2  A    between atoms: C2_3  and  C3_5 
REMARK    3  A    between atoms: C4_7  and  N1_8 
REMARK    4  A    between atoms: N2_10  and  N3_12 
REMARK    5  A    between atoms: N3_12  and  C5_14 
REMARK    6  A    between atoms: C6_17  and  N5_18 
REMARK    7  A    between atoms: C7_23  and  O4_24 
REMARK    8  A    between atoms: O4_24  and  N7_25 
REMARK    9  A    between atoms: C8_28  and  O5_29 
REMARK   10  A    between atoms: C10_35  and  O7_36 
ROOT
HETATM    1  C5  UNL     1     116.898  57.369  16.184  1.00  0.00     0.190 C 
HETATM    2  N4  UNL     1     117.081  56.040  16.110  1.00  0.00    -0.171 N 
ATOM      3  H4  UNL     1     116.669  55.514  16.881  1.00  0.00     0.186 HD
HETATM    4  C6  UNL     1     117.718  55.278  15.190  1.00  0.00     0.679 C 
HETATM    5  N6  UNL     1     118.163  55.670  13.986  1.00  0.00    -0.166 N 
ATOM      6  H6  UNL     1     118.544  54.925  13.403  1.00  0.00     0.186 HD
HETATM    7  C7  UNL     1     118.183  56.910  13.424  1.00  0.00     0.221 C 
HETATM    8  C8  UNL     1     117.772  58.099  13.954  1.00  0.00     0.174 C 
HETATM    9  C9  UNL     1     117.132  58.284  15.185  1.00  0.00     0.255 C 
HETATM   10  O6  UNL     1     116.745  59.470  15.334  1.00  0.00    -0.281 OA
ENDROOT
BRANCH   1  11
HETATM   11  N3  UNL     1     116.461  57.873  17.277  1.00  0.00    -0.267 N 
ATOM     12  H3  UNL     1     115.511  57.676  17.592  1.00  0.00     0.190 HD
BRANCH  11  13
HETATM   13  N2  UNL     1     117.295  58.694  18.032  1.00  0.00    -0.238 N 
HETATM   14  N1  UNL     1     117.210  58.824  19.292  1.00  0.00    -0.250 N 
ATOM     15  H1  UNL     1     117.853  59.443  19.784  1.00  0.00     0.192 HD
ATOM     16  H2  UNL     1     118.018  59.222  17.543  1.00  0.00     0.208 HD
BRANCH  14  17
HETATM   17  C4  UNL     1     116.217  58.106  20.018  1.00  0.00     0.247 A 
HETATM   18  O3  UNL     1     115.976  56.822  20.015  1.00  0.00    -0.267 OA
HETATM   19  C3  UNL     1     114.996  56.504  20.795  1.00  0.00     0.204 A 
HETATM   20  C10 UNL     1     114.537  57.666  21.373  1.00  0.00     0.184 A 
HETATM   21  N8  UNL     1     115.311  58.655  20.875  1.00  0.00    -0.299 N 
ATOM     22  H8  UNL     1     115.231  59.646  21.104  1.00  0.00     0.171 HD
BRANCH  19  23
HETATM   23  C2  UNL     1     114.430  55.170  21.059  1.00  0.00     0.321 C 
HETATM   24  O2  UNL     1     113.372  55.031  21.726  1.00  0.00    -0.257 OA
BRANCH  23  25
HETATM   25  O1  UNL     1     115.041  54.017  20.584  1.00  0.00    -0.321 OA
HETATM   26  C1  UNL     1     114.341  53.182  19.682  1.00  0.00     0.213 C 
ENDBRANCH  23  25
ENDBRANCH  19  23
BRANCH  20  27
HETATM   27  O7  UNL     1     113.508  57.872  22.280  1.00  0.00    -0.344 OA
ATOM     28  H7  UNL     1     113.467  58.432  23.046  1.00  0.00     0.219 HD
ENDBRANCH  20  27
ENDBRANCH  14  17
ENDBRANCH  11  13
ENDBRANCH   1  11
BRANCH   4  29
HETATM   29  N5  UNL     1     117.939  54.044  15.455  1.00  0.00    -0.234 N 
ATOM     30  H52 UNL     1     117.099  53.467  15.487  1.00  0.00     0.174 HD
ATOM     31  H51 UNL     1     118.899  53.739  15.611  1.00  0.00     0.174 HD
ENDBRANCH   4  29
BRANCH   8  32
HETATM   32  O5  UNL     1     118.012  59.238  13.196  1.00  0.00    -0.353 OA
ATOM     33  H5  UNL     1     118.892  59.594  13.226  1.00  0.00     0.218 HD
ENDBRANCH   8  32
BRANCH   7  34
HETATM   34  O4  UNL     1     118.693  56.950  12.142  1.00  0.00    -0.223 OA
BRANCH  34  35
HETATM   35  N7  UNL     1     117.968  56.781  11.008  1.00  0.00    -0.303 N 
ATOM     36  H72 UNL     1     117.559  57.623  10.603  1.00  0.00     0.184 HD
ATOM     37  H71 UNL     1     117.807  55.889  10.543  1.00  0.00     0.184 HD
ENDBRANCH  34  35
ENDBRANCH   7  34
TORSDOF 10
ENDMDL
MODEL 5
REMARK VINA RESULT: -7.292757657      3.705      5.814
REMARK  10 active torsions:
REMARK  status: ('A' for Active; 'I' for Inactive)
REMARK    1  A    between atoms: O1_2  and  C2_3 
REMARK    2  A    between atoms: C2_3  and  C3_5 
REMARK    3  A    between atoms: C4_7  and  N1_8 
REMARK    4  A    between atoms: N2_10  and  N3_12 
REMARK    5  A    between atoms: N3_12  and  C5_14 
REMARK    6  A    between atoms: C6_17  and  N5_18 
REMARK    7  A    between atoms: C7_23  and  O4_24 
REMARK    8  A    between atoms: O4_24  and  N7_25 
REMARK    9  A    between atoms: C8_28  and  O5_29 
REMARK   10  A    between atoms: C10_35  and  O7_36 
ROOT
HETATM    1  C5  UNL     1     117.263  56.066  14.906  1.00  0.00     0.190 C 
HETATM    2  N4  UNL     1     117.428  55.989  13.575  1.00  0.00    -0.171 N 
ATOM      3  H4  UNL     1     117.215  55.076  13.175  1.00  0.00     0.186 HD
HETATM    4  C6  UNL     1     117.829  56.915  12.672  1.00  0.00     0.679 C 
HETATM    5  N6  UNL     1     117.971  58.234  12.877  1.00  0.00    -0.166 N 
ATOM      6  H6  UNL     1     118.205  58.778  12.047  1.00  0.00     0.186 HD
HETATM    7  C7  UNL     1     117.851  58.957  14.025  1.00  0.00     0.221 C 
HETATM    8  C8  UNL     1     117.574  58.521  15.289  1.00  0.00     0.174 C 
HETATM    9  C9  UNL     1     117.248  57.213  15.664  1.00  0.00     0.255 C 
HETATM   10  O6  UNL     1     116.902  57.148  16.870  1.00  0.00    -0.281 OA
ENDROOT
BRANCH   1  11
HETATM   11  N3  UNL     1     117.099  54.984  15.571  1.00  0.00    -0.267 N 
ATOM     12  H3  UNL     1     116.358  54.917  16.270  1.00  0.00     0.190 HD
BRANCH  11  13
HETATM   13  N2  UNL     1     117.941  53.901  15.333  1.00  0.00    -0.238 N 
HETATM   14  N1  UNL     1     117.924  52.828  16.011  1.00  0.00    -0.250 N 
ATOM     15  H1  UNL     1     118.569  52.072  15.783  1.00  0.00     0.192 HD
ATOM     16  H2  UNL     1     118.611  53.974  14.567  1.00  0.00     0.208 HD
BRANCH  14  17
HETATM   17  C4  UNL     1     117.006  52.679  17.089  1.00  0.00     0.247 A 
HETATM   18  O3  UNL     1     116.596  53.582  17.939  1.00  0.00    -0.267 OA
HETATM   19  C3  UNL     1     115.755  53.105  18.797  1.00  0.00     0.204 A 
HETATM   20  C10 UNL     1     115.582  51.771  18.503  1.00  0.00     0.184 A 
HETATM   21  N8  UNL     1     116.371  51.524  17.434  1.00  0.00    -0.299 N 
ATOM     22  H8  UNL     1     116.474  50.624  16.965  1.00  0.00     0.171 HD
BRANCH  19  23
HETATM   23  C2  UNL     1     115.076  53.802  19.901  1.00  0.00     0.321 C 
HETATM   24  O2  UNL     1     113.905  53.495  20.244  1.00  0.00    -0.257 OA
BRANCH  23  25
HETATM   25  O1  UNL     1     115.700  54.824  20.605  1.00  0.00    -0.321 OA
HETATM   26  C1  UNL     1     115.634  56.148  20.110  1.00  0.00     0.213 C 
ENDBRANCH  23  25
ENDBRANCH  19  23
BRANCH  20  27
HETATM   27  O7  UNL     1     114.790  50.811  19.117  1.00  0.00    -0.344 OA
ATOM     28  H7  UNL     1     115.029  49.994  19.539  1.00  0.00     0.219 HD
ENDBRANCH  20  27
ENDBRANCH  14  17
ENDBRANCH  11  13
ENDBRANCH   1  11
BRANCH   4  29
HETATM   29  N5  UNL     1     118.113  56.536  11.482  1.00  0.00    -0.234 N 
ATOM     30  H52 UNL     1     117.476  56.891  10.768  1.00  0.00     0.174 HD
ATOM     31  H51 UNL     1     118.920  55.930  11.337  1.00  0.00     0.174 HD
ENDBRANCH   4  29
BRANCH   8  32
HETATM   32  O5  UNL     1     117.621  59.469  16.302  1.00  0.00    -0.353 OA
ATOM     33  H5  UNL     1     118.330  59.390  16.930  1.00  0.00     0.218 HD
ENDBRANCH   8  32
BRANCH   7  34
HETATM   34  O4  UNL     1     118.039  60.316  13.869  1.00  0.00    -0.223 OA
BRANCH  34  35
HETATM   35  N7  UNL     1     119.208  60.970  14.074  1.00  0.00    -0.303 N 
ATOM     36  H72 UNL     1     119.657  61.365  13.248  1.00  0.00     0.184 HD
ATOM     37  H71 UNL     1     119.661  61.093  14.980  1.00  0.00     0.184 HD
ENDBRANCH  34  35
ENDBRANCH   7  34
TORSDOF 10
ENDMDL
