MODEL 1
REMARK VINA RESULT: -5.780353509      0.000      0.000
REMARK  11 active torsions:
REMARK  status: ('A' for Active; 'I' for Inactive)
REMARK    1  A    between atoms: N1_2  and  C2_4 
REMARK    2  A    between atoms: C2_4  and  O1_5 
REMARK    3  A    between atoms: C2_4  and  C3_7 
REMARK    4  A    between atoms: N2_11  and  N3_12 
REMARK    5  A    between atoms: C7_15  and  N4_16 
REMARK    6  A    between atoms: N4_16  and  C8_18 
REMARK    7  A    between atoms: C8_18  and  C9_19 
REMARK    8  A    between atoms: C9_19  and  O2_20 
REMARK    9  A    between atoms: C11_25  and  C12_26 
REMARK   10  A    between atoms: C12_26  and  N6_27 
REMARK   11  A    between atoms: C12_26  and  O3_31 
ROOT
HETATM    1  C3  UNL     1       6.390 -32.780 -17.177  1.00  0.00     0.135 A 
HETATM    2  C4  UNL     1       5.086 -32.629 -17.597  1.00  0.00     0.108 A 
HETATM    3  C5  UNL     1       4.615 -33.843 -18.114  1.00  0.00     0.057 A 
HETATM    4  C6  UNL     1       5.638 -34.721 -18.003  1.00  0.00     0.134 A 
HETATM    5  N2  UNL     1       6.686 -34.107 -17.455  1.00  0.00    -0.267 N 
HETATM    6  C7  UNL     1       3.322 -33.963 -18.607  1.00  0.00     0.117 A 
HETATM    7  N5  UNL     1       2.557 -32.865 -18.562  1.00  0.00    -0.325 N 
ATOM      8  H5  UNL     1       1.602 -32.917 -18.916  1.00  0.00     0.169 HD
HETATM    9  C10 UNL     1       3.002 -31.701 -18.070  1.00  0.00     0.159 A 
HETATM   10  C11 UNL     1       2.400 -30.440 -17.921  1.00  0.00     0.128 A 
HETATM   11  N7  UNL     1       3.344 -29.632 -17.354  1.00  0.00    -0.282 N 
ATOM     12  H7  UNL     1       3.226 -28.648 -17.113  1.00  0.00     0.188 HD
HETATM   13  N8  UNL     1       4.422 -30.344 -17.175  1.00  0.00    -0.234 N 
ATOM     14  H8  UNL     1       5.285 -29.987 -16.766  1.00  0.00     0.209 HD
HETATM   15  N9  UNL     1       4.258 -31.573 -17.587  1.00  0.00    -0.220 N 
ENDROOT
BRANCH  10  16
HETATM   16  C12 UNL     1       1.027 -30.139 -18.321  1.00  0.00     0.372 C 
BRANCH  16  17
HETATM   17  N6  UNL     1       0.946 -29.348 -19.532  1.00  0.00    -0.047 N 
ATOM     18  H63 UNL     1       0.188 -28.668 -19.472  1.00  0.00     0.277 HD
ATOM     19  H62 UNL     1       1.739 -28.710 -19.603  1.00  0.00     0.277 HD
ATOM     20  H61 UNL     1       0.859 -29.914 -20.376  1.00  0.00     0.277 HD
ENDBRANCH  16  17
BRANCH  16  21
HETATM   21  O3  UNL     1       0.363 -29.474 -17.272  1.00  0.00    -0.365 OA
ATOM     22  H3  UNL     1       0.133 -30.097 -16.594  1.00  0.00     0.212 HD
ENDBRANCH  16  21
ENDBRANCH  10  16
BRANCH   6  23
HETATM   23  N4  UNL     1       2.956 -35.095 -19.061  1.00  0.00    -0.373 N 
ATOM     24  H4  UNL     1       3.573 -35.548 -19.735  1.00  0.00     0.161 HD
BRANCH  23  25
HETATM   25  C8  UNL     1       1.754 -35.786 -18.709  1.00  0.00     0.147 C 
BRANCH  25  26
HETATM   26  C9  UNL     1       1.803 -37.259 -19.032  1.00  0.00     0.183 C 
BRANCH  26  27
HETATM   27  O2  UNL     1       1.478 -37.392 -20.387  1.00  0.00    -0.399 OA
ATOM     28  H2  UNL     1       0.545 -37.563 -20.433  1.00  0.00     0.209 HD
ENDBRANCH  26  27
ENDBRANCH  25  26
ENDBRANCH  23  25
ENDBRANCH   6  23
BRANCH   1  29
HETATM   29  C2  UNL     1       7.359 -31.915 -16.586  1.00  0.00     0.167 C 
BRANCH  29  30
HETATM   30  N1  UNL     1       7.756 -31.636 -15.298  1.00  0.00    -0.373 N 
HETATM   31  C1  UNL     1       7.081 -30.513 -14.540  1.00  0.00     0.148 C 
ATOM     32  H1  UNL     1       8.498 -32.181 -14.859  1.00  0.00     0.161 HD
ENDBRANCH  29  30
BRANCH  29  33
HETATM   33  O1  UNL     1       8.055 -31.200 -17.468  1.00  0.00    -0.345 OA
ATOM     34  H1  UNL     1       8.897 -31.603 -17.647  1.00  0.00     0.219 HD
ENDBRANCH  29  33
ENDBRANCH   1  29
BRANCH   5  35
HETATM   35  N3  UNL     1       7.889 -34.790 -17.224  1.00  0.00    -0.338 N 
ATOM     36  H32 UNL     1       8.689 -34.322 -16.796  1.00  0.00     0.177 HD
ATOM     37  H31 UNL     1       8.110 -35.763 -17.434  1.00  0.00     0.177 HD
ENDBRANCH   5  35
TORSDOF 11
ENDMDL
MODEL 2
REMARK VINA RESULT: -5.661393552      2.033      4.497
REMARK  11 active torsions:
REMARK  status: ('A' for Active; 'I' for Inactive)
REMARK    1  A    between atoms: N1_2  and  C2_4 
REMARK    2  A    between atoms: C2_4  and  O1_5 
REMARK    3  A    between atoms: C2_4  and  C3_7 
REMARK    4  A    between atoms: N2_11  and  N3_12 
REMARK    5  A    between atoms: C7_15  and  N4_16 
REMARK    6  A    between atoms: N4_16  and  C8_18 
REMARK    7  A    between atoms: C8_18  and  C9_19 
REMARK    8  A    between atoms: C9_19  and  O2_20 
REMARK    9  A    between atoms: C11_25  and  C12_26 
REMARK   10  A    between atoms: C12_26  and  N6_27 
REMARK   11  A    between atoms: C12_26  and  O3_31 
ROOT
HETATM    1  C3  UNL     1       5.577 -31.421 -16.712  1.00  0.00     0.135 A 
HETATM    2  C4  UNL     1       4.355 -31.820 -17.208  1.00  0.00     0.108 A 
HETATM    3  C5  UNL     1       3.598 -30.694 -17.558  1.00  0.00     0.057 A 
HETATM    4  C6  UNL     1       4.370 -29.620 -17.272  1.00  0.00     0.134 A 
HETATM    5  N2  UNL     1       5.534 -30.035 -16.775  1.00  0.00    -0.267 N 
HETATM    6  C7  UNL     1       2.320 -30.821 -18.086  1.00  0.00     0.117 A 
HETATM    7  N5  UNL     1       1.853 -32.066 -18.240  1.00  0.00    -0.325 N 
ATOM      8  H5  UNL     1       0.918 -32.196 -18.624  1.00  0.00     0.169 HD
HETATM    9  C10 UNL     1       2.572 -33.147 -17.906  1.00  0.00     0.159 A 
HETATM   10  C11 UNL     1       2.303 -34.525 -17.972  1.00  0.00     0.128 A 
HETATM   11  N7  UNL     1       3.414 -35.154 -17.490  1.00  0.00    -0.282 N 
ATOM     12  H7  UNL     1       3.544 -36.162 -17.402  1.00  0.00     0.188 HD
HETATM   13  N8  UNL     1       4.280 -34.235 -17.160  1.00  0.00    -0.234 N 
ATOM     14  H8  UNL     1       5.202 -34.429 -16.770  1.00  0.00     0.209 HD
HETATM   15  N9  UNL     1       3.816 -33.036 -17.392  1.00  0.00    -0.220 N 
ENDROOT
BRANCH  10  16
HETATM   16  C12 UNL     1       1.051 -35.088 -18.475  1.00  0.00     0.372 C 
BRANCH  16  17
HETATM   17  N6  UNL     1       1.197 -35.753 -19.754  1.00  0.00    -0.047 N 
ATOM     18  H63 UNL     1       1.071 -35.093 -20.522  1.00  0.00     0.277 HD
ATOM     19  H62 UNL     1       2.169 -36.016 -19.917  1.00  0.00     0.277 HD
ATOM     20  H61 UNL     1       0.580 -36.557 -19.861  1.00  0.00     0.277 HD
ENDBRANCH  16  17
BRANCH  16  21
HETATM   21  O3  UNL     1       0.081 -34.072 -18.573  1.00  0.00    -0.365 OA
ATOM     22  H3  UNL     1       0.352 -33.320 -18.061  1.00  0.00     0.212 HD
ENDBRANCH  16  21
ENDBRANCH  10  16
BRANCH   6  23
HETATM   23  N4  UNL     1       1.687 -29.758 -18.385  1.00  0.00    -0.373 N 
ATOM     24  H4  UNL     1       2.091 -28.873 -18.078  1.00  0.00     0.161 HD
BRANCH  23  25
HETATM   25  C8  UNL     1       0.457 -29.696 -19.113  1.00  0.00     0.147 C 
BRANCH  25  26
HETATM   26  C9  UNL     1       0.591 -28.991 -20.441  1.00  0.00     0.183 C 
BRANCH  26  27
HETATM   27  O2  UNL     1      -0.468 -29.428 -21.245  1.00  0.00    -0.399 OA
ATOM     28  H2  UNL     1      -1.180 -28.811 -21.125  1.00  0.00     0.209 HD
ENDBRANCH  26  27
ENDBRANCH  25  26
ENDBRANCH  23  25
ENDBRANCH   6  23
BRANCH   1  29
HETATM   29  C2  UNL     1       6.727 -32.102 -16.211  1.00  0.00     0.167 C 
BRANCH  29  30
HETATM   30  N1  UNL     1       6.972 -32.942 -15.149  1.00  0.00    -0.373 N 
HETATM   31  C1  UNL     1       8.361 -32.991 -14.547  1.00  0.00     0.148 C 
ATOM     32  H1  UNL     1       6.226 -33.526 -14.771  1.00  0.00     0.161 HD
ENDBRANCH  29  30
BRANCH  29  33
HETATM   33  O1  UNL     1       7.832 -31.891 -16.922  1.00  0.00    -0.345 OA
ATOM     34  H1  UNL     1       7.945 -32.562 -17.586  1.00  0.00     0.219 HD
ENDBRANCH  29  33
ENDBRANCH   1  29
BRANCH   5  35
HETATM   35  N3  UNL     1       6.527 -29.122 -16.392  1.00  0.00    -0.338 N 
ATOM     36  H32 UNL     1       6.317 -28.343 -15.768  1.00  0.00     0.177 HD
ATOM     37  H31 UNL     1       7.510 -29.113 -16.663  1.00  0.00     0.177 HD
ENDBRANCH   5  35
TORSDOF 11
ENDMDL
MODEL 3
REMARK VINA RESULT: -5.609100780      1.752      5.127
REMARK  11 active torsions:
REMARK  status: ('A' for Active; 'I' for Inactive)
REMARK    1  A    between atoms: N1_2  and  C2_4 
REMARK    2  A    between atoms: C2_4  and  O1_5 
REMARK    3  A    between atoms: C2_4  and  C3_7 
REMARK    4  A    between atoms: N2_11  and  N3_12 
REMARK    5  A    between atoms: C7_15  and  N4_16 
REMARK    6  A    between atoms: N4_16  and  C8_18 
REMARK    7  A    between atoms: C8_18  and  C9_19 
REMARK    8  A    between atoms: C9_19  and  O2_20 
REMARK    9  A    between atoms: C11_25  and  C12_26 
REMARK   10  A    between atoms: C12_26  and  N6_27 
REMARK   11  A    between atoms: C12_26  and  O3_31 
ROOT
HETATM    1  C3  UNL     1       4.608 -34.438 -18.677  1.00  0.00     0.135 A 
HETATM    2  C4  UNL     1       4.058 -33.203 -18.414  1.00  0.00     0.108 A 
HETATM    3  C5  UNL     1       5.081 -32.258 -18.251  1.00  0.00     0.057 A 
HETATM    4  C6  UNL     1       6.243 -32.930 -18.419  1.00  0.00     0.134 A 
HETATM    5  N2  UNL     1       5.977 -34.212 -18.669  1.00  0.00    -0.267 N 
HETATM    6  C7  UNL     1       4.794 -30.927 -17.976  1.00  0.00     0.117 A 
HETATM    7  N5  UNL     1       3.501 -30.599 -17.874  1.00  0.00    -0.325 N 
ATOM      8  H5  UNL     1       3.254 -29.630 -17.672  1.00  0.00     0.169 HD
HETATM    9  C10 UNL     1       2.518 -31.498 -18.027  1.00  0.00     0.159 A 
HETATM   10  C11 UNL     1       1.118 -31.395 -17.968  1.00  0.00     0.128 A 
HETATM   11  N7  UNL     1       0.634 -32.649 -18.206  1.00  0.00    -0.282 N 
ATOM     12  H7  UNL     1      -0.350 -32.918 -18.233  1.00  0.00     0.188 HD
HETATM   13  N8  UNL     1       1.653 -33.440 -18.394  1.00  0.00    -0.234 N 
ATOM     14  H8  UNL     1       1.577 -34.438 -18.593  1.00  0.00     0.209 HD
HETATM   15  N9  UNL     1       2.785 -32.795 -18.296  1.00  0.00    -0.220 N 
ENDROOT
BRANCH  10  16
HETATM   16  C12 UNL     1       0.403 -30.150 -17.697  1.00  0.00     0.372 C 
BRANCH  16  17
HETATM   17  N6  UNL     1      -1.038 -30.304 -17.716  1.00  0.00    -0.047 N 
ATOM     18  H63 UNL     1      -1.305 -31.251 -17.448  1.00  0.00     0.277 HD
ATOM     19  H62 UNL     1      -1.468 -29.786 -16.950  1.00  0.00     0.277 HD
ATOM     20  H61 UNL     1      -1.458 -30.047 -18.609  1.00  0.00     0.277 HD
ENDBRANCH  16  17
BRANCH  16  21
HETATM   21  O3  UNL     1       0.789 -29.169 -18.632  1.00  0.00    -0.365 OA
ATOM     22  H3  UNL     1       0.138 -29.109 -19.320  1.00  0.00     0.212 HD
ENDBRANCH  16  21
ENDBRANCH  10  16
BRANCH   6  23
HETATM   23  N4  UNL     1       5.769 -30.120 -17.842  1.00  0.00    -0.373 N 
ATOM     24  H4  UNL     1       6.402 -30.018 -18.635  1.00  0.00     0.161 HD
BRANCH  23  25
HETATM   25  C8  UNL     1       6.055 -29.344 -16.675  1.00  0.00     0.147 C 
BRANCH  25  26
HETATM   26  C9  UNL     1       6.738 -30.138 -15.589  1.00  0.00     0.183 C 
BRANCH  26  27
HETATM   27  O2  UNL     1       7.339 -29.217 -14.724  1.00  0.00    -0.399 OA
ATOM     28  H2  UNL     1       7.857 -28.629 -15.261  1.00  0.00     0.209 HD
ENDBRANCH  26  27
ENDBRANCH  25  26
ENDBRANCH  23  25
ENDBRANCH   6  23
BRANCH   1  29
HETATM   29  C2  UNL     1       4.076 -35.740 -18.923  1.00  0.00     0.167 C 
BRANCH  29  30
HETATM   30  N1  UNL     1       3.258 -36.603 -18.231  1.00  0.00    -0.373 N 
HETATM   31  C1  UNL     1       1.962 -37.065 -18.862  1.00  0.00     0.148 C 
ATOM     32  H1  UNL     1       3.522 -36.928 -17.301  1.00  0.00     0.161 HD
ENDBRANCH  29  30
BRANCH  29  33
HETATM   33  O1  UNL     1       4.444 -36.262 -20.091  1.00  0.00    -0.345 OA
ATOM     34  H1  UNL     1       5.389 -36.352 -20.144  1.00  0.00     0.219 HD
ENDBRANCH  29  33
ENDBRANCH   1  29
BRANCH   5  35
HETATM   35  N3  UNL     1       7.007 -35.138 -18.885  1.00  0.00    -0.338 N 
ATOM     36  H32 UNL     1       6.857 -35.973 -19.452  1.00  0.00     0.177 HD
ATOM     37  H31 UNL     1       7.964 -35.108 -18.532  1.00  0.00     0.177 HD
ENDBRANCH   5  35
TORSDOF 11
ENDMDL
MODEL 4
REMARK VINA RESULT: -5.601235145      2.118      5.413
REMARK  11 active torsions:
REMARK  status: ('A' for Active; 'I' for Inactive)
REMARK    1  A    between atoms: N1_2  and  C2_4 
REMARK    2  A    between atoms: C2_4  and  O1_5 
REMARK    3  A    between atoms: C2_4  and  C3_7 
REMARK    4  A    between atoms: N2_11  and  N3_12 
REMARK    5  A    between atoms: C7_15  and  N4_16 
REMARK    6  A    between atoms: N4_16  and  C8_18 
REMARK    7  A    between atoms: C8_18  and  C9_19 
REMARK    8  A    between atoms: C9_19  and  O2_20 
REMARK    9  A    between atoms: C11_25  and  C12_26 
REMARK   10  A    between atoms: C12_26  and  N6_27 
REMARK   11  A    between atoms: C12_26  and  O3_31 
ROOT
HETATM    1  C3  UNL     1       2.721 -31.029 -17.944  1.00  0.00     0.135 A 
HETATM    2  C4  UNL     1       2.881 -32.390 -18.085  1.00  0.00     0.108 A 
HETATM    3  C5  UNL     1       4.239 -32.717 -17.984  1.00  0.00     0.057 A 
HETATM    4  C6  UNL     1       4.893 -31.550 -17.782  1.00  0.00     0.134 A 
HETATM    5  N2  UNL     1       4.011 -30.552 -17.757  1.00  0.00    -0.267 N 
HETATM    6  C7  UNL     1       4.673 -34.033 -18.092  1.00  0.00     0.117 A 
HETATM    7  N5  UNL     1       3.732 -34.962 -18.296  1.00  0.00    -0.325 N 
ATOM      8  H5  UNL     1       4.016 -35.938 -18.380  1.00  0.00     0.169 HD
HETATM    9  C10 UNL     1       2.431 -34.656 -18.393  1.00  0.00     0.159 A 
HETATM   10  C11 UNL     1       1.283 -35.439 -18.602  1.00  0.00     0.128 A 
HETATM   11  N7  UNL     1       0.228 -34.573 -18.610  1.00  0.00    -0.282 N 
ATOM     12  H7  UNL     1      -0.753 -34.822 -18.739  1.00  0.00     0.188 HD
HETATM   13  N8  UNL     1       0.698 -33.371 -18.422  1.00  0.00    -0.234 N 
ATOM     14  H8  UNL     1       0.123 -32.529 -18.384  1.00  0.00     0.209 HD
HETATM   15  N9  UNL     1       1.998 -33.380 -18.290  1.00  0.00    -0.220 N 
ENDROOT
BRANCH  10  16
HETATM   16  C12 UNL     1       1.305 -36.890 -18.767  1.00  0.00     0.372 C 
BRANCH  16  17
HETATM   17  N6  UNL     1       1.573 -37.306 -20.129  1.00  0.00    -0.047 N 
ATOM     18  H63 UNL     1       1.849 -36.509 -20.704  1.00  0.00     0.277 HD
ATOM     19  H62 UNL     1       2.432 -37.854 -20.180  1.00  0.00     0.277 HD
ATOM     20  H61 UNL     1       0.795 -37.808 -20.556  1.00  0.00     0.277 HD
ENDBRANCH  16  17
BRANCH  16  21
HETATM   21  O3  UNL     1       0.081 -37.435 -18.335  1.00  0.00    -0.365 OA
ATOM     22  H3  UNL     1      -0.395 -36.789 -17.827  1.00  0.00     0.212 HD
ENDBRANCH  16  21
ENDBRANCH  10  16
BRANCH   6  23
HETATM   23  N4  UNL     1       5.922 -34.262 -17.989  1.00  0.00    -0.373 N 
ATOM     24  H4  UNL     1       6.386 -33.941 -17.140  1.00  0.00     0.161 HD
BRANCH  23  25
HETATM   25  C8  UNL     1       6.730 -34.929 -18.963  1.00  0.00     0.147 C 
BRANCH  25  26
HETATM   26  C9  UNL     1       8.000 -35.502 -18.384  1.00  0.00     0.183 C 
BRANCH  26  27
HETATM   27  O2  UNL     1       8.678 -36.135 -19.432  1.00  0.00    -0.399 OA
ATOM     28  H2  UNL     1       9.485 -36.484 -19.070  1.00  0.00     0.209 HD
ENDBRANCH  26  27
ENDBRANCH  25  26
ENDBRANCH  23  25
ENDBRANCH   6  23
BRANCH   1  29
HETATM   29  C2  UNL     1       1.601 -30.145 -17.957  1.00  0.00     0.167 C 
BRANCH  29  30
HETATM   30  N1  UNL     1       0.567 -29.872 -17.091  1.00  0.00    -0.373 N 
HETATM   31  C1  UNL     1       0.769 -30.079 -15.605  1.00  0.00     0.148 C 
ATOM     32  H1  UNL     1      -0.327 -29.534 -17.448  1.00  0.00     0.161 HD
ENDBRANCH  29  30
BRANCH  29  33
HETATM   33  O1  UNL     1       1.517 -29.396 -19.055  1.00  0.00    -0.345 OA
ATOM     34  H1  UNL     1       1.384 -29.935 -19.827  1.00  0.00     0.219 HD
ENDBRANCH  29  33
ENDBRANCH   1  29
BRANCH   5  35
HETATM   35  N3  UNL     1       4.420 -29.225 -17.561  1.00  0.00    -0.338 N 
ATOM     36  H32 UNL     1       3.741 -28.474 -17.445  1.00  0.00     0.177 HD
ATOM     37  H31 UNL     1       5.372 -28.862 -17.514  1.00  0.00     0.177 HD
ENDBRANCH   5  35
TORSDOF 11
ENDMDL
MODEL 5
REMARK VINA RESULT: -5.556914354      8.800      9.838
REMARK  11 active torsions:
REMARK  status: ('A' for Active; 'I' for Inactive)
REMARK    1  A    between atoms: N1_2  and  C2_4 
REMARK    2  A    between atoms: C2_4  and  O1_5 
REMARK    3  A    between atoms: C2_4  and  C3_7 
REMARK    4  A    between atoms: N2_11  and  N3_12 
REMARK    5  A    between atoms: C7_15  and  N4_16 
REMARK    6  A    between atoms: N4_16  and  C8_18 
REMARK    7  A    between atoms: C8_18  and  C9_19 
REMARK    8  A    between atoms: C9_19  and  O2_20 
REMARK    9  A    between atoms: C11_25  and  C12_26 
REMARK   10  A    between atoms: C12_26  and  N6_27 
REMARK   11  A    between atoms: C12_26  and  O3_31 
ROOT
HETATM    1  C3  UNL     1       8.475 -27.148 -24.076  1.00  0.00     0.135 A 
HETATM    2  C4  UNL     1       8.165 -28.395 -24.573  1.00  0.00     0.108 A 
HETATM    3  C5  UNL     1       9.264 -29.250 -24.417  1.00  0.00     0.057 A 
HETATM    4  C6  UNL     1      10.232 -28.513 -23.826  1.00  0.00     0.134 A 
HETATM    5  N2  UNL     1       9.780 -27.276 -23.621  1.00  0.00    -0.267 N 
HETATM    6  C7  UNL     1       9.213 -30.573 -24.838  1.00  0.00     0.117 A 
HETATM    7  N5  UNL     1       8.068 -30.983 -25.397  1.00  0.00    -0.325 N 
ATOM      8  H5  UNL     1       7.996 -31.948 -25.718  1.00  0.00     0.169 HD
HETATM    9  C10 UNL     1       7.013 -30.170 -25.549  1.00  0.00     0.159 A 
HETATM   10  C11 UNL     1       5.733 -30.366 -26.094  1.00  0.00     0.128 A 
HETATM   11  N7  UNL     1       5.082 -29.171 -25.977  1.00  0.00    -0.282 N 
ATOM     12  H7  UNL     1       4.128 -28.975 -26.279  1.00  0.00     0.188 HD
HETATM   13  N8  UNL     1       5.899 -28.327 -25.410  1.00  0.00    -0.234 N 
ATOM     14  H8  UNL     1       5.668 -27.355 -25.202  1.00  0.00     0.209 HD
HETATM   15  N9  UNL     1       7.051 -28.882 -25.142  1.00  0.00    -0.220 N 
ENDROOT
BRANCH  10  16
HETATM   16  C12 UNL     1       5.271 -31.634 -26.654  1.00  0.00     0.372 C 
BRANCH  16  17
HETATM   17  N6  UNL     1       4.052 -32.119 -26.039  1.00  0.00    -0.047 N 
ATOM     18  H63 UNL     1       3.283 -31.465 -26.190  1.00  0.00     0.277 HD
ATOM     19  H62 UNL     1       3.686 -32.926 -26.545  1.00  0.00     0.277 HD
ATOM     20  H61 UNL     1       4.159 -32.330 -25.047  1.00  0.00     0.277 HD
ENDBRANCH  16  17
BRANCH  16  21
HETATM   21  O3  UNL     1       6.285 -32.603 -26.532  1.00  0.00    -0.365 OA
ATOM     22  H3  UNL     1       6.207 -33.237 -27.235  1.00  0.00     0.212 HD
ENDBRANCH  16  21
ENDBRANCH  10  16
BRANCH   6  23
HETATM   23  N4  UNL     1      10.246 -31.297 -24.666  1.00  0.00    -0.373 N 
ATOM     24  H4  UNL     1      10.804 -31.120 -23.831  1.00  0.00     0.161 HD
BRANCH  23  25
HETATM   25  C8  UNL     1      10.693 -32.335 -25.542  1.00  0.00     0.147 C 
BRANCH  25  26
HETATM   26  C9  UNL     1      11.578 -33.347 -24.857  1.00  0.00     0.183 C 
BRANCH  26  27
HETATM   27  O2  UNL     1      12.218 -34.079 -25.864  1.00  0.00    -0.399 OA
ATOM     28  H2  UNL     1      12.736 -34.749 -25.433  1.00  0.00     0.209 HD
ENDBRANCH  26  27
ENDBRANCH  25  26
ENDBRANCH  23  25
ENDBRANCH   6  23
BRANCH   1  29
HETATM   29  C2  UNL     1       7.773 -25.910 -23.966  1.00  0.00     0.167 C 
BRANCH  29  30
HETATM   30  N1  UNL     1       7.931 -24.652 -24.502  1.00  0.00    -0.373 N 
HETATM   31  C1  UNL     1       7.549 -23.441 -23.677  1.00  0.00     0.148 C 
ATOM     32  H1  UNL     1       8.303 -24.537 -25.444  1.00  0.00     0.161 HD
ENDBRANCH  29  30
BRANCH  29  33
HETATM   33  O1  UNL     1       6.712 -25.960 -23.164  1.00  0.00    -0.345 OA
ATOM     34  H1  UNL     1       6.369 -26.844 -23.104  1.00  0.00     0.219 HD
ENDBRANCH  29  33
ENDBRANCH   1  29
BRANCH   5  35
HETATM   35  N3  UNL     1      10.584 -26.299 -23.019  1.00  0.00    -0.338 N 
ATOM     36  H32 UNL     1      11.548 -26.150 -23.317  1.00  0.00     0.177 HD
ATOM     37  H31 UNL     1      10.336 -25.659 -22.264  1.00  0.00     0.177 HD
ENDBRANCH   5  35
TORSDOF 11
ENDMDL
