MODEL 1
REMARK VINA RESULT: -5.925164134      0.000      0.000
REMARK  8 active torsions:
REMARK  status: ('A' for Active; 'I' for Inactive)
REMARK    1  A    between atoms: N1_1  and  C1_4 
REMARK    2  A    between atoms: C2_7  and  N3_8 
REMARK    3  A    between atoms: N3_8  and  N4_10 
REMARK    4  A    between atoms: C4_14  and  C5_15 
REMARK    5  A    between atoms: C6_23  and  S1_24 
REMARK    6  A    between atoms: S1_24  and  C7_26 
REMARK    7  A    between atoms: C7_26  and  C8_27 
REMARK    8  A    between atoms: C8_27  and  O2_28 
ROOT
HETATM    1  C1  UNL     1       1.296 -30.593 -18.435  1.00  0.00     0.679 A 
HETATM    2  N2  UNL     1       2.393 -29.926 -18.091  1.00  0.00    -0.175 N 
ATOM      3  H2  UNL     1       2.401 -28.906 -18.113  1.00  0.00     0.186 HD
HETATM    4  C2  UNL     1       3.509 -30.609 -17.709  1.00  0.00     0.150 A 
HETATM    5  C3  UNL     1       3.548 -31.977 -17.663  1.00  0.00     0.070 A 
HETATM    6  C4  UNL     1       4.648 -32.707 -17.286  1.00  0.00     0.049 A 
HETATM    7  C6  UNL     1       4.555 -34.117 -17.285  1.00  0.00     0.062 A 
HETATM    8  C9  UNL     1       3.379 -34.683 -17.657  1.00  0.00     0.111 A 
HETATM    9  N9  UNL     1       2.316 -33.982 -18.020  1.00  0.00    -0.350 N 
ATOM     10  H9  UNL     1       1.453 -34.456 -18.291  1.00  0.00     0.166 HD
HETATM   11  C10 UNL     1       2.386 -32.638 -18.028  1.00  0.00     0.136 A 
HETATM   12  N10 UNL     1       1.310 -31.922 -18.398  1.00  0.00    -0.176 N 
ATOM     13  H10 UNL     1       0.461 -32.423 -18.664  1.00  0.00     0.186 HD
ENDROOT
BRANCH   6  14
HETATM   14  C5  UNL     1       5.894 -32.081 -16.887  1.00  0.00     0.147 A 
HETATM   15  N5  UNL     1       6.826 -31.646 -17.742  1.00  0.00    -0.266 N 
HETATM   16  N6  UNL     1       7.787 -31.092 -17.018  1.00  0.00    -0.005 NA
ATOM     17  H5  UNL     1       6.801 -31.725 -18.758  1.00  0.00     0.186 HD
HETATM   18  N7  UNL     1       7.496 -31.160 -15.731  1.00  0.00    -0.225 N 
HETATM   19  N8  UNL     1       6.329 -31.772 -15.660  1.00  0.00    -0.271 N 
ATOM     20  H7  UNL     1       8.057 -30.812 -14.953  1.00  0.00     0.205 HD
ATOM     21  H8  UNL     1       5.830 -31.980 -14.795  1.00  0.00     0.190 HD
ENDBRANCH   6  14
BRANCH   7  22
HETATM   22  S1  UNL     1       5.969 -34.995 -16.801  1.00  0.00     0.054 S 
HETATM   23  O1  UNL     1       6.414 -34.542 -15.250  1.00  0.00    -0.253 OA
BRANCH  22  24
HETATM   24  C7  UNL     1       7.332 -34.734 -17.909  1.00  0.00     0.140 C 
BRANCH  24  25
HETATM   25  C8  UNL     1       8.606 -34.823 -17.083  1.00  0.00     0.177 C 
BRANCH  25  26
HETATM   26  O2  UNL     1       8.879 -33.664 -16.393  1.00  0.00    -0.400 OA
ATOM     27  H2  UNL     1       9.785 -33.604 -16.116  1.00  0.00     0.209 HD
ENDBRANCH  25  26
ENDBRANCH  24  25
ENDBRANCH  22  24
ENDBRANCH   7  22
BRANCH   4  28
HETATM   28  N3  UNL     1       4.533 -29.922 -17.391  1.00  0.00    -0.291 N 
ATOM     29  H3  UNL     1       5.138 -30.295 -16.658  1.00  0.00     0.188 HD
BRANCH  28  30
HETATM   30  N4  UNL     1       4.893 -28.717 -17.956  1.00  0.00    -0.344 N 
ATOM     31  H42 UNL     1       4.387 -28.445 -18.799  1.00  0.00     0.176 HD
ATOM     32  H41 UNL     1       5.614 -28.090 -17.600  1.00  0.00     0.176 HD
ENDBRANCH  28  30
ENDBRANCH   4  28
BRANCH   1  33
HETATM   33  N1  UNL     1       0.249 -29.917 -18.794  1.00  0.00    -0.234 N 
ATOM     34  H12 UNL     1       0.057 -28.978 -18.446  1.00  0.00     0.174 HD
ATOM     35  H11 UNL     1      -0.404 -30.345 -19.451  1.00  0.00     0.174 HD
ENDBRANCH   1  33
TORSDOF 8
ENDMDL
MODEL 2
REMARK VINA RESULT: -5.804830048      1.032      1.032
REMARK  8 active torsions:
REMARK  status: ('A' for Active; 'I' for Inactive)
REMARK    1  A    between atoms: N1_1  and  C1_4 
REMARK    2  A    between atoms: C2_7  and  N3_8 
REMARK    3  A    between atoms: N3_8  and  N4_10 
REMARK    4  A    between atoms: C4_14  and  C5_15 
REMARK    5  A    between atoms: C6_23  and  S1_24 
REMARK    6  A    between atoms: S1_24  and  C7_26 
REMARK    7  A    between atoms: C7_26  and  C8_27 
REMARK    8  A    between atoms: C8_27  and  O2_28 
ROOT
HETATM    1  C1  UNL     1       1.243 -30.649 -18.333  1.00  0.00     0.679 A 
HETATM    2  N2  UNL     1       2.327 -29.974 -17.962  1.00  0.00    -0.175 N 
ATOM      3  H2  UNL     1       2.291 -28.960 -17.865  1.00  0.00     0.186 HD
HETATM    4  C2  UNL     1       3.487 -30.644 -17.712  1.00  0.00     0.150 A 
HETATM    5  C3  UNL     1       3.585 -32.004 -17.828  1.00  0.00     0.070 A 
HETATM    6  C4  UNL     1       4.733 -32.720 -17.587  1.00  0.00     0.049 A 
HETATM    7  C6  UNL     1       4.699 -34.124 -17.747  1.00  0.00     0.062 A 
HETATM    8  C9  UNL     1       3.530 -34.698 -18.131  1.00  0.00     0.111 A 
HETATM    9  N9  UNL     1       2.422 -34.011 -18.363  1.00  0.00    -0.350 N 
ATOM     10  H9  UNL     1       1.568 -34.491 -18.650  1.00  0.00     0.166 HD
HETATM   11  C10 UNL     1       2.436 -32.674 -18.217  1.00  0.00     0.136 A 
HETATM   12  N10 UNL     1       1.314 -31.971 -18.453  1.00  0.00    -0.176 N 
ATOM     13  H10 UNL     1       0.475 -32.477 -18.738  1.00  0.00     0.186 HD
ENDROOT
BRANCH   6  14
HETATM   14  C5  UNL     1       5.970 -32.086 -17.173  1.00  0.00     0.147 A 
HETATM   15  N5  UNL     1       6.935 -31.698 -18.013  1.00  0.00    -0.266 N 
HETATM   16  N6  UNL     1       7.875 -31.119 -17.281  1.00  0.00    -0.005 NA
ATOM     17  H5  UNL     1       6.946 -31.825 -19.025  1.00  0.00     0.186 HD
HETATM   18  N7  UNL     1       7.538 -31.126 -16.004  1.00  0.00    -0.225 N 
HETATM   19  N8  UNL     1       6.363 -31.724 -15.947  1.00  0.00    -0.271 N 
ATOM     20  H7  UNL     1       8.074 -30.747 -15.223  1.00  0.00     0.205 HD
ATOM     21  H8  UNL     1       5.832 -31.888 -15.092  1.00  0.00     0.190 HD
ENDBRANCH   6  14
BRANCH   7  22
HETATM   22  S1  UNL     1       6.170 -34.985 -17.432  1.00  0.00     0.054 S 
HETATM   23  O1  UNL     1       6.166 -36.437 -18.269  1.00  0.00    -0.253 OA
BRANCH  22  24
HETATM   24  C7  UNL     1       6.404 -35.300 -15.701  1.00  0.00     0.140 C 
BRANCH  24  25
HETATM   25  C8  UNL     1       7.842 -34.932 -15.366  1.00  0.00     0.177 C 
BRANCH  25  26
HETATM   26  O2  UNL     1       8.387 -34.041 -16.261  1.00  0.00    -0.400 OA
ATOM     27  H2  UNL     1       9.142 -34.392 -16.718  1.00  0.00     0.209 HD
ENDBRANCH  25  26
ENDBRANCH  24  25
ENDBRANCH  22  24
ENDBRANCH   7  22
BRANCH   4  28
HETATM   28  N3  UNL     1       4.497 -29.951 -17.361  1.00  0.00    -0.291 N 
ATOM     29  H3  UNL     1       5.056 -30.299 -16.582  1.00  0.00     0.188 HD
BRANCH  28  30
HETATM   30  N4  UNL     1       4.896 -28.768 -17.948  1.00  0.00    -0.344 N 
ATOM     31  H42 UNL     1       4.199 -28.291 -18.521  1.00  0.00     0.176 HD
ATOM     32  H41 UNL     1       5.818 -28.343 -17.852  1.00  0.00     0.176 HD
ENDBRANCH  28  30
ENDBRANCH   4  28
BRANCH   1  33
HETATM   33  N1  UNL     1       0.153 -29.986 -18.564  1.00  0.00    -0.234 N 
ATOM     34  H12 UNL     1      -0.335 -30.029 -19.459  1.00  0.00     0.174 HD
ATOM     35  H11 UNL     1      -0.228 -29.401 -17.820  1.00  0.00     0.174 HD
ENDBRANCH   1  33
TORSDOF 8
ENDMDL
MODEL 3
REMARK VINA RESULT: -5.575982082      2.270      3.874
REMARK  8 active torsions:
REMARK  status: ('A' for Active; 'I' for Inactive)
REMARK    1  A    between atoms: N1_1  and  C1_4 
REMARK    2  A    between atoms: C2_7  and  N3_8 
REMARK    3  A    between atoms: N3_8  and  N4_10 
REMARK    4  A    between atoms: C4_14  and  C5_15 
REMARK    5  A    between atoms: C6_23  and  S1_24 
REMARK    6  A    between atoms: S1_24  and  C7_26 
REMARK    7  A    between atoms: C7_26  and  C8_27 
REMARK    8  A    between atoms: C8_27  and  O2_28 
ROOT
HETATM    1  C1  UNL     1       0.414 -30.705 -17.543  1.00  0.00     0.679 A 
HETATM    2  N2  UNL     1       0.459 -31.973 -17.939  1.00  0.00    -0.175 N 
ATOM      3  H2  UNL     1      -0.404 -32.498 -18.075  1.00  0.00     0.186 HD
HETATM    4  C2  UNL     1       1.664 -32.570 -18.162  1.00  0.00     0.150 A 
HETATM    5  C3  UNL     1       2.850 -31.907 -17.992  1.00  0.00     0.070 A 
HETATM    6  C4  UNL     1       4.086 -32.468 -18.204  1.00  0.00     0.049 A 
HETATM    7  C6  UNL     1       5.233 -31.672 -17.990  1.00  0.00     0.062 A 
HETATM    8  C9  UNL     1       5.058 -30.389 -17.585  1.00  0.00     0.111 A 
HETATM    9  N9  UNL     1       3.868 -29.845 -17.381  1.00  0.00    -0.350 N 
ATOM     10  H9  UNL     1       3.790 -28.874 -17.076  1.00  0.00     0.166 HD
HETATM   11  C10 UNL     1       2.764 -30.588 -17.579  1.00  0.00     0.136 A 
HETATM   12  N10 UNL     1       1.553 -30.041 -17.372  1.00  0.00    -0.176 N 
ATOM     13  H10 UNL     1       1.505 -29.068 -17.068  1.00  0.00     0.186 HD
ENDROOT
BRANCH   6  14
HETATM   14  C5  UNL     1       4.249 -33.841 -18.642  1.00  0.00     0.147 A 
HETATM   15  N5  UNL     1       4.203 -34.902 -17.828  1.00  0.00    -0.266 N 
HETATM   16  N6  UNL     1       4.340 -35.978 -18.588  1.00  0.00    -0.005 NA
ATOM     17  H5  UNL     1       4.084 -34.885 -16.816  1.00  0.00     0.186 HD
HETATM   18  N7  UNL     1       4.472 -35.636 -19.857  1.00  0.00    -0.225 N 
HETATM   19  N8  UNL     1       4.416 -34.318 -19.880  1.00  0.00    -0.271 N 
ATOM     20  H7  UNL     1       4.593 -36.262 -20.654  1.00  0.00     0.205 HD
ATOM     21  H8  UNL     1       4.490 -33.745 -20.721  1.00  0.00     0.190 HD
ENDBRANCH   6  14
BRANCH   7  22
HETATM   22  S1  UNL     1       6.771 -32.422 -18.270  1.00  0.00     0.054 S 
HETATM   23  O1  UNL     1       6.881 -32.908 -19.870  1.00  0.00    -0.253 OA
BRANCH  22  24
HETATM   24  C7  UNL     1       7.038 -33.820 -17.207  1.00  0.00     0.140 C 
BRANCH  24  25
HETATM   25  C8  UNL     1       7.913 -34.804 -17.969  1.00  0.00     0.177 C 
BRANCH  25  26
HETATM   26  O2  UNL     1       7.241 -35.437 -18.990  1.00  0.00    -0.400 OA
ATOM     27  H2  UNL     1       7.332 -36.382 -18.961  1.00  0.00     0.209 HD
ENDBRANCH  25  26
ENDBRANCH  24  25
ENDBRANCH  22  24
ENDBRANCH   7  22
BRANCH   4  28
HETATM   28  N3  UNL     1       1.651 -33.787 -18.538  1.00  0.00    -0.291 N 
ATOM     29  H3  UNL     1       2.553 -34.246 -18.669  1.00  0.00     0.188 HD
BRANCH  28  30
HETATM   30  N4  UNL     1       0.519 -34.535 -18.784  1.00  0.00    -0.344 N 
ATOM     31  H42 UNL     1      -0.368 -34.031 -18.763  1.00  0.00     0.176 HD
ATOM     32  H41 UNL     1       0.504 -35.536 -18.981  1.00  0.00     0.176 HD
ENDBRANCH  28  30
ENDBRANCH   4  28
BRANCH   1  33
HETATM   33  N1  UNL     1      -0.746 -30.163 -17.338  1.00  0.00    -0.234 N 
ATOM     34  H12 UNL     1      -1.618 -30.615 -17.612  1.00  0.00     0.174 HD
ATOM     35  H11 UNL     1      -0.782 -29.249 -16.886  1.00  0.00     0.174 HD
ENDBRANCH   1  33
TORSDOF 8
ENDMDL
MODEL 4
REMARK VINA RESULT: -5.575642263      1.839      2.022
REMARK  8 active torsions:
REMARK  status: ('A' for Active; 'I' for Inactive)
REMARK    1  A    between atoms: N1_1  and  C1_4 
REMARK    2  A    between atoms: C2_7  and  N3_8 
REMARK    3  A    between atoms: N3_8  and  N4_10 
REMARK    4  A    between atoms: C4_14  and  C5_15 
REMARK    5  A    between atoms: C6_23  and  S1_24 
REMARK    6  A    between atoms: S1_24  and  C7_26 
REMARK    7  A    between atoms: C7_26  and  C8_27 
REMARK    8  A    between atoms: C8_27  and  O2_28 
ROOT
HETATM    1  C1  UNL     1       1.320 -30.491 -17.913  1.00  0.00     0.679 A 
HETATM    2  N2  UNL     1       2.460 -29.948 -17.494  1.00  0.00    -0.175 N 
ATOM      3  H2  UNL     1       2.482 -28.976 -17.190  1.00  0.00     0.186 HD
HETATM    4  C2  UNL     1       3.599 -30.697 -17.475  1.00  0.00     0.150 A 
HETATM    5  C3  UNL     1       3.619 -32.006 -17.874  1.00  0.00     0.070 A 
HETATM    6  C4  UNL     1       4.742 -32.798 -17.872  1.00  0.00     0.049 A 
HETATM    7  C6  UNL     1       4.626 -34.135 -18.312  1.00  0.00     0.062 A 
HETATM    8  C9  UNL     1       3.407 -34.574 -18.716  1.00  0.00     0.111 A 
HETATM    9  N9  UNL     1       2.322 -33.815 -18.719  1.00  0.00    -0.350 N 
ATOM     10  H9  UNL     1       1.428 -34.193 -19.032  1.00  0.00     0.166 HD
HETATM   11  C10 UNL     1       2.414 -32.538 -18.304  1.00  0.00     0.136 A 
HETATM   12  N10 UNL     1       1.316 -31.761 -18.305  1.00  0.00    -0.176 N 
ATOM     13  H10 UNL     1       0.435 -32.167 -18.624  1.00  0.00     0.186 HD
ENDROOT
BRANCH   6  14
HETATM   14  C5  UNL     1       6.034 -32.308 -17.431  1.00  0.00     0.147 A 
HETATM   15  N5  UNL     1       6.930 -31.720 -18.231  1.00  0.00    -0.266 N 
HETATM   16  N6  UNL     1       7.954 -31.366 -17.470  1.00  0.00    -0.005 NA
ATOM     17  H5  UNL     1       6.842 -31.574 -19.236  1.00  0.00     0.186 HD
HETATM   18  N7  UNL     1       7.739 -31.708 -16.213  1.00  0.00    -0.225 N 
HETATM   19  N8  UNL     1       6.554 -32.289 -16.198  1.00  0.00    -0.271 N 
ATOM     20  H7  UNL     1       8.360 -31.556 -15.418  1.00  0.00     0.205 HD
ATOM     21  H8  UNL     1       6.100 -32.669 -15.368  1.00  0.00     0.190 HD
ENDBRANCH   6  14
BRANCH   7  22
HETATM   22  S1  UNL     1       6.069 -35.095 -18.292  1.00  0.00     0.054 S 
HETATM   23  O1  UNL     1       7.168 -34.489 -19.402  1.00  0.00    -0.253 OA
BRANCH  22  24
HETATM   24  C7  UNL     1       5.743 -36.802 -18.654  1.00  0.00     0.140 C 
BRANCH  24  25
HETATM   25  C8  UNL     1       6.157 -37.043 -20.098  1.00  0.00     0.177 C 
BRANCH  25  26
HETATM   26  O2  UNL     1       5.485 -36.237 -20.988  1.00  0.00    -0.400 OA
ATOM     27  H2  UNL     1       6.060 -35.839 -21.631  1.00  0.00     0.209 HD
ENDBRANCH  25  26
ENDBRANCH  24  25
ENDBRANCH  22  24
ENDBRANCH   7  22
BRANCH   4  28
HETATM   28  N3  UNL     1       4.663 -30.128 -17.067  1.00  0.00    -0.291 N 
ATOM     29  H3  UNL     1       5.175 -30.581 -16.309  1.00  0.00     0.188 HD
BRANCH  28  30
HETATM   30  N4  UNL     1       5.181 -28.951 -17.565  1.00  0.00    -0.344 N 
ATOM     31  H42 UNL     1       4.646 -28.104 -17.367  1.00  0.00     0.176 HD
ATOM     32  H41 UNL     1       6.042 -28.866 -18.105  1.00  0.00     0.176 HD
ENDBRANCH  28  30
ENDBRANCH   4  28
BRANCH   1  33
HETATM   33  N1  UNL     1       0.253 -29.756 -17.921  1.00  0.00    -0.234 N 
ATOM     34  H12 UNL     1       0.289 -28.738 -17.967  1.00  0.00     0.174 HD
ATOM     35  H11 UNL     1      -0.656 -30.218 -17.881  1.00  0.00     0.174 HD
ENDBRANCH   1  33
TORSDOF 8
ENDMDL
MODEL 5
REMARK VINA RESULT: -5.567598324      8.547      9.648
REMARK  8 active torsions:
REMARK  status: ('A' for Active; 'I' for Inactive)
REMARK    1  A    between atoms: N1_1  and  C1_4 
REMARK    2  A    between atoms: C2_7  and  N3_8 
REMARK    3  A    between atoms: N3_8  and  N4_10 
REMARK    4  A    between atoms: C4_14  and  C5_15 
REMARK    5  A    between atoms: C6_23  and  S1_24 
REMARK    6  A    between atoms: S1_24  and  C7_26 
REMARK    7  A    between atoms: C7_26  and  C8_27 
REMARK    8  A    between atoms: C8_27  and  O2_28 
ROOT
HETATM    1  C1  UNL     1       8.354 -25.311 -24.132  1.00  0.00     0.679 A 
HETATM    2  N2  UNL     1       9.359 -26.114 -23.792  1.00  0.00    -0.175 N 
ATOM      3  H2  UNL     1      10.215 -25.725 -23.398  1.00  0.00     0.186 HD
HETATM    4  C2  UNL     1       9.240 -27.460 -23.973  1.00  0.00     0.150 A 
HETATM    5  C3  UNL     1       8.111 -28.030 -24.498  1.00  0.00     0.070 A 
HETATM    6  C4  UNL     1       7.948 -29.379 -24.699  1.00  0.00     0.049 A 
HETATM    7  C6  UNL     1       6.731 -29.836 -25.252  1.00  0.00     0.062 A 
HETATM    8  C9  UNL     1       5.780 -28.918 -25.559  1.00  0.00     0.111 A 
HETATM    9  N9  UNL     1       5.933 -27.617 -25.366  1.00  0.00    -0.350 N 
ATOM     10  H9  UNL     1       5.187 -26.967 -25.613  1.00  0.00     0.166 HD
HETATM   11  C10 UNL     1       7.086 -27.163 -24.841  1.00  0.00     0.136 A 
HETATM   12  N10 UNL     1       7.248 -25.842 -24.644  1.00  0.00    -0.176 N 
ATOM     13  H10 UNL     1       6.484 -25.216 -24.901  1.00  0.00     0.186 HD
ENDROOT
BRANCH   6  14
HETATM   14  C5  UNL     1       8.977 -30.343 -24.359  1.00  0.00     0.147 A 
HETATM   15  N5  UNL     1       9.727 -30.992 -25.256  1.00  0.00    -0.266 N 
HETATM   16  N6  UNL     1      10.582 -31.740 -24.576  1.00  0.00    -0.005 NA
ATOM     17  H5  UNL     1       9.655 -30.923 -26.271  1.00  0.00     0.186 HD
HETATM   18  N7  UNL     1      10.400 -31.589 -23.276  1.00  0.00    -0.225 N 
HETATM   19  N8  UNL     1       9.408 -30.727 -23.152  1.00  0.00    -0.271 N 
ATOM     20  H7  UNL     1      10.919 -32.043 -22.525  1.00  0.00     0.205 HD
ATOM     21  H8  UNL     1       9.026 -30.400 -22.265  1.00  0.00     0.190 HD
ENDBRANCH   6  14
BRANCH   7  22
HETATM   22  S1  UNL     1       6.571 -31.546 -25.487  1.00  0.00     0.054 S 
HETATM   23  O1  UNL     1       7.488 -32.025 -26.805  1.00  0.00    -0.253 OA
BRANCH  22  24
HETATM   24  C7  UNL     1       4.881 -32.033 -25.734  1.00  0.00     0.140 C 
BRANCH  24  25
HETATM   25  C8  UNL     1       4.687 -32.246 -27.227  1.00  0.00     0.177 C 
BRANCH  25  26
HETATM   26  O2  UNL     1       4.924 -33.544 -27.617  1.00  0.00    -0.400 OA
ATOM     27  H2  UNL     1       4.125 -34.036 -27.766  1.00  0.00     0.209 HD
ENDBRANCH  25  26
ENDBRANCH  24  25
ENDBRANCH  22  24
ENDBRANCH   7  22
BRANCH   4  28
HETATM   28  N3  UNL     1      10.231 -28.184 -23.633  1.00  0.00    -0.291 N 
ATOM     29  H3  UNL     1      10.137 -28.737 -22.780  1.00  0.00     0.188 HD
BRANCH  28  30
HETATM   30  N4  UNL     1      11.422 -28.282 -24.322  1.00  0.00    -0.344 N 
ATOM     31  H42 UNL     1      11.777 -27.418 -24.734  1.00  0.00     0.176 HD
ATOM     32  H41 UNL     1      11.964 -29.137 -24.446  1.00  0.00     0.176 HD
ENDBRANCH  28  30
ENDBRANCH   4  28
BRANCH   1  33
HETATM   33  N1  UNL     1       8.495 -24.036 -23.949  1.00  0.00    -0.234 N 
ATOM     34  H12 UNL     1       8.748 -23.636 -23.045  1.00  0.00     0.174 HD
ATOM     35  H11 UNL     1       8.346 -23.412 -24.742  1.00  0.00     0.174 HD
ENDBRANCH   1  33
TORSDOF 8
ENDMDL
