MODEL 1
REMARK VINA RESULT: -8.212742546      0.000      0.000
REMARK  7 active torsions:
REMARK  status: ('A' for Active; 'I' for Inactive)
REMARK    1  A    between atoms: C1_2  and  C2_4 
REMARK    2  A    between atoms: C2_4  and  N2_5 
REMARK    3  A    between atoms: C2_4  and  C3_9 
REMARK    4  A    between atoms: C5_11  and  S1_12 
REMARK    5  A    between atoms: C6_16  and  O5_17 
REMARK    6  A    between atoms: C7_19  and  N3_20 
REMARK    7  A    between atoms: N3_20  and  C8_22 
ROOT
HETATM    1  C3  UNL     1       9.052 -30.209 -24.636  1.00  0.00     0.009 A 
HETATM    2  C4  UNL     1       7.925 -30.798 -25.175  1.00  0.00     0.041 A 
HETATM    3  C5  UNL     1       6.840 -30.046 -25.573  1.00  0.00     0.116 A 
HETATM    4  C6  UNL     1       6.846 -28.650 -25.445  1.00  0.00     0.118 A 
HETATM    5  C7  UNL     1       7.968 -28.058 -24.909  1.00  0.00     0.095 A 
HETATM    6  C11 UNL     1       9.026 -28.827 -24.524  1.00  0.00     0.084 A 
HETATM    7  N6  UNL     1      10.170 -28.155 -23.971  1.00  0.00    -0.099 NA
ENDROOT
BRANCH   5   8
HETATM    8  N3  UNL     1       7.976 -26.645 -24.779  1.00  0.00    -0.325 N 
ATOM      9  H3  UNL     1       8.271 -26.083 -25.578  1.00  0.00     0.169 HD
BRANCH   8  10
HETATM   10  C8  UNL     1       7.591 -25.978 -23.581  1.00  0.00     0.175 C 
HETATM   11  N4  UNL     1       6.439 -26.055 -23.021  1.00  0.00    -0.361 N 
HETATM   12  C9  UNL     1       6.329 -25.281 -21.828  1.00  0.00     0.142 C 
ATOM     13  H4  UNL     1       5.674 -26.617 -23.394  1.00  0.00     0.162 HD
HETATM   14  C10 UNL     1       7.495 -24.322 -21.936  1.00  0.00     0.142 C 
HETATM   15  N5  UNL     1       8.406 -25.104 -22.787  1.00  0.00    -0.361 N 
ATOM     16  H5  UNL     1       9.423 -25.039 -22.807  1.00  0.00     0.162 HD
ENDBRANCH   8  10
ENDBRANCH   5   8
BRANCH   4  17
HETATM   17  O5  UNL     1       5.733 -27.944 -25.861  1.00  0.00    -0.357 OA
ATOM     18  H5  UNL     1       4.874 -28.310 -25.687  1.00  0.00     0.218 HD
ENDBRANCH   4  17
BRANCH   3  19
HETATM   19  S1  UNL     1       5.408 -30.803 -26.257  1.00  0.00     0.140 S 
HETATM   20  O2  UNL     1       5.046 -30.012 -27.494  1.00  0.00    -0.591 OA
HETATM   21  O3  UNL     1       4.313 -30.749 -25.235  1.00  0.00    -0.591 OA
HETATM   22  O4  UNL     1       5.771 -32.352 -26.742  1.00  0.00    -0.591 OA
ENDBRANCH   3  19
BRANCH   1  23
HETATM   23  C2  UNL     1      10.229 -30.970 -24.198  1.00  0.00     0.306 C 
BRANCH  23  24
HETATM   24  C1  UNL     1      10.508 -32.152 -25.044  1.00  0.00     0.266 C 
HETATM   25  N1  UNL     1      11.286 -33.204 -24.485  1.00  0.00    -0.060 NA
HETATM   26  O1  UNL     1      10.110 -32.295 -26.207  1.00  0.00    -0.274 OA
ENDBRANCH  23  24
BRANCH  23  27
HETATM   27  N2  UNL     1      10.164 -31.331 -22.795  1.00  0.00    -0.063 N 
ATOM     28  H23 UNL     1       9.948 -32.320 -22.673  1.00  0.00     0.275 HD
ATOM     29  H22 UNL     1      11.086 -31.318 -22.361  1.00  0.00     0.275 HD
ATOM     30  H21 UNL     1       9.504 -30.738 -22.291  1.00  0.00     0.275 HD
ENDBRANCH  23  27
ENDBRANCH   1  23
TORSDOF 7
ENDMDL
MODEL 2
REMARK VINA RESULT: -6.696267483      1.532      5.696
REMARK  7 active torsions:
REMARK  status: ('A' for Active; 'I' for Inactive)
REMARK    1  A    between atoms: C1_2  and  C2_4 
REMARK    2  A    between atoms: C2_4  and  N2_5 
REMARK    3  A    between atoms: C2_4  and  C3_9 
REMARK    4  A    between atoms: C5_11  and  S1_12 
REMARK    5  A    between atoms: C6_16  and  O5_17 
REMARK    6  A    between atoms: C7_19  and  N3_20 
REMARK    7  A    between atoms: N3_20  and  C8_22 
ROOT
HETATM    1  C3  UNL     1       7.889 -27.194 -24.288  1.00  0.00     0.009 A 
HETATM    2  C4  UNL     1       6.834 -27.705 -25.019  1.00  0.00     0.041 A 
HETATM    3  C5  UNL     1       6.714 -29.057 -25.260  1.00  0.00     0.116 A 
HETATM    4  C6  UNL     1       7.663 -29.963 -24.767  1.00  0.00     0.118 A 
HETATM    5  C7  UNL     1       8.716 -29.459 -24.038  1.00  0.00     0.095 A 
HETATM    6  C11 UNL     1       8.810 -28.117 -23.816  1.00  0.00     0.084 A 
HETATM    7  N6  UNL     1       9.930 -27.647 -23.048  1.00  0.00    -0.099 NA
ENDROOT
BRANCH   5   8
HETATM    8  N3  UNL     1       9.678 -30.374 -23.538  1.00  0.00    -0.325 N 
ATOM      9  H3  UNL     1       9.999 -30.268 -22.575  1.00  0.00     0.169 HD
BRANCH   8  10
HETATM   10  C8  UNL     1      10.214 -31.436 -24.322  1.00  0.00     0.175 C 
HETATM   11  N4  UNL     1      10.995 -32.359 -23.894  1.00  0.00    -0.361 N 
HETATM   12  C9  UNL     1      11.380 -33.296 -24.898  1.00  0.00     0.142 C 
ATOM     13  H4  UNL     1      11.312 -32.418 -22.925  1.00  0.00     0.162 HD
HETATM   14  C10 UNL     1      11.055 -32.567 -26.185  1.00  0.00     0.142 C 
HETATM   15  N5  UNL     1       9.988 -31.669 -25.719  1.00  0.00    -0.361 N 
ATOM     16  H5  UNL     1       9.230 -31.284 -26.283  1.00  0.00     0.162 HD
ENDBRANCH   8  10
ENDBRANCH   5   8
BRANCH   4  17
HETATM   17  O5  UNL     1       7.494 -31.308 -25.037  1.00  0.00    -0.357 OA
ATOM     18  H5  UNL     1       7.269 -31.890 -24.320  1.00  0.00     0.218 HD
ENDBRANCH   4  17
BRANCH   3  19
HETATM   19  S1  UNL     1       5.368 -29.701 -26.190  1.00  0.00     0.140 S 
HETATM   20  O2  UNL     1       5.965 -30.512 -27.317  1.00  0.00    -0.591 OA
HETATM   21  O3  UNL     1       4.564 -28.549 -26.714  1.00  0.00    -0.591 OA
HETATM   22  O4  UNL     1       4.478 -30.739 -25.243  1.00  0.00    -0.591 OA
ENDBRANCH   3  19
BRANCH   1  23
HETATM   23  C2  UNL     1       8.058 -25.762 -24.008  1.00  0.00     0.306 C 
BRANCH  23  24
HETATM   24  C1  UNL     1       7.341 -25.317 -22.792  1.00  0.00     0.266 C 
HETATM   25  N1  UNL     1       7.877 -24.216 -22.067  1.00  0.00    -0.060 NA
HETATM   26  O1  UNL     1       6.304 -25.834 -22.358  1.00  0.00    -0.274 OA
ENDBRANCH  23  24
BRANCH  23  27
HETATM   27  N2  UNL     1       7.723 -24.932 -25.149  1.00  0.00    -0.063 N 
ATOM     28  H23 UNL     1       7.085 -24.179 -24.890  1.00  0.00     0.275 HD
ATOM     29  H22 UNL     1       8.518 -24.368 -25.448  1.00  0.00     0.275 HD
ATOM     30  H21 UNL     1       7.350 -25.491 -25.916  1.00  0.00     0.275 HD
ENDBRANCH  23  27
ENDBRANCH   1  23
TORSDOF 7
ENDMDL
MODEL 3
REMARK VINA RESULT: -6.645109183      2.890      4.191
REMARK  7 active torsions:
REMARK  status: ('A' for Active; 'I' for Inactive)
REMARK    1  A    between atoms: C1_2  and  C2_4 
REMARK    2  A    between atoms: C2_4  and  N2_5 
REMARK    3  A    between atoms: C2_4  and  C3_9 
REMARK    4  A    between atoms: C5_11  and  S1_12 
REMARK    5  A    between atoms: C6_16  and  O5_17 
REMARK    6  A    between atoms: C7_19  and  N3_20 
REMARK    7  A    between atoms: N3_20  and  C8_22 
ROOT
HETATM    1  C3  UNL     1       6.314 -30.331 -25.712  1.00  0.00     0.009 A 
HETATM    2  C4  UNL     1       7.446 -30.933 -25.199  1.00  0.00     0.041 A 
HETATM    3  C5  UNL     1       8.524 -30.190 -24.768  1.00  0.00     0.116 A 
HETATM    4  C6  UNL     1       8.506 -28.790 -24.834  1.00  0.00     0.118 A 
HETATM    5  C7  UNL     1       7.380 -28.185 -25.344  1.00  0.00     0.095 A 
HETATM    6  C11 UNL     1       6.329 -28.945 -25.764  1.00  0.00     0.084 A 
HETATM    7  N6  UNL     1       5.179 -28.259 -26.287  1.00  0.00    -0.099 NA
ENDROOT
BRANCH   5   8
HETATM    8  N3  UNL     1       7.359 -26.767 -25.413  1.00  0.00    -0.325 N 
ATOM      9  H3  UNL     1       7.230 -26.325 -26.323  1.00  0.00     0.169 HD
BRANCH   8  10
HETATM   10  C8  UNL     1       7.510 -25.937 -24.265  1.00  0.00     0.175 C 
HETATM   11  N4  UNL     1       7.194 -26.259 -23.064  1.00  0.00    -0.361 N 
HETATM   12  C9  UNL     1       7.452 -25.232 -22.109  1.00  0.00     0.142 C 
ATOM     13  H4  UNL     1       6.794 -27.165 -22.815  1.00  0.00     0.162 HD
HETATM   14  C10 UNL     1       7.597 -23.995 -22.969  1.00  0.00     0.142 C 
HETATM   15  N5  UNL     1       8.034 -24.602 -24.236  1.00  0.00    -0.361 N 
ATOM     16  H5  UNL     1       8.603 -24.158 -24.957  1.00  0.00     0.162 HD
ENDBRANCH   8  10
ENDBRANCH   5   8
BRANCH   4  17
HETATM   17  O5  UNL     1       9.613 -28.093 -24.388  1.00  0.00    -0.357 OA
ATOM     18  H5  UNL     1       9.491 -27.425 -23.724  1.00  0.00     0.218 HD
ENDBRANCH   4  17
BRANCH   3  19
HETATM   19  S1  UNL     1       9.963 -30.963 -24.116  1.00  0.00     0.140 S 
HETATM   20  O2  UNL     1      11.087 -29.960 -24.230  1.00  0.00    -0.591 OA
HETATM   21  O3  UNL     1      10.244 -32.193 -24.926  1.00  0.00    -0.591 OA
HETATM   22  O4  UNL     1       9.742 -31.285 -22.498  1.00  0.00    -0.591 OA
ENDBRANCH   3  19
BRANCH   1  23
HETATM   23  C2  UNL     1       5.144 -31.082 -26.183  1.00  0.00     0.306 C 
BRANCH  23  24
HETATM   24  C1  UNL     1       5.479 -32.440 -26.669  1.00  0.00     0.266 C 
HETATM   25  N1  UNL     1       4.611 -33.039 -27.625  1.00  0.00    -0.060 NA
HETATM   26  O1  UNL     1       6.464 -33.094 -26.305  1.00  0.00    -0.274 OA
ENDBRANCH  23  24
BRANCH  23  27
HETATM   27  N2  UNL     1       4.374 -30.347 -27.168  1.00  0.00    -0.063 N 
ATOM     28  H23 UNL     1       3.626 -29.807 -26.732  1.00  0.00     0.275 HD
ATOM     29  H22 UNL     1       4.911 -29.576 -27.565  1.00  0.00     0.275 HD
ATOM     30  H21 UNL     1       4.015 -30.967 -27.894  1.00  0.00     0.275 HD
ENDBRANCH  23  27
ENDBRANCH   1  23
TORSDOF 7
ENDMDL
MODEL 4
REMARK VINA RESULT: -6.539630464      1.169      1.604
REMARK  7 active torsions:
REMARK  status: ('A' for Active; 'I' for Inactive)
REMARK    1  A    between atoms: C1_2  and  C2_4 
REMARK    2  A    between atoms: C2_4  and  N2_5 
REMARK    3  A    between atoms: C2_4  and  C3_9 
REMARK    4  A    between atoms: C5_11  and  S1_12 
REMARK    5  A    between atoms: C6_16  and  O5_17 
REMARK    6  A    between atoms: C7_19  and  N3_20 
REMARK    7  A    between atoms: N3_20  and  C8_22 
ROOT
HETATM    1  C3  UNL     1       8.895 -29.858 -25.047  1.00  0.00     0.009 A 
HETATM    2  C4  UNL     1       7.916 -30.762 -25.411  1.00  0.00     0.041 A 
HETATM    3  C5  UNL     1       6.642 -30.351 -25.738  1.00  0.00     0.116 A 
HETATM    4  C6  UNL     1       6.295 -28.993 -25.713  1.00  0.00     0.118 A 
HETATM    5  C7  UNL     1       7.267 -28.088 -25.350  1.00  0.00     0.095 A 
HETATM    6  C11 UNL     1       8.519 -28.523 -25.032  1.00  0.00     0.084 A 
HETATM    7  N6  UNL     1       9.493 -27.533 -24.661  1.00  0.00    -0.099 NA
ENDROOT
BRANCH   5   8
HETATM    8  N3  UNL     1       6.918 -26.712 -25.324  1.00  0.00    -0.325 N 
ATOM      9  H3  UNL     1       6.391 -26.328 -26.109  1.00  0.00     0.169 HD
BRANCH   8  10
HETATM   10  C8  UNL     1       7.272 -25.846 -24.250  1.00  0.00     0.175 C 
HETATM   11  N4  UNL     1       7.011 -26.050 -23.010  1.00  0.00    -0.361 N 
HETATM   12  C9  UNL     1       7.483 -25.016 -22.148  1.00  0.00     0.142 C 
ATOM     13  H4  UNL     1       6.512 -26.874 -22.673  1.00  0.00     0.162 HD
HETATM   14  C10 UNL     1       7.727 -23.865 -23.100  1.00  0.00     0.142 C 
HETATM   15  N5  UNL     1       7.975 -24.600 -24.350  1.00  0.00    -0.361 N 
ATOM     16  H5  UNL     1       8.540 -24.284 -25.138  1.00  0.00     0.162 HD
ENDBRANCH   8  10
ENDBRANCH   5   8
BRANCH   4  17
HETATM   17  O5  UNL     1       5.003 -28.635 -26.051  1.00  0.00    -0.357 OA
ATOM     18  H5  UNL     1       4.861 -27.796 -26.473  1.00  0.00     0.218 HD
ENDBRANCH   4  17
BRANCH   3  19
HETATM   19  S1  UNL     1       5.402 -31.508 -26.201  1.00  0.00     0.140 S 
HETATM   20  O2  UNL     1       6.090 -32.845 -26.361  1.00  0.00    -0.591 OA
HETATM   21  O3  UNL     1       4.790 -31.051 -27.491  1.00  0.00    -0.591 OA
HETATM   22  O4  UNL     1       4.291 -31.661 -24.972  1.00  0.00    -0.591 OA
ENDBRANCH   3  19
BRANCH   1  23
HETATM   23  C2  UNL     1      10.264 -30.250 -24.690  1.00  0.00     0.306 C 
BRANCH  23  24
HETATM   24  C1  UNL     1      10.320 -31.447 -23.821  1.00  0.00     0.266 C 
HETATM   25  N1  UNL     1       9.916 -31.306 -22.463  1.00  0.00    -0.060 NA
HETATM   26  O1  UNL     1      10.693 -32.568 -24.190  1.00  0.00    -0.274 OA
ENDBRANCH  23  24
BRANCH  23  27
HETATM   27  N2  UNL     1      11.024 -29.153 -24.122  1.00  0.00    -0.063 N 
ATOM     28  H23 UNL     1      10.428 -28.353 -23.913  1.00  0.00     0.275 HD
ATOM     29  H22 UNL     1      11.340 -29.366 -23.176  1.00  0.00     0.275 HD
ATOM     30  H21 UNL     1      11.803 -28.892 -24.728  1.00  0.00     0.275 HD
ENDBRANCH  23  27
ENDBRANCH   1  23
TORSDOF 7
ENDMDL
MODEL 5
REMARK VINA RESULT: -5.884957939      1.578      1.895
REMARK  7 active torsions:
REMARK  status: ('A' for Active; 'I' for Inactive)
REMARK    1  A    between atoms: C1_2  and  C2_4 
REMARK    2  A    between atoms: C2_4  and  N2_5 
REMARK    3  A    between atoms: C2_4  and  C3_9 
REMARK    4  A    between atoms: C5_11  and  S1_12 
REMARK    5  A    between atoms: C6_16  and  O5_17 
REMARK    6  A    between atoms: C7_19  and  N3_20 
REMARK    7  A    between atoms: N3_20  and  C8_22 
ROOT
HETATM    1  C3  UNL     1       8.889 -29.157 -24.575  1.00  0.00     0.009 A 
HETATM    2  C4  UNL     1       7.804 -29.656 -25.270  1.00  0.00     0.041 A 
HETATM    3  C5  UNL     1       6.553 -29.091 -25.153  1.00  0.00     0.116 A 
HETATM    4  C6  UNL     1       6.338 -27.982 -24.322  1.00  0.00     0.118 A 
HETATM    5  C7  UNL     1       7.416 -27.482 -23.627  1.00  0.00     0.095 A 
HETATM    6  C11 UNL     1       8.642 -28.062 -23.761  1.00  0.00     0.084 A 
HETATM    7  N6  UNL     1       9.731 -27.496 -23.012  1.00  0.00    -0.099 NA
ENDROOT
BRANCH   5   8
HETATM    8  N3  UNL     1       7.201 -26.360 -22.784  1.00  0.00    -0.325 N 
ATOM      9  H3  UNL     1       6.890 -26.522 -21.826  1.00  0.00     0.169 HD
BRANCH   8  10
HETATM   10  C8  UNL     1       7.401 -25.019 -23.219  1.00  0.00     0.175 C 
HETATM   11  N4  UNL     1       7.008 -23.966 -22.599  1.00  0.00    -0.361 N 
HETATM   12  C9  UNL     1       7.345 -22.750 -23.263  1.00  0.00     0.142 C 
ATOM     13  H4  UNL     1       6.501 -23.997 -21.713  1.00  0.00     0.162 HD
HETATM   14  C10 UNL     1       7.658 -23.207 -24.672  1.00  0.00     0.142 C 
HETATM   15  N5  UNL     1       8.070 -24.596 -24.416  1.00  0.00    -0.361 N 
ATOM     16  H5  UNL     1       8.711 -25.152 -24.981  1.00  0.00     0.162 HD
ENDBRANCH   8  10
ENDBRANCH   5   8
BRANCH   4  17
HETATM   17  O5  UNL     1       5.063 -27.454 -24.242  1.00  0.00    -0.357 OA
ATOM     18  H5  UNL     1       4.743 -27.169 -23.394  1.00  0.00     0.218 HD
ENDBRANCH   4  17
BRANCH   3  19
HETATM   19  S1  UNL     1       5.177 -29.731 -26.041  1.00  0.00     0.140 S 
HETATM   20  O2  UNL     1       4.540 -28.564 -26.761  1.00  0.00    -0.591 OA
HETATM   21  O3  UNL     1       4.228 -30.349 -25.058  1.00  0.00    -0.591 OA
HETATM   22  O4  UNL     1       5.706 -30.803 -27.198  1.00  0.00    -0.591 OA
ENDBRANCH   3  19
BRANCH   1  23
HETATM   23  C2  UNL     1      10.239 -29.728 -24.668  1.00  0.00     0.306 C 
BRANCH  23  24
HETATM   24  C1  UNL     1      10.388 -30.999 -23.923  1.00  0.00     0.266 C 
HETATM   25  N1  UNL     1      10.596 -32.191 -24.673  1.00  0.00    -0.060 NA
HETATM   26  O1  UNL     1      10.346 -31.101 -22.691  1.00  0.00    -0.274 OA
ENDBRANCH  23  24
BRANCH  23  27
HETATM   27  N2  UNL     1      11.268 -28.777 -24.295  1.00  0.00    -0.063 N 
ATOM     28  H23 UNL     1      11.502 -28.847 -23.305  1.00  0.00     0.275 HD
ATOM     29  H22 UNL     1      12.174 -29.032 -24.688  1.00  0.00     0.275 HD
ATOM     30  H21 UNL     1      11.003 -27.826 -24.552  1.00  0.00     0.275 HD
ENDBRANCH  23  27
ENDBRANCH   1  23
TORSDOF 7
ENDMDL
