MODEL 1
REMARK VINA RESULT: -7.273076835      0.000      0.000
REMARK  6 active torsions:
REMARK  status: ('A' for Active; 'I' for Inactive)
REMARK    1  A    between atoms: N1_1  and  C1_5 
REMARK    2  A    between atoms: C1_5  and  C2_6 
REMARK    3  A    between atoms: C2_6  and  C3_7 
REMARK    4  A    between atoms: C3_7  and  C4_9 
REMARK    5  A    between atoms: C7_17  and  C8_18 
REMARK    6  A    between atoms: N8_31  and  N9_33 
ROOT
HETATM    1  C4  UNL     1       7.660 -31.170 -25.297  1.00  0.00     0.166 C 
HETATM    2  C5  UNL     1       8.847 -31.477 -26.140  1.00  0.00     0.154 C 
HETATM    3  N2  UNL     1       8.881 -30.799 -27.414  1.00  0.00    -0.362 N 
ATOM      4  H2  UNL     1       9.073 -31.353 -28.247  1.00  0.00     0.162 HD
HETATM    5  C6  UNL     1       8.679 -29.521 -27.562  1.00  0.00     0.186 C 
HETATM    6  N3  UNL     1       8.754 -29.033 -28.905  1.00  0.00    -0.064 NA
HETATM    7  N4  UNL     1       8.394 -28.547 -26.560  1.00  0.00    -0.337 N 
ATOM      8  H4  UNL     1       8.145 -27.601 -26.851  1.00  0.00     0.164 HD
HETATM    9  C7  UNL     1       8.445 -28.856 -25.119  1.00  0.00     0.249 C 
HETATM   10  N10 UNL     1       7.524 -29.866 -24.807  1.00  0.00    -0.383 N 
ATOM     11  H10 UNL     1       6.731 -29.644 -24.206  1.00  0.00     0.156 HD
ENDROOT
BRANCH   9  12
HETATM   12  C8  UNL     1       8.010 -27.588 -24.440  1.00  0.00     0.128 A 
HETATM   13  N5  UNL     1       7.272 -27.664 -23.315  1.00  0.00    -0.309 N 
HETATM   14  C9  UNL     1       6.869 -26.542 -22.689  1.00  0.00     0.263 A 
ATOM     15  H5  UNL     1       7.016 -28.576 -22.937  1.00  0.00     0.170 HD
HETATM   16  O2  UNL     1       6.172 -26.559 -21.628  1.00  0.00    -0.267 OA
HETATM   17  C10 UNL     1       7.197 -25.285 -23.175  1.00  0.00     0.105 A 
HETATM   18  C11 UNL     1       7.953 -25.219 -24.326  1.00  0.00     0.124 A 
HETATM   19  C13 UNL     1       6.916 -23.923 -22.729  1.00  0.00     0.082 A 
HETATM   20  N6  UNL     1       8.334 -26.375 -24.919  1.00  0.00    -0.328 N 
HETATM   21  N7  UNL     1       8.142 -23.842 -24.598  1.00  0.00    -0.349 N 
ATOM     22  H6  UNL     1       8.893 -26.323 -25.770  1.00  0.00     0.169 HD
HETATM   23  C12 UNL     1       7.575 -23.085 -23.726  1.00  0.00     0.121 A 
ATOM     24  H7  UNL     1       8.670 -23.490 -25.396  1.00  0.00     0.167 HD
HETATM   25  N8  UNL     1       6.235 -23.586 -21.688  1.00  0.00    -0.305 N 
ATOM     26  H8  UNL     1       5.853 -24.339 -21.116  1.00  0.00     0.186 HD
BRANCH  25  27
HETATM   27  N9  UNL     1       5.979 -22.300 -21.283  1.00  0.00    -0.345 N 
ATOM     28  H92 UNL     1       6.467 -21.564 -21.792  1.00  0.00     0.176 HD
ATOM     29  H91 UNL     1       5.350 -22.030 -20.527  1.00  0.00     0.176 HD
ENDBRANCH  25  27
ENDBRANCH   9  12
BRANCH   1  30
HETATM   30  C3  UNL     1       6.380 -31.638 -25.846  1.00  0.00     0.152 C 
HETATM   31  O1  UNL     1       6.415 -32.448 -26.758  1.00  0.00    -0.296 OA
BRANCH  30  32
HETATM   32  C2  UNL     1       5.037 -31.222 -25.399  1.00  0.00     0.108 C 
BRANCH  32  33
HETATM   33  C1  UNL     1       4.620 -29.897 -26.057  1.00  0.00     0.237 C 
BRANCH  33  34
HETATM   34  N1  UNL     1       4.275 -30.210 -27.427  1.00  0.00    -0.079 N 
ATOM     35  H13 UNL     1       4.700 -29.579 -28.105  1.00  0.00     0.274 HD
ATOM     36  H12 UNL     1       4.708 -31.069 -27.767  1.00  0.00     0.274 HD
ATOM     37  H11 UNL     1       3.257 -30.226 -27.473  1.00  0.00     0.274 HD
ENDBRANCH  33  34
ENDBRANCH  32  33
ENDBRANCH  30  32
ENDBRANCH   1  30
TORSDOF 6
ENDMDL
MODEL 2
REMARK VINA RESULT: -7.115770269      1.279      1.689
REMARK  6 active torsions:
REMARK  status: ('A' for Active; 'I' for Inactive)
REMARK    1  A    between atoms: N1_1  and  C1_5 
REMARK    2  A    between atoms: C1_5  and  C2_6 
REMARK    3  A    between atoms: C2_6  and  C3_7 
REMARK    4  A    between atoms: C3_7  and  C4_9 
REMARK    5  A    between atoms: C7_17  and  C8_18 
REMARK    6  A    between atoms: N8_31  and  N9_33 
ROOT
HETATM    1  C4  UNL     1       7.634 -31.306 -25.418  1.00  0.00     0.166 C 
HETATM    2  C5  UNL     1       8.768 -31.639 -26.321  1.00  0.00     0.154 C 
HETATM    3  N2  UNL     1       8.810 -30.883 -27.550  1.00  0.00    -0.362 N 
ATOM      4  H2  UNL     1       8.936 -31.394 -28.423  1.00  0.00     0.162 HD
HETATM    5  C6  UNL     1       8.696 -29.588 -27.610  1.00  0.00     0.186 C 
HETATM    6  N3  UNL     1       8.763 -29.019 -28.922  1.00  0.00    -0.064 NA
HETATM    7  N4  UNL     1       8.513 -28.664 -26.540  1.00  0.00    -0.337 N 
ATOM      8  H4  UNL     1       8.324 -27.686 -26.761  1.00  0.00     0.164 HD
HETATM    9  C7  UNL     1       8.588 -29.069 -25.123  1.00  0.00     0.249 C 
HETATM   10  N10 UNL     1       7.607 -30.031 -24.843  1.00  0.00    -0.383 N 
ATOM     11  H10 UNL     1       6.851 -29.794 -24.201  1.00  0.00     0.156 HD
ENDROOT
BRANCH   9  12
HETATM   12  C8  UNL     1       8.266 -27.821 -24.350  1.00  0.00     0.128 A 
HETATM   13  N5  UNL     1       9.197 -26.853 -24.246  1.00  0.00    -0.309 N 
HETATM   14  C9  UNL     1       8.934 -25.726 -23.559  1.00  0.00     0.263 A 
ATOM     15  H5  UNL     1      10.108 -26.975 -24.691  1.00  0.00     0.170 HD
HETATM   16  O2  UNL     1       9.775 -24.785 -23.431  1.00  0.00    -0.267 OA
HETATM   17  C10 UNL     1       7.707 -25.526 -22.942  1.00  0.00     0.105 A 
HETATM   18  C11 UNL     1       6.761 -26.522 -23.055  1.00  0.00     0.124 A 
HETATM   19  C13 UNL     1       7.140 -24.440 -22.148  1.00  0.00     0.082 A 
HETATM   20  N6  UNL     1       7.074 -27.637 -23.756  1.00  0.00    -0.328 N 
HETATM   21  N7  UNL     1       5.622 -26.070 -22.346  1.00  0.00    -0.349 N 
ATOM     22  H6  UNL     1       6.372 -28.373 -23.838  1.00  0.00     0.169 HD
HETATM   23  C12 UNL     1       5.795 -24.908 -21.824  1.00  0.00     0.121 A 
ATOM     24  H7  UNL     1       4.759 -26.607 -22.260  1.00  0.00     0.167 HD
HETATM   25  N8  UNL     1       7.728 -23.337 -21.831  1.00  0.00    -0.305 N 
ATOM     26  H8  UNL     1       8.683 -23.206 -22.164  1.00  0.00     0.186 HD
BRANCH  25  27
HETATM   27  N9  UNL     1       7.180 -22.325 -21.084  1.00  0.00    -0.345 N 
ATOM     28  H92 UNL     1       7.822 -21.822 -20.472  1.00  0.00     0.176 HD
ATOM     29  H91 UNL     1       6.200 -22.043 -21.095  1.00  0.00     0.176 HD
ENDBRANCH  25  27
ENDBRANCH   9  12
BRANCH   1  30
HETATM   30  C3  UNL     1       6.306 -31.647 -25.949  1.00  0.00     0.152 C 
HETATM   31  O1  UNL     1       6.256 -32.379 -26.925  1.00  0.00    -0.296 OA
BRANCH  30  32
HETATM   32  C2  UNL     1       5.010 -31.190 -25.413  1.00  0.00     0.108 C 
BRANCH  32  33
HETATM   33  C1  UNL     1       4.595 -29.849 -26.040  1.00  0.00     0.237 C 
BRANCH  33  34
HETATM   34  N1  UNL     1       4.218 -30.136 -27.408  1.00  0.00    -0.079 N 
ATOM     35  H13 UNL     1       4.438 -31.089 -27.697  1.00  0.00     0.274 HD
ATOM     36  H12 UNL     1       3.210 -30.192 -27.546  1.00  0.00     0.274 HD
ATOM     37  H11 UNL     1       4.666 -29.425 -27.986  1.00  0.00     0.274 HD
ENDBRANCH  33  34
ENDBRANCH  32  33
ENDBRANCH  30  32
ENDBRANCH   1  30
TORSDOF 6
ENDMDL
MODEL 3
REMARK VINA RESULT: -6.011967795      1.658      2.198
REMARK  6 active torsions:
REMARK  status: ('A' for Active; 'I' for Inactive)
REMARK    1  A    between atoms: N1_1  and  C1_5 
REMARK    2  A    between atoms: C1_5  and  C2_6 
REMARK    3  A    between atoms: C2_6  and  C3_7 
REMARK    4  A    between atoms: C3_7  and  C4_9 
REMARK    5  A    between atoms: C7_17  and  C8_18 
REMARK    6  A    between atoms: N8_31  and  N9_33 
ROOT
HETATM    1  C4  UNL     1       6.991 -30.228 -25.178  1.00  0.00     0.166 C 
HETATM    2  C5  UNL     1       8.228 -30.737 -25.830  1.00  0.00     0.154 C 
HETATM    3  N2  UNL     1       8.595 -30.059 -27.051  1.00  0.00    -0.362 N 
ATOM      4  H2  UNL     1       8.823 -30.628 -27.865  1.00  0.00     0.162 HD
HETATM    5  C6  UNL     1       8.652 -28.764 -27.174  1.00  0.00     0.186 C 
HETATM    6  N3  UNL     1       9.037 -28.280 -28.464  1.00  0.00    -0.064 NA
HETATM    7  N4  UNL     1       8.382 -27.767 -26.190  1.00  0.00    -0.337 N 
ATOM      8  H4  UNL     1       8.358 -26.788 -26.476  1.00  0.00     0.164 HD
HETATM    9  C7  UNL     1       8.135 -28.100 -24.774  1.00  0.00     0.249 C 
HETATM   10  N10 UNL     1       7.009 -28.929 -24.661  1.00  0.00    -0.383 N 
ATOM     11  H10 UNL     1       6.179 -28.573 -24.187  1.00  0.00     0.156 HD
ENDROOT
BRANCH   9  12
HETATM   12  C8  UNL     1       7.825 -26.783 -24.120  1.00  0.00     0.128 A 
HETATM   13  N5  UNL     1       8.259 -25.645 -24.695  1.00  0.00    -0.309 N 
HETATM   14  C9  UNL     1       7.995 -24.452 -24.129  1.00  0.00     0.263 A 
ATOM     15  H5  UNL     1       8.791 -25.687 -25.565  1.00  0.00     0.170 HD
HETATM   16  O2  UNL     1       8.380 -23.352 -24.629  1.00  0.00    -0.267 OA
HETATM   17  C10 UNL     1       7.275 -24.357 -22.947  1.00  0.00     0.105 A 
HETATM   18  C11 UNL     1       6.836 -25.528 -22.367  1.00  0.00     0.124 A 
HETATM   19  C13 UNL     1       6.842 -23.239 -22.114  1.00  0.00     0.082 A 
HETATM   20  N6  UNL     1       7.127 -26.702 -22.975  1.00  0.00    -0.328 N 
HETATM   21  N7  UNL     1       6.140 -25.152 -21.192  1.00  0.00    -0.349 N 
ATOM     22  H6  UNL     1       6.800 -27.567 -22.543  1.00  0.00     0.169 HD
HETATM   23  C12 UNL     1       6.122 -23.878 -21.016  1.00  0.00     0.121 A 
ATOM     24  H7  UNL     1       5.701 -25.819 -20.557  1.00  0.00     0.167 HD
HETATM   25  N8  UNL     1       7.066 -21.989 -22.335  1.00  0.00    -0.305 N 
ATOM     26  H8  UNL     1       7.598 -21.752 -23.173  1.00  0.00     0.186 HD
BRANCH  25  27
HETATM   27  N9  UNL     1       6.651 -20.950 -21.542  1.00  0.00    -0.345 N 
ATOM     28  H92 UNL     1       7.181 -20.803 -20.683  1.00  0.00     0.176 HD
ATOM     29  H91 UNL     1       5.870 -20.326 -21.742  1.00  0.00     0.176 HD
ENDBRANCH  25  27
ENDBRANCH   9  12
BRANCH   1  30
HETATM   30  C3  UNL     1       5.757 -30.446 -25.948  1.00  0.00     0.152 C 
HETATM   31  O1  UNL     1       5.426 -29.583 -26.746  1.00  0.00    -0.296 OA
BRANCH  30  32
HETATM   32  C2  UNL     1       4.867 -31.619 -25.853  1.00  0.00     0.108 C 
BRANCH  32  33
HETATM   33  C1  UNL     1       5.337 -32.746 -26.786  1.00  0.00     0.237 C 
BRANCH  33  34
HETATM   34  N1  UNL     1       4.294 -32.924 -27.773  1.00  0.00    -0.079 N 
ATOM     35  H13 UNL     1       3.983 -32.049 -28.194  1.00  0.00     0.274 HD
ATOM     36  H12 UNL     1       4.620 -33.368 -28.630  1.00  0.00     0.274 HD
ATOM     37  H11 UNL     1       3.544 -33.438 -27.311  1.00  0.00     0.274 HD
ENDBRANCH  33  34
ENDBRANCH  32  33
ENDBRANCH  30  32
ENDBRANCH   1  30
TORSDOF 6
ENDMDL
MODEL 4
REMARK VINA RESULT: -5.979603655      2.200      3.654
REMARK  6 active torsions:
REMARK  status: ('A' for Active; 'I' for Inactive)
REMARK    1  A    between atoms: N1_1  and  C1_5 
REMARK    2  A    between atoms: C1_5  and  C2_6 
REMARK    3  A    between atoms: C2_6  and  C3_7 
REMARK    4  A    between atoms: C3_7  and  C4_9 
REMARK    5  A    between atoms: C7_17  and  C8_18 
REMARK    6  A    between atoms: N8_31  and  N9_33 
ROOT
HETATM    1  C4  UNL     1       8.970 -29.413 -25.169  1.00  0.00     0.166 C 
HETATM    2  C5  UNL     1       8.298 -29.854 -26.421  1.00  0.00     0.154 C 
HETATM    3  N2  UNL     1       6.889 -30.134 -26.289  1.00  0.00    -0.362 N 
ATOM      4  H2  UNL     1       6.536 -31.011 -26.671  1.00  0.00     0.162 HD
HETATM    5  C6  UNL     1       6.040 -29.334 -25.711  1.00  0.00     0.186 C 
HETATM    6  N3  UNL     1       4.683 -29.786 -25.679  1.00  0.00    -0.064 NA
HETATM    7  N4  UNL     1       6.288 -28.066 -25.107  1.00  0.00    -0.337 N 
ATOM      8  H4  UNL     1       5.534 -27.611 -24.591  1.00  0.00     0.164 HD
HETATM    9  C7  UNL     1       7.594 -27.387 -25.201  1.00  0.00     0.249 C 
HETATM   10  N10 UNL     1       8.595 -28.180 -24.624  1.00  0.00    -0.383 N 
ATOM     11  H10 UNL     1       9.063 -27.850 -23.781  1.00  0.00     0.156 HD
ENDROOT
BRANCH   9  12
HETATM   12  C8  UNL     1       7.438 -26.141 -24.376  1.00  0.00     0.128 A 
HETATM   13  N5  UNL     1       7.889 -24.968 -24.862  1.00  0.00    -0.309 N 
HETATM   14  C9  UNL     1       7.762 -23.838 -24.141  1.00  0.00     0.263 A 
ATOM     15  H5  UNL     1       8.330 -24.936 -25.782  1.00  0.00     0.170 HD
HETATM   16  O2  UNL     1       8.169 -22.709 -24.553  1.00  0.00    -0.267 OA
HETATM   17  C10 UNL     1       7.168 -23.844 -22.887  1.00  0.00     0.105 A 
HETATM   18  C11 UNL     1       6.710 -25.049 -22.399  1.00  0.00     0.124 A 
HETATM   19  C13 UNL     1       6.893 -22.810 -21.894  1.00  0.00     0.082 A 
HETATM   20  N6  UNL     1       6.861 -26.157 -23.161  1.00  0.00    -0.328 N 
HETATM   21  N7  UNL     1       6.158 -24.776 -21.124  1.00  0.00    -0.349 N 
ATOM     22  H6  UNL     1       6.521 -27.047 -22.798  1.00  0.00     0.169 HD
HETATM   23  C12 UNL     1       6.242 -23.533 -20.806  1.00  0.00     0.121 A 
ATOM     24  H7  UNL     1       5.739 -25.488 -20.525  1.00  0.00     0.167 HD
HETATM   25  N8  UNL     1       7.178 -21.556 -21.997  1.00  0.00    -0.305 N 
ATOM     26  H8  UNL     1       7.640 -21.252 -22.854  1.00  0.00     0.186 HD
BRANCH  25  27
HETATM   27  N9  UNL     1       6.912 -20.596 -21.053  1.00  0.00    -0.345 N 
ATOM     28  H92 UNL     1       6.340 -20.891 -20.263  1.00  0.00     0.176 HD
ATOM     29  H91 UNL     1       7.237 -19.630 -21.082  1.00  0.00     0.176 HD
ENDBRANCH  25  27
ENDBRANCH   9  12
BRANCH   1  30
HETATM   30  C3  UNL     1       9.031 -30.433 -24.113  1.00  0.00     0.152 C 
HETATM   31  O1  UNL     1       8.041 -30.589 -23.415  1.00  0.00    -0.296 OA
BRANCH  30  32
HETATM   32  C2  UNL     1      10.183 -31.302 -23.806  1.00  0.00     0.108 C 
BRANCH  32  33
HETATM   33  C1  UNL     1      10.628 -32.091 -25.048  1.00  0.00     0.237 C 
BRANCH  33  34
HETATM   34  N1  UNL     1      11.395 -33.218 -24.565  1.00  0.00    -0.079 N 
ATOM     35  H13 UNL     1      11.447 -33.266 -23.547  1.00  0.00     0.274 HD
ATOM     36  H12 UNL     1      10.932 -34.115 -24.709  1.00  0.00     0.274 HD
ATOM     37  H11 UNL     1      12.309 -33.159 -25.012  1.00  0.00     0.274 HD
ENDBRANCH  33  34
ENDBRANCH  32  33
ENDBRANCH  30  32
ENDBRANCH   1  30
TORSDOF 6
ENDMDL
MODEL 5
REMARK VINA RESULT: -5.716524419      1.937      3.223
REMARK  6 active torsions:
REMARK  status: ('A' for Active; 'I' for Inactive)
REMARK    1  A    between atoms: N1_1  and  C1_5 
REMARK    2  A    between atoms: C1_5  and  C2_6 
REMARK    3  A    between atoms: C2_6  and  C3_7 
REMARK    4  A    between atoms: C3_7  and  C4_9 
REMARK    5  A    between atoms: C7_17  and  C8_18 
REMARK    6  A    between atoms: N8_31  and  N9_33 
ROOT
HETATM    1  C4  UNL     1       8.970 -29.617 -25.252  1.00  0.00     0.166 C 
HETATM    2  C5  UNL     1       8.253 -30.139 -26.447  1.00  0.00     0.154 C 
HETATM    3  N2  UNL     1       6.846 -30.391 -26.250  1.00  0.00    -0.362 N 
ATOM      4  H2  UNL     1       6.472 -31.289 -26.556  1.00  0.00     0.162 HD
HETATM    5  C6  UNL     1       6.025 -29.540 -25.705  1.00  0.00     0.186 C 
HETATM    6  N3  UNL     1       4.665 -29.972 -25.597  1.00  0.00    -0.064 NA
HETATM    7  N4  UNL     1       6.305 -28.235 -25.203  1.00  0.00    -0.337 N 
ATOM      8  H4  UNL     1       5.573 -27.735 -24.697  1.00  0.00     0.164 HD
HETATM    9  C7  UNL     1       7.615 -27.581 -25.387  1.00  0.00     0.249 C 
HETATM   10  N10 UNL     1       8.626 -28.344 -24.785  1.00  0.00    -0.383 N 
ATOM     11  H10 UNL     1       9.124 -27.959 -23.984  1.00  0.00     0.156 HD
ENDROOT
BRANCH   9  12
HETATM   12  C8  UNL     1       7.498 -26.277 -24.649  1.00  0.00     0.128 A 
HETATM   13  N5  UNL     1       7.050 -26.278 -23.379  1.00  0.00    -0.309 N 
HETATM   14  C9  UNL     1       6.936 -25.123 -22.697  1.00  0.00     0.263 A 
ATOM     15  H5  UNL     1       6.795 -27.159 -22.931  1.00  0.00     0.170 HD
HETATM   16  O2  UNL     1       6.519 -25.068 -21.499  1.00  0.00    -0.267 OA
HETATM   17  C10 UNL     1       7.273 -23.907 -23.273  1.00  0.00     0.105 A 
HETATM   18  C11 UNL     1       7.731 -23.918 -24.574  1.00  0.00     0.124 A 
HETATM   19  C13 UNL     1       7.259 -22.525 -22.801  1.00  0.00     0.082 A 
HETATM   20  N6  UNL     1       7.827 -25.104 -25.217  1.00  0.00    -0.328 N 
HETATM   21  N7  UNL     1       7.999 -22.569 -24.911  1.00  0.00    -0.349 N 
ATOM     22  H6  UNL     1       8.167 -25.109 -26.179  1.00  0.00     0.169 HD
HETATM   23  C12 UNL     1       7.746 -21.759 -23.944  1.00  0.00     0.121 A 
ATOM     24  H7  UNL     1       8.354 -22.272 -25.820  1.00  0.00     0.167 HD
HETATM   25  N8  UNL     1       6.891 -22.120 -21.633  1.00  0.00    -0.305 N 
ATOM     26  H8  UNL     1       6.579 -22.830 -20.971  1.00  0.00     0.186 HD
BRANCH  25  27
HETATM   27  N9  UNL     1       6.884 -20.817 -21.205  1.00  0.00    -0.345 N 
ATOM     28  H92 UNL     1       6.464 -20.139 -21.840  1.00  0.00     0.176 HD
ATOM     29  H91 UNL     1       7.258 -20.482 -20.317  1.00  0.00     0.176 HD
ENDBRANCH  25  27
ENDBRANCH   9  12
BRANCH   1  30
HETATM   30  C3  UNL     1       9.055 -30.560 -24.127  1.00  0.00     0.152 C 
HETATM   31  O1  UNL     1       8.078 -30.668 -23.402  1.00  0.00    -0.296 OA
BRANCH  30  32
HETATM   32  C2  UNL     1      10.216 -31.400 -23.780  1.00  0.00     0.108 C 
BRANCH  32  33
HETATM   33  C1  UNL     1      10.712 -32.190 -25.001  1.00  0.00     0.237 C 
BRANCH  33  34
HETATM   34  N1  UNL     1      11.442 -33.328 -24.485  1.00  0.00    -0.079 N 
ATOM     35  H13 UNL     1      10.980 -34.219 -24.662  1.00  0.00     0.274 HD
ATOM     36  H12 UNL     1      12.299 -33.526 -25.000  1.00  0.00     0.274 HD
ATOM     37  H11 UNL     1      11.600 -33.145 -23.494  1.00  0.00     0.274 HD
ENDBRANCH  33  34
ENDBRANCH  32  33
ENDBRANCH  30  32
ENDBRANCH   1  30
TORSDOF 6
ENDMDL
