MODEL 1
REMARK VINA RESULT: -8.399014376      0.000      0.000
REMARK  16 active torsions:
REMARK  status: ('A' for Active; 'I' for Inactive)
REMARK    1  A    between atoms: C3_5  and  O1_6 
REMARK    2  A    between atoms: C4_8  and  C5_9 
REMARK    3  A    between atoms: C5_9  and  C6_10 
REMARK    4  A    between atoms: C6_10  and  C7_11 
REMARK    5  A    between atoms: C7_11  and  C8_12 
REMARK    6  A    between atoms: C8_12  and  C9_13 
REMARK    7  A    between atoms: C9_13  and  C10_14 
REMARK    8  A    between atoms: C10_14  and  C11_15 
REMARK    9  A    between atoms: C11_15  and  C12_17 
REMARK   10  A    between atoms: C16_21  and  N2_22 
REMARK   11  A    between atoms: C22_28  and  C24_30 
REMARK   12  A    between atoms: C24_30  and  O2_31 
REMARK   13  A    between atoms: N3_34  and  C26_35 
REMARK   14  A    between atoms: C26_35  and  C27_36 
REMARK   15  A    between atoms: C32_41  and  O3_42 
REMARK   16  A    between atoms: C34_49  and  O4_50 
ROOT
HETATM    1  C1  UNL     1      43.447  12.587  -2.976  1.00  0.00     0.041 C 
HETATM    2  C2  UNL     1      44.399  13.089  -1.866  1.00  0.00     0.155 C 
HETATM    3  N1  UNL     1      44.047  12.473  -0.648  1.00  0.00    -0.361 N 
ATOM      4  H1  UNL     1      43.087  12.139  -0.557  1.00  0.00     0.162 HD
HETATM    5  C3  UNL     1      44.899  12.277   0.452  1.00  0.00     0.136 C 
HETATM    6  C4  UNL     1      45.880  13.129   0.996  1.00  0.00     0.164 C 
HETATM    7  N3  UNL     1      45.435  14.281   1.802  1.00  0.00    -0.339 N 
HETATM    8  C33 UNL     1      44.459  15.178   1.361  1.00  0.00     0.200 C 
HETATM    9  N4  UNL     1      44.017  15.602   0.315  1.00  0.00    -0.294 N 
ATOM     10  H4  UNL     1      43.279  16.271   0.535  1.00  0.00     0.187 HD
HETATM   11  N5  UNL     1      44.123  15.533  -1.025  1.00  0.00    -0.281 N 
ATOM     12  H5  UNL     1      43.813  16.380  -1.502  1.00  0.00     0.189 HD
HETATM   13  C34 UNL     1      44.569  14.540  -1.888  1.00  0.00     0.153 C 
ENDROOT
BRANCH   6  14
HETATM   14  C5  UNL     1      47.057  12.414   1.662  1.00  0.00     0.034 C 
BRANCH  14  15
HETATM   15  C6  UNL     1      48.101  11.906   0.778  1.00  0.00     0.006 C 
BRANCH  15  16
HETATM   16  C7  UNL     1      48.079  10.352   0.758  1.00  0.00     0.027 C 
BRANCH  16  17
HETATM   17  C8  UNL     1      47.834  10.027   2.219  1.00  0.00    -0.027 C 
BRANCH  17  18
HETATM   18  C9  UNL     1      47.993   8.828   2.669  1.00  0.00    -0.005 C 
BRANCH  18  19
HETATM   19  C10 UNL     1      48.819   8.094   3.485  1.00  0.00     0.010 C 
BRANCH  19  20
HETATM   20  C11 UNL     1      50.141   7.579   3.644  1.00  0.00     0.197 C 
HETATM   21  F1  UNL     1      50.995   8.373   2.722  1.00  0.00    -0.245 F 
BRANCH  20  22
HETATM   22  C12 UNL     1      50.556   6.153   3.228  1.00  0.00     0.024 C 
HETATM   23  C13 UNL     1      51.938   5.987   3.803  1.00  0.00     0.012 C 
HETATM   24  C14 UNL     1      52.208   5.473   5.107  1.00  0.00    -0.008 C 
HETATM   25  C15 UNL     1      53.292   4.357   4.971  1.00  0.00     0.041 C 
HETATM   26  C20 UNL     1      51.137   4.729   5.850  1.00  0.00    -0.007 C 
HETATM   27  C16 UNL     1      52.482   3.101   5.014  1.00  0.00     0.227 C 
HETATM   28  C19 UNL     1      51.065   3.472   4.952  1.00  0.00     0.033 C 
HETATM   29  C22 UNL     1      50.295   3.713   3.759  1.00  0.00    -0.016 C 
HETATM   30  C23 UNL     1      49.007   2.829   3.939  1.00  0.00     0.018 C 
HETATM   31  C25 UNL     1      49.626   5.108   3.613  1.00  0.00     0.019 C 
HETATM   32  C21 UNL     1      51.698   4.355   7.212  1.00  0.00     0.011 C 
BRANCH  27  33
HETATM   33  N2  UNL     1      52.982   1.989   4.316  1.00  0.00     0.085 N 
HETATM   34  C17 UNL     1      53.510   1.010   5.296  1.00  0.00     0.309 C 
HETATM   35  C18 UNL     1      54.112   2.256   3.462  1.00  0.00     0.309 C 
ENDBRANCH  27  33
BRANCH  29  36
HETATM   36  C24 UNL     1      50.714   3.259   2.414  1.00  0.00     0.173 C 
BRANCH  36  37
HETATM   37  O2  UNL     1      50.334   1.923   2.111  1.00  0.00    -0.400 OA
ATOM     38  H2  UNL     1      49.424   1.829   1.858  1.00  0.00     0.209 HD
ENDBRANCH  36  37
ENDBRANCH  29  36
ENDBRANCH  20  22
ENDBRANCH  19  20
ENDBRANCH  18  19
ENDBRANCH  17  18
ENDBRANCH  16  17
ENDBRANCH  15  16
ENDBRANCH  14  15
ENDBRANCH   6  14
BRANCH   5  39
HETATM   39  O1  UNL     1      44.685  11.093   0.985  1.00  0.00    -0.348 OA
ATOM     40  H1  UNL     1      43.751  10.924   1.042  1.00  0.00     0.219 HD
ENDBRANCH   5  39
BRANCH   7  41
HETATM   41  C26 UNL     1      46.009  14.391   3.109  1.00  0.00     0.107 C 
BRANCH  41  42
HETATM   42  C27 UNL     1      46.625  15.619   3.548  1.00  0.00     0.013 A 
HETATM   43  C28 UNL     1      47.907  16.023   3.310  1.00  0.00     0.015 A 
HETATM   44  C29 UNL     1      48.430  17.108   4.018  1.00  0.00     0.001 A 
HETATM   45  C30 UNL     1      47.702  17.794   4.962  1.00  0.00     0.003 A 
HETATM   46  C31 UNL     1      46.421  17.393   5.196  1.00  0.00     0.037 A 
HETATM   47  C32 UNL     1      45.887  16.343   4.522  1.00  0.00     0.077 A 
BRANCH  47  48
HETATM   48  O3  UNL     1      44.573  15.982   4.809  1.00  0.00    -0.360 OA
ATOM     49  H3  UNL     1      43.876  16.623   4.724  1.00  0.00     0.217 HD
ENDBRANCH  47  48
ENDBRANCH  41  42
ENDBRANCH   7  41
BRANCH  13  50
HETATM   50  O4  UNL     1      45.256  14.948  -2.919  1.00  0.00    -0.347 OA
ATOM     51  H4  UNL     1      45.904  14.312  -3.200  1.00  0.00     0.219 HD
ENDBRANCH  13  50
TORSDOF 16
ENDMDL
MODEL 2
REMARK VINA RESULT: -8.362442547      1.435      2.277
REMARK  16 active torsions:
REMARK  status: ('A' for Active; 'I' for Inactive)
REMARK    1  A    between atoms: C3_5  and  O1_6 
REMARK    2  A    between atoms: C4_8  and  C5_9 
REMARK    3  A    between atoms: C5_9  and  C6_10 
REMARK    4  A    between atoms: C6_10  and  C7_11 
REMARK    5  A    between atoms: C7_11  and  C8_12 
REMARK    6  A    between atoms: C8_12  and  C9_13 
REMARK    7  A    between atoms: C9_13  and  C10_14 
REMARK    8  A    between atoms: C10_14  and  C11_15 
REMARK    9  A    between atoms: C11_15  and  C12_17 
REMARK   10  A    between atoms: C16_21  and  N2_22 
REMARK   11  A    between atoms: C22_28  and  C24_30 
REMARK   12  A    between atoms: C24_30  and  O2_31 
REMARK   13  A    between atoms: N3_34  and  C26_35 
REMARK   14  A    between atoms: C26_35  and  C27_36 
REMARK   15  A    between atoms: C32_41  and  O3_42 
REMARK   16  A    between atoms: C34_49  and  O4_50 
ROOT
HETATM    1  C1  UNL     1      43.850  12.116  -2.992  1.00  0.00     0.041 C 
HETATM    2  C2  UNL     1      44.684  12.705  -1.831  1.00  0.00     0.155 C 
HETATM    3  N1  UNL     1      44.186  12.205  -0.611  1.00  0.00    -0.361 N 
ATOM      4  H1  UNL     1      43.215  11.894  -0.599  1.00  0.00     0.162 HD
HETATM    5  C3  UNL     1      44.907  12.099   0.591  1.00  0.00     0.136 C 
HETATM    6  C4  UNL     1      45.840  12.984   1.164  1.00  0.00     0.164 C 
HETATM    7  N3  UNL     1      45.335  14.210   1.810  1.00  0.00    -0.339 N 
HETATM    8  C33 UNL     1      44.434  15.075   1.184  1.00  0.00     0.200 C 
HETATM    9  N4  UNL     1      44.121  15.409   0.062  1.00  0.00    -0.294 N 
ATOM     10  H4  UNL     1      43.379  16.104   0.138  1.00  0.00     0.187 HD
HETATM   11  N5  UNL     1      44.372  15.218  -1.246  1.00  0.00    -0.281 N 
ATOM     12  H5  UNL     1      44.137  16.021  -1.828  1.00  0.00     0.189 HD
HETATM   13  C34 UNL     1      44.889  14.145  -1.963  1.00  0.00     0.153 C 
ENDROOT
BRANCH   6  14
HETATM   14  C5  UNL     1      46.920  12.317   2.018  1.00  0.00     0.034 C 
BRANCH  14  15
HETATM   15  C6  UNL     1      47.700  11.261   1.383  1.00  0.00     0.006 C 
BRANCH  15  16
HETATM   16  C7  UNL     1      47.680   9.977   2.259  1.00  0.00     0.027 C 
BRANCH  16  17
HETATM   17  C8  UNL     1      48.654   9.081   1.518  1.00  0.00    -0.027 C 
BRANCH  17  18
HETATM   18  C9  UNL     1      49.444   8.285   2.158  1.00  0.00    -0.005 C 
BRANCH  18  19
HETATM   19  C10 UNL     1      49.511   7.551   3.316  1.00  0.00     0.010 C 
BRANCH  19  20
HETATM   20  C11 UNL     1      48.882   6.524   4.083  1.00  0.00     0.197 C 
HETATM   21  F1  UNL     1      48.245   7.218   5.234  1.00  0.00    -0.245 F 
BRANCH  20  22
HETATM   22  C12 UNL     1      49.658   5.423   4.833  1.00  0.00     0.024 C 
HETATM   23  C13 UNL     1      49.298   4.155   4.104  1.00  0.00     0.012 C 
HETATM   24  C14 UNL     1      50.024   3.635   2.991  1.00  0.00    -0.008 C 
HETATM   25  C15 UNL     1      50.317   2.126   3.268  1.00  0.00     0.041 C 
HETATM   26  C20 UNL     1      51.409   4.138   2.706  1.00  0.00    -0.007 C 
HETATM   27  C16 UNL     1      51.733   2.147   3.749  1.00  0.00     0.227 C 
HETATM   28  C19 UNL     1      52.127   3.545   3.940  1.00  0.00     0.033 C 
HETATM   29  C22 UNL     1      51.907   4.343   5.119  1.00  0.00    -0.016 C 
HETATM   30  C23 UNL     1      53.316   4.964   5.442  1.00  0.00     0.018 C 
HETATM   31  C25 UNL     1      51.086   5.652   4.950  1.00  0.00     0.019 C 
HETATM   32  C21 UNL     1      51.899   3.444   1.445  1.00  0.00     0.011 C 
BRANCH  27  33
HETATM   33  N2  UNL     1      52.120   1.143   4.653  1.00  0.00     0.085 N 
HETATM   34  C17 UNL     1      53.597   1.021   4.627  1.00  0.00     0.309 C 
HETATM   35  C18 UNL     1      51.664  -0.185   4.329  1.00  0.00     0.309 C 
ENDBRANCH  27  33
BRANCH  29  36
HETATM   36  C24 UNL     1      51.588   3.766   6.444  1.00  0.00     0.173 C 
BRANCH  36  37
HETATM   37  O2  UNL     1      51.746   4.677   7.523  1.00  0.00    -0.400 OA
ATOM     38  H2  UNL     1      52.499   4.497   8.074  1.00  0.00     0.209 HD
ENDBRANCH  36  37
ENDBRANCH  29  36
ENDBRANCH  20  22
ENDBRANCH  19  20
ENDBRANCH  18  19
ENDBRANCH  17  18
ENDBRANCH  16  17
ENDBRANCH  15  16
ENDBRANCH  14  15
ENDBRANCH   6  14
BRANCH   5  39
HETATM   39  O1  UNL     1      44.608  10.970   1.199  1.00  0.00    -0.348 OA
ATOM     40  H1  UNL     1      45.400  10.543   1.503  1.00  0.00     0.219 HD
ENDBRANCH   5  39
BRANCH   7  41
HETATM   41  C26 UNL     1      45.764  14.431   3.158  1.00  0.00     0.107 C 
BRANCH  41  42
HETATM   42  C27 UNL     1      46.435  15.650   3.533  1.00  0.00     0.013 A 
HETATM   43  C28 UNL     1      47.703  16.025   3.196  1.00  0.00     0.015 A 
HETATM   44  C29 UNL     1      48.298  17.107   3.849  1.00  0.00     0.001 A 
HETATM   45  C30 UNL     1      47.655  17.820   4.834  1.00  0.00     0.003 A 
HETATM   46  C31 UNL     1      46.387  17.449   5.167  1.00  0.00     0.037 A 
HETATM   47  C32 UNL     1      45.784  16.402   4.548  1.00  0.00     0.077 A 
BRANCH  47  48
HETATM   48  O3  UNL     1      44.488  16.073   4.935  1.00  0.00    -0.360 OA
ATOM     49  H3  UNL     1      44.044  16.592   5.595  1.00  0.00     0.217 HD
ENDBRANCH  47  48
ENDBRANCH  41  42
ENDBRANCH   7  41
BRANCH  13  50
HETATM   50  O4  UNL     1      45.694  14.449  -2.942  1.00  0.00    -0.347 OA
ATOM     51  H4  UNL     1      45.504  15.300  -3.319  1.00  0.00     0.219 HD
ENDBRANCH  13  50
TORSDOF 16
ENDMDL
MODEL 3
REMARK VINA RESULT: -8.298848904      1.437      2.406
REMARK  16 active torsions:
REMARK  status: ('A' for Active; 'I' for Inactive)
REMARK    1  A    between atoms: C3_5  and  O1_6 
REMARK    2  A    between atoms: C4_8  and  C5_9 
REMARK    3  A    between atoms: C5_9  and  C6_10 
REMARK    4  A    between atoms: C6_10  and  C7_11 
REMARK    5  A    between atoms: C7_11  and  C8_12 
REMARK    6  A    between atoms: C8_12  and  C9_13 
REMARK    7  A    between atoms: C9_13  and  C10_14 
REMARK    8  A    between atoms: C10_14  and  C11_15 
REMARK    9  A    between atoms: C11_15  and  C12_17 
REMARK   10  A    between atoms: C16_21  and  N2_22 
REMARK   11  A    between atoms: C22_28  and  C24_30 
REMARK   12  A    between atoms: C24_30  and  O2_31 
REMARK   13  A    between atoms: N3_34  and  C26_35 
REMARK   14  A    between atoms: C26_35  and  C27_36 
REMARK   15  A    between atoms: C32_41  and  O3_42 
REMARK   16  A    between atoms: C34_49  and  O4_50 
ROOT
HETATM    1  C1  UNL     1      43.661  12.134  -2.851  1.00  0.00     0.041 C 
HETATM    2  C2  UNL     1      44.567  12.705  -1.737  1.00  0.00     0.155 C 
HETATM    3  N1  UNL     1      44.152  12.181  -0.496  1.00  0.00    -0.361 N 
ATOM      4  H1  UNL     1      43.185  11.863  -0.426  1.00  0.00     0.162 HD
HETATM    5  C3  UNL     1      44.951  12.056   0.654  1.00  0.00     0.136 C 
HETATM    6  C4  UNL     1      45.915  12.936   1.182  1.00  0.00     0.164 C 
HETATM    7  N3  UNL     1      45.449  14.146   1.882  1.00  0.00    -0.339 N 
HETATM    8  C33 UNL     1      44.504  15.018   1.333  1.00  0.00     0.200 C 
HETATM    9  N4  UNL     1      44.116  15.371   0.240  1.00  0.00    -0.294 N 
ATOM     10  H4  UNL     1      43.377  16.060   0.378  1.00  0.00     0.187 HD
HETATM   11  N5  UNL     1      44.282  15.205  -1.085  1.00  0.00    -0.281 N 
ATOM     12  H5  UNL     1      44.005  16.018  -1.635  1.00  0.00     0.189 HD
HETATM   13  C34 UNL     1      44.755  14.149  -1.854  1.00  0.00     0.153 C 
ENDROOT
BRANCH   6  14
HETATM   14  C5  UNL     1      47.052  12.260   1.950  1.00  0.00     0.034 C 
BRANCH  14  15
HETATM   15  C6  UNL     1      47.789  11.215   1.248  1.00  0.00     0.006 C 
BRANCH  15  16
HETATM   16  C7  UNL     1      47.913   9.950   2.144  1.00  0.00     0.027 C 
BRANCH  16  17
HETATM   17  C8  UNL     1      47.766   8.835   1.127  1.00  0.00    -0.027 C 
BRANCH  17  18
HETATM   18  C9  UNL     1      48.799   8.201   0.681  1.00  0.00    -0.005 C 
BRANCH  18  19
HETATM   19  C10 UNL     1      49.893   7.499   1.123  1.00  0.00     0.010 C 
BRANCH  19  20
HETATM   20  C11 UNL     1      50.907   7.431   2.125  1.00  0.00     0.197 C 
HETATM   21  F1  UNL     1      52.057   6.739   1.485  1.00  0.00    -0.245 F 
BRANCH  20  22
HETATM   22  C12 UNL     1      50.777   6.595   3.414  1.00  0.00     0.024 C 
HETATM   23  C13 UNL     1      49.732   5.563   3.082  1.00  0.00     0.012 C 
HETATM   24  C14 UNL     1      50.018   4.285   2.517  1.00  0.00    -0.008 C 
HETATM   25  C15 UNL     1      49.278   3.204   3.368  1.00  0.00     0.041 C 
HETATM   26  C20 UNL     1      51.421   3.753   2.552  1.00  0.00    -0.007 C 
HETATM   27  C16 UNL     1      50.365   2.678   4.251  1.00  0.00     0.227 C 
HETATM   28  C19 UNL     1      51.544   3.531   4.076  1.00  0.00     0.033 C 
HETATM   29  C22 UNL     1      51.822   4.760   4.773  1.00  0.00    -0.016 C 
HETATM   30  C23 UNL     1      53.289   4.584   5.312  1.00  0.00     0.018 C 
HETATM   31  C25 UNL     1      52.021   6.038   3.910  1.00  0.00     0.019 C 
HETATM   32  C21 UNL     1      51.421   2.411   1.836  1.00  0.00     0.011 C 
BRANCH  27  33
HETATM   33  N2  UNL     1      49.988   2.194   5.515  1.00  0.00     0.085 N 
HETATM   34  C17 UNL     1      51.099   1.381   6.065  1.00  0.00     0.309 C 
HETATM   35  C18 UNL     1      48.870   1.285   5.517  1.00  0.00     0.309 C 
ENDBRANCH  27  33
BRANCH  29  36
HETATM   36  C24 UNL     1      51.149   5.153   6.031  1.00  0.00     0.173 C 
BRANCH  36  37
HETATM   37  O2  UNL     1      51.868   4.801   7.205  1.00  0.00    -0.400 OA
ATOM     38  H2  UNL     1      51.336   4.384   7.872  1.00  0.00     0.209 HD
ENDBRANCH  36  37
ENDBRANCH  29  36
ENDBRANCH  20  22
ENDBRANCH  19  20
ENDBRANCH  18  19
ENDBRANCH  17  18
ENDBRANCH  16  17
ENDBRANCH  15  16
ENDBRANCH  14  15
ENDBRANCH   6  14
BRANCH   5  39
HETATM   39  O1  UNL     1      44.698  10.915   1.259  1.00  0.00    -0.348 OA
ATOM     40  H1  UNL     1      45.442  10.654   1.790  1.00  0.00     0.219 HD
ENDBRANCH   5  39
BRANCH   7  41
HETATM   41  C26 UNL     1      45.964  14.345   3.203  1.00  0.00     0.107 C 
BRANCH  41  42
HETATM   42  C27 UNL     1      46.590  15.589   3.576  1.00  0.00     0.013 A 
HETATM   43  C28 UNL     1      47.875  15.969   3.319  1.00  0.00     0.015 A 
HETATM   44  C29 UNL     1      48.406  17.085   3.970  1.00  0.00     0.001 A 
HETATM   45  C30 UNL     1      47.683  17.828   4.875  1.00  0.00     0.003 A 
HETATM   46  C31 UNL     1      46.398  17.451   5.127  1.00  0.00     0.037 A 
HETATM   47  C32 UNL     1      45.856  16.371   4.509  1.00  0.00     0.077 A 
BRANCH  47  48
HETATM   48  O3  UNL     1      44.539  16.037   4.812  1.00  0.00    -0.360 OA
ATOM     49  H3  UNL     1      43.827  16.583   4.499  1.00  0.00     0.217 HD
ENDBRANCH  47  48
ENDBRANCH  41  42
ENDBRANCH   7  41
BRANCH  13  50
HETATM   50  O4  UNL     1      45.493  14.476  -2.877  1.00  0.00    -0.347 OA
ATOM     51  H4  UNL     1      45.007  14.952  -3.541  1.00  0.00     0.219 HD
ENDBRANCH  13  50
TORSDOF 16
ENDMDL
MODEL 4
REMARK VINA RESULT: -8.162183866      1.968      2.859
REMARK  16 active torsions:
REMARK  status: ('A' for Active; 'I' for Inactive)
REMARK    1  A    between atoms: C3_5  and  O1_6 
REMARK    2  A    between atoms: C4_8  and  C5_9 
REMARK    3  A    between atoms: C5_9  and  C6_10 
REMARK    4  A    between atoms: C6_10  and  C7_11 
REMARK    5  A    between atoms: C7_11  and  C8_12 
REMARK    6  A    between atoms: C8_12  and  C9_13 
REMARK    7  A    between atoms: C9_13  and  C10_14 
REMARK    8  A    between atoms: C10_14  and  C11_15 
REMARK    9  A    between atoms: C11_15  and  C12_17 
REMARK   10  A    between atoms: C16_21  and  N2_22 
REMARK   11  A    between atoms: C22_28  and  C24_30 
REMARK   12  A    between atoms: C24_30  and  O2_31 
REMARK   13  A    between atoms: N3_34  and  C26_35 
REMARK   14  A    between atoms: C26_35  and  C27_36 
REMARK   15  A    between atoms: C32_41  and  O3_42 
REMARK   16  A    between atoms: C34_49  and  O4_50 
ROOT
HETATM    1  C1  UNL     1      45.913  10.085  -3.670  1.00  0.00     0.041 C 
HETATM    2  C2  UNL     1      46.068  11.035  -2.461  1.00  0.00     0.155 C 
HETATM    3  N1  UNL     1      44.942  10.897  -1.624  1.00  0.00    -0.361 N 
ATOM      4  H1  UNL     1      44.083  10.553  -2.053  1.00  0.00     0.162 HD
HETATM    5  C3  UNL     1      44.897  11.191  -0.250  1.00  0.00     0.136 C 
HETATM    6  C4  UNL     1      45.481  12.254   0.465  1.00  0.00     0.164 C 
HETATM    7  N3  UNL     1      44.863  13.589   0.364  1.00  0.00    -0.339 N 
HETATM    8  C33 UNL     1      44.543  14.181  -0.861  1.00  0.00     0.200 C 
HETATM    9  N4  UNL     1      44.915  14.148  -2.014  1.00  0.00    -0.294 N 
ATOM     10  H4  UNL     1      44.335  14.795  -2.548  1.00  0.00     0.187 HD
HETATM   11  N5  UNL     1      45.797  13.589  -2.862  1.00  0.00    -0.281 N 
ATOM     12  H5  UNL     1      46.005  14.169  -3.675  1.00  0.00     0.189 HD
HETATM   13  C34 UNL     1      46.482  12.380  -2.854  1.00  0.00     0.153 C 
ENDROOT
BRANCH   6  14
HETATM   14  C5  UNL     1      45.855  11.930   1.912  1.00  0.00     0.034 C 
BRANCH  14  15
HETATM   15  C6  UNL     1      47.276  11.778   2.206  1.00  0.00     0.006 C 
BRANCH  15  16
HETATM   16  C7  UNL     1      47.934  10.802   1.190  1.00  0.00     0.027 C 
BRANCH  16  17
HETATM   17  C8  UNL     1      47.575   9.452   1.782  1.00  0.00    -0.027 C 
BRANCH  17  18
HETATM   18  C9  UNL     1      48.311   8.909   2.693  1.00  0.00    -0.005 C 
BRANCH  18  19
HETATM   19  C10 UNL     1      49.454   8.161   2.836  1.00  0.00     0.010 C 
BRANCH  19  20
HETATM   20  C11 UNL     1      50.509   7.806   3.730  1.00  0.00     0.197 C 
HETATM   21  F1  UNL     1      51.688   7.530   2.867  1.00  0.00    -0.245 F 
BRANCH  20  22
HETATM   22  C12 UNL     1      50.504   6.526   4.589  1.00  0.00     0.024 C 
HETATM   23  C13 UNL     1      49.565   5.597   3.865  1.00  0.00     0.012 C 
HETATM   24  C14 UNL     1      49.970   4.678   2.851  1.00  0.00    -0.008 C 
HETATM   25  C15 UNL     1      49.372   3.278   3.202  1.00  0.00     0.041 C 
HETATM   26  C20 UNL     1      51.422   4.329   2.699  1.00  0.00    -0.007 C 
HETATM   27  C16 UNL     1      50.532   2.572   3.829  1.00  0.00     0.227 C 
HETATM   28  C19 UNL     1      51.609   3.547   4.019  1.00  0.00     0.033 C 
HETATM   29  C22 UNL     1      51.774   4.432   5.144  1.00  0.00    -0.016 C 
HETATM   30  C23 UNL     1      53.266   4.220   5.595  1.00  0.00     0.018 C 
HETATM   31  C25 UNL     1      51.812   5.958   4.850  1.00  0.00     0.019 C 
HETATM   32  C21 UNL     1      51.545   3.380   1.518  1.00  0.00     0.011 C 
BRANCH  27  33
HETATM   33  N2  UNL     1      50.243   1.597   4.798  1.00  0.00     0.085 N 
HETATM   34  C17 UNL     1      51.408   0.688   4.923  1.00  0.00     0.309 C 
HETATM   35  C18 UNL     1      49.155   0.710   4.473  1.00  0.00     0.309 C 
ENDBRANCH  27  33
BRANCH  29  36
HETATM   36  C24 UNL     1      51.097   4.230   6.444  1.00  0.00     0.173 C 
BRANCH  36  37
HETATM   37  O2  UNL     1      51.773   4.821   7.545  1.00  0.00    -0.400 OA
ATOM     38  H2  UNL     1      52.418   4.255   7.952  1.00  0.00     0.209 HD
ENDBRANCH  36  37
ENDBRANCH  29  36
ENDBRANCH  20  22
ENDBRANCH  19  20
ENDBRANCH  18  19
ENDBRANCH  17  18
ENDBRANCH  16  17
ENDBRANCH  15  16
ENDBRANCH  14  15
ENDBRANCH   6  14
BRANCH   5  39
HETATM   39  O1  UNL     1      44.187  10.282   0.384  1.00  0.00    -0.348 OA
ATOM     40  H1  UNL     1      44.093  10.520   1.299  1.00  0.00     0.219 HD
ENDBRANCH   5  39
BRANCH   7  41
HETATM   41  C26 UNL     1      44.533  14.223   1.604  1.00  0.00     0.107 C 
BRANCH  41  42
HETATM   42  C27 UNL     1      45.254  15.387   2.057  1.00  0.00     0.013 A 
HETATM   43  C28 UNL     1      46.400  15.404   2.799  1.00  0.00     0.015 A 
HETATM   44  C29 UNL     1      46.828  16.602   3.376  1.00  0.00     0.001 A 
HETATM   45  C30 UNL     1      46.136  17.782   3.232  1.00  0.00     0.003 A 
HETATM   46  C31 UNL     1      44.995  17.765   2.487  1.00  0.00     0.037 A 
HETATM   47  C32 UNL     1      44.556  16.616   1.914  1.00  0.00     0.077 A 
BRANCH  47  48
HETATM   48  O3  UNL     1      43.382  16.666   1.167  1.00  0.00    -0.360 OA
ATOM     49  H3  UNL     1      43.385  17.064   0.304  1.00  0.00     0.217 HD
ENDBRANCH  47  48
ENDBRANCH  41  42
ENDBRANCH   7  41
BRANCH  13  50
HETATM   50  O4  UNL     1      47.714  12.420  -3.279  1.00  0.00    -0.347 OA
ATOM     51  H4  UNL     1      47.790  12.820  -4.138  1.00  0.00     0.219 HD
ENDBRANCH  13  50
TORSDOF 16
ENDMDL
MODEL 5
REMARK VINA RESULT: -8.049447111      2.075      2.760
REMARK  16 active torsions:
REMARK  status: ('A' for Active; 'I' for Inactive)
REMARK    1  A    between atoms: C3_5  and  O1_6 
REMARK    2  A    between atoms: C4_8  and  C5_9 
REMARK    3  A    between atoms: C5_9  and  C6_10 
REMARK    4  A    between atoms: C6_10  and  C7_11 
REMARK    5  A    between atoms: C7_11  and  C8_12 
REMARK    6  A    between atoms: C8_12  and  C9_13 
REMARK    7  A    between atoms: C9_13  and  C10_14 
REMARK    8  A    between atoms: C10_14  and  C11_15 
REMARK    9  A    between atoms: C11_15  and  C12_17 
REMARK   10  A    between atoms: C16_21  and  N2_22 
REMARK   11  A    between atoms: C22_28  and  C24_30 
REMARK   12  A    between atoms: C24_30  and  O2_31 
REMARK   13  A    between atoms: N3_34  and  C26_35 
REMARK   14  A    between atoms: C26_35  and  C27_36 
REMARK   15  A    between atoms: C32_41  and  O3_42 
REMARK   16  A    between atoms: C34_49  and  O4_50 
ROOT
HETATM    1  C1  UNL     1      45.990  10.094  -3.581  1.00  0.00     0.041 C 
HETATM    2  C2  UNL     1      46.118  11.060  -2.381  1.00  0.00     0.155 C 
HETATM    3  N1  UNL     1      44.972  10.937  -1.570  1.00  0.00    -0.361 N 
ATOM      4  H1  UNL     1      44.123  10.590  -2.017  1.00  0.00     0.162 HD
HETATM    5  C3  UNL     1      44.893  11.250  -0.202  1.00  0.00     0.136 C 
HETATM    6  C4  UNL     1      45.465  12.320   0.513  1.00  0.00     0.164 C 
HETATM    7  N3  UNL     1      44.854  13.655   0.379  1.00  0.00    -0.339 N 
HETATM    8  C33 UNL     1      44.567  14.232  -0.862  1.00  0.00     0.200 C 
HETATM    9  N4  UNL     1      44.968  14.182  -2.004  1.00  0.00    -0.294 N 
ATOM     10  H4  UNL     1      44.404  14.824  -2.562  1.00  0.00     0.187 HD
HETATM   11  N5  UNL     1      45.868  13.609  -2.823  1.00  0.00    -0.281 N 
ATOM     12  H5  UNL     1      46.098  14.178  -3.638  1.00  0.00     0.189 HD
HETATM   13  C34 UNL     1      46.548  12.398  -2.781  1.00  0.00     0.153 C 
ENDROOT
BRANCH   6  14
HETATM   14  C5  UNL     1      45.801  12.013   1.973  1.00  0.00     0.034 C 
BRANCH  14  15
HETATM   15  C6  UNL     1      47.214  11.880   2.308  1.00  0.00     0.006 C 
BRANCH  15  16
HETATM   16  C7  UNL     1      47.910  10.901   1.321  1.00  0.00     0.027 C 
BRANCH  16  17
HETATM   17  C8  UNL     1      47.524   9.553   1.897  1.00  0.00    -0.027 C 
BRANCH  17  18
HETATM   18  C9  UNL     1      47.146   8.586   1.131  1.00  0.00    -0.005 C 
BRANCH  18  19
HETATM   19  C10 UNL     1      47.657   7.611   0.310  1.00  0.00     0.010 C 
BRANCH  19  20
HETATM   20  C11 UNL     1      48.854   6.972  -0.134  1.00  0.00     0.197 C 
HETATM   21  F1  UNL     1      48.457   6.151  -1.309  1.00  0.00    -0.245 F 
BRANCH  20  22
HETATM   22  C12 UNL     1      49.610   5.911   0.689  1.00  0.00     0.024 C 
HETATM   23  C13 UNL     1      50.422   6.713   1.672  1.00  0.00     0.012 C 
HETATM   24  C14 UNL     1      49.960   7.102   2.965  1.00  0.00    -0.008 C 
HETATM   25  C15 UNL     1      51.060   6.718   4.006  1.00  0.00     0.041 C 
HETATM   26  C20 UNL     1      48.763   6.423   3.563  1.00  0.00    -0.007 C 
HETATM   27  C16 UNL     1      50.539   5.438   4.579  1.00  0.00     0.227 C 
HETATM   28  C19 UNL     1      49.380   5.023   3.784  1.00  0.00     0.033 C 
HETATM   29  C22 UNL     1      49.408   4.254   2.566  1.00  0.00    -0.016 C 
HETATM   30  C23 UNL     1      48.374   3.094   2.810  1.00  0.00     0.018 C 
HETATM   31  C25 UNL     1      48.771   4.899   1.303  1.00  0.00     0.019 C 
HETATM   32  C21 UNL     1      48.486   7.080   4.906  1.00  0.00     0.011 C 
BRANCH  27  33
HETATM   33  N2  UNL     1      51.486   4.508   5.039  1.00  0.00     0.085 N 
HETATM   34  C17 UNL     1      51.364   4.393   6.512  1.00  0.00     0.309 C 
HETATM   35  C18 UNL     1      52.863   4.883   4.842  1.00  0.00     0.309 C 
ENDBRANCH  27  33
BRANCH  29  36
HETATM   36  C24 UNL     1      50.575   3.452   2.136  1.00  0.00     0.173 C 
BRANCH  36  37
HETATM   37  O2  UNL     1      50.615   2.147   2.695  1.00  0.00    -0.400 OA
ATOM     38  H2  UNL     1      49.957   1.557   2.347  1.00  0.00     0.209 HD
ENDBRANCH  36  37
ENDBRANCH  29  36
ENDBRANCH  20  22
ENDBRANCH  19  20
ENDBRANCH  18  19
ENDBRANCH  17  18
ENDBRANCH  16  17
ENDBRANCH  15  16
ENDBRANCH  14  15
ENDBRANCH   6  14
BRANCH   5  39
HETATM   39  O1  UNL     1      44.165  10.351   0.426  1.00  0.00    -0.348 OA
ATOM     40  H1  UNL     1      43.266  10.651   0.499  1.00  0.00     0.219 HD
ENDBRANCH   5  39
BRANCH   7  41
HETATM   41  C26 UNL     1      44.496  14.308   1.602  1.00  0.00     0.107 C 
BRANCH  41  42
HETATM   42  C27 UNL     1      45.222  15.464   2.065  1.00  0.00     0.013 A 
HETATM   43  C28 UNL     1      46.363  15.470   2.814  1.00  0.00     0.015 A 
HETATM   44  C29 UNL     1      46.796  16.661   3.401  1.00  0.00     0.001 A 
HETATM   45  C30 UNL     1      46.111  17.846   3.261  1.00  0.00     0.003 A 
HETATM   46  C31 UNL     1      44.974  17.841   2.510  1.00  0.00     0.037 A 
HETATM   47  C32 UNL     1      44.531  16.698   1.927  1.00  0.00     0.077 A 
BRANCH  47  48
HETATM   48  O3  UNL     1      43.362  16.760   1.174  1.00  0.00    -0.360 OA
ATOM     49  H3  UNL     1      42.676  17.373   1.411  1.00  0.00     0.217 HD
ENDBRANCH  47  48
ENDBRANCH  41  42
ENDBRANCH   7  41
BRANCH  13  50
HETATM   50  O4  UNL     1      47.790  12.428  -3.176  1.00  0.00    -0.347 OA
ATOM     51  H4  UNL     1      48.375  11.983  -2.574  1.00  0.00     0.219 HD
ENDBRANCH  13  50
TORSDOF 16
ENDMDL
