MODEL 1
REMARK VINA RESULT: -7.491797415      0.000      0.000
REMARK  13 active torsions:
REMARK  status: ('A' for Active; 'I' for Inactive)
REMARK    1  A    between atoms: C2_2  and  C3_3 
REMARK    2  A    between atoms: C3_3  and  C4_4 
REMARK    3  A    between atoms: C4_4  and  C5_5 
REMARK    4  A    between atoms: C4_4  and  C30_43 
REMARK    5  A    between atoms: C5_5  and  C6_6 
REMARK    6  A    between atoms: C6_6  and  O1_9 
REMARK    7  A    between atoms: O1_9  and  C9_10 
REMARK       I    between atoms: C9_10  and  N1_12 
REMARK    8  A    between atoms: N1_12  and  C10_13 
REMARK    9  A    between atoms: C10_13  and  C11_14 
REMARK   10  A    between atoms: C10_13  and  C26_39 
REMARK       I    between atoms: C11_14  and  N2_16 
REMARK   11  A    between atoms: C13_18  and  C14_19 
REMARK   12  A    between atoms: C20_29  and  C21_30 
REMARK       I    between atoms: C21_30  and  N5_32 
REMARK   13  A    between atoms: N5_32  and  C22_34 
ROOT
HETATM    1  C22 UNL     1      43.572   9.483  -2.421  1.00  0.00     0.122 A 
HETATM    2  C23 UNL     1      44.538   8.850  -3.361  1.00  0.00     0.091 C 
HETATM    3  N6  UNL     1      45.285   8.382  -4.088  1.00  0.00    -0.195 NA
HETATM    4  C24 UNL     1      42.345  10.051  -3.150  1.00  0.00     0.050 A 
HETATM    5  C25 UNL     1      42.275   8.855  -2.262  1.00  0.00     0.050 A 
ENDROOT
BRANCH   1   6
HETATM    6  N5  UNL     1      44.188  10.413  -1.518  1.00  0.00    -0.337 N 
HETATM    7  C21 UNL     1      44.625  10.039  -0.191  1.00  0.00     0.243 C 
HETATM    8  O4  UNL     1      44.420   8.860   0.083  1.00  0.00    -0.271 OA
ATOM      9  H5  UNL     1      44.323  11.376  -1.824  1.00  0.00     0.164 HD
BRANCH   7  10
HETATM   10  C20 UNL     1      45.228  11.028   0.640  1.00  0.00     0.196 C 
HETATM   11  N2  UNL     1      46.570  11.468   0.574  1.00  0.00    -0.332 N 
HETATM   12  C11 UNL     1      47.515  11.119  -0.351  1.00  0.00     0.257 C 
HETATM   13  C12 UNL     1      46.888  12.442   1.652  1.00  0.00     0.156 C 
HETATM   14  O3  UNL     1      47.215  10.119  -1.077  1.00  0.00    -0.270 OA
HETATM   15  C13 UNL     1      45.774  13.251   2.129  1.00  0.00     0.128 C 
HETATM   16  N4  UNL     1      44.579  13.287   1.361  1.00  0.00    -0.409 N 
HETATM   17  C19 UNL     1      44.450  12.382   0.317  1.00  0.00     0.149 C 
ATOM     18  H4  UNL     1      43.839  13.957   1.570  1.00  0.00     0.154 HD
BRANCH  12  19
HETATM   19  C10 UNL     1      48.837  11.669  -0.704  1.00  0.00     0.268 C 
BRANCH  19  20
HETATM   20  N1  UNL     1      49.889  10.826  -0.372  1.00  0.00    -0.374 NA
HETATM   21  C9  UNL     1      50.932   9.988  -0.043  1.00  0.00     0.436 C 
HETATM   22  O2  UNL     1      51.948   9.829  -0.755  1.00  0.00    -0.221 OA
BRANCH  21  23
HETATM   23  O1  UNL     1      50.965   9.245   1.122  1.00  0.00    -0.282 OA
BRANCH  23  24
HETATM   24  C6  UNL     1      50.436   7.923   1.328  1.00  0.00     0.066 C 
HETATM   25  C7  UNL     1      51.210   6.946   0.484  1.00  0.00     0.046 C 
HETATM   26  C8  UNL     1      48.993   7.930   0.920  1.00  0.00     0.046 C 
BRANCH  24  27
HETATM   27  C5  UNL     1      50.638   7.708   2.782  1.00  0.00     0.043 C 
BRANCH  27  28
HETATM   28  C4  UNL     1      50.892   6.437   3.465  1.00  0.00    -0.004 C 
BRANCH  28  29
HETATM   29  C3  UNL     1      52.003   6.465   4.406  1.00  0.00     0.005 C 
BRANCH  29  30
HETATM   30  C2  UNL     1      53.097   5.468   4.423  1.00  0.00    -0.004 C 
HETATM   31  C1  UNL     1      53.214   4.639   3.176  1.00  0.00     0.005 C 
ENDBRANCH  29  30
ENDBRANCH  28  29
BRANCH  28  32
HETATM   32  C30 UNL     1      49.574   5.828   3.969  1.00  0.00    -0.048 C 
HETATM   33  C31 UNL     1      49.863   5.003   5.246  1.00  0.00     0.015 C 
HETATM   34  C32 UNL     1      48.870   4.950   3.023  1.00  0.00     0.015 C 
HETATM   35  C33 UNL     1      48.613   6.871   4.510  1.00  0.00     0.015 C 
ENDBRANCH  28  32
ENDBRANCH  27  28
ENDBRANCH  24  27
ENDBRANCH  23  24
ENDBRANCH  21  23
ENDBRANCH  19  20
BRANCH  19  36
HETATM   36  C26 UNL     1      49.031  12.091  -2.105  1.00  0.00    -0.010 C 
HETATM   37  C27 UNL     1      49.255  11.169  -3.210  1.00  0.00     0.018 C 
HETATM   38  C28 UNL     1      47.871  13.013  -2.507  1.00  0.00     0.018 C 
HETATM   39  C29 UNL     1      50.239  13.060  -2.155  1.00  0.00     0.018 C 
ENDBRANCH  19  36
ENDBRANCH  12  19
BRANCH  15  40
HETATM   40  C14 UNL     1      46.135  14.647   2.476  1.00  0.00    -0.032 A 
HETATM   41  C15 UNL     1      47.370  14.982   3.046  1.00  0.00     0.026 A 
HETATM   42  C16 UNL     1      47.666  16.284   3.381  1.00  0.00     0.088 A 
HETATM   43  N3  UNL     1      46.792  17.294   3.179  1.00  0.00    -0.375 N 
HETATM   44  C17 UNL     1      45.607  17.014   2.636  1.00  0.00     0.088 A 
ATOM     45  H3  UNL     1      47.034  18.250   3.437  1.00  0.00     0.164 HD
HETATM   46  C18 UNL     1      45.284  15.712   2.289  1.00  0.00     0.026 A 
ENDBRANCH  15  40
ENDBRANCH   7  10
ENDBRANCH   1   6
TORSDOF 13
ENDMDL
MODEL 2
REMARK VINA RESULT: -7.469112201      0.703      1.578
REMARK  13 active torsions:
REMARK  status: ('A' for Active; 'I' for Inactive)
REMARK    1  A    between atoms: C2_2  and  C3_3 
REMARK    2  A    between atoms: C3_3  and  C4_4 
REMARK    3  A    between atoms: C4_4  and  C5_5 
REMARK    4  A    between atoms: C4_4  and  C30_43 
REMARK    5  A    between atoms: C5_5  and  C6_6 
REMARK    6  A    between atoms: C6_6  and  O1_9 
REMARK    7  A    between atoms: O1_9  and  C9_10 
REMARK       I    between atoms: C9_10  and  N1_12 
REMARK    8  A    between atoms: N1_12  and  C10_13 
REMARK    9  A    between atoms: C10_13  and  C11_14 
REMARK   10  A    between atoms: C10_13  and  C26_39 
REMARK       I    between atoms: C11_14  and  N2_16 
REMARK   11  A    between atoms: C13_18  and  C14_19 
REMARK   12  A    between atoms: C20_29  and  C21_30 
REMARK       I    between atoms: C21_30  and  N5_32 
REMARK   13  A    between atoms: N5_32  and  C22_34 
ROOT
HETATM    1  C22 UNL     1      43.581   9.464  -2.417  1.00  0.00     0.122 A 
HETATM    2  C23 UNL     1      44.550   8.843  -3.363  1.00  0.00     0.091 C 
HETATM    3  N6  UNL     1      45.300   8.383  -4.093  1.00  0.00    -0.195 NA
HETATM    4  C24 UNL     1      42.343  10.015  -3.141  1.00  0.00     0.050 A 
HETATM    5  C25 UNL     1      42.293   8.819  -2.252  1.00  0.00     0.050 A 
ENDROOT
BRANCH   1   6
HETATM    6  N5  UNL     1      44.190  10.401  -1.519  1.00  0.00    -0.337 N 
HETATM    7  C21 UNL     1      44.633  10.034  -0.192  1.00  0.00     0.243 C 
HETATM    8  O4  UNL     1      44.440   8.854   0.086  1.00  0.00    -0.271 OA
ATOM      9  H5  UNL     1      44.314  11.365  -1.827  1.00  0.00     0.164 HD
BRANCH   7  10
HETATM   10  C20 UNL     1      45.228  11.031   0.637  1.00  0.00     0.196 C 
HETATM   11  N2  UNL     1      46.566  11.481   0.571  1.00  0.00    -0.332 N 
HETATM   12  C11 UNL     1      47.515  11.136  -0.353  1.00  0.00     0.257 C 
HETATM   13  C12 UNL     1      46.877  12.461   1.645  1.00  0.00     0.156 C 
HETATM   14  O3  UNL     1      47.223  10.130  -1.075  1.00  0.00    -0.270 OA
HETATM   15  C13 UNL     1      45.756  13.264   2.118  1.00  0.00     0.128 C 
HETATM   16  N4  UNL     1      44.561  13.288   1.348  1.00  0.00    -0.409 N 
HETATM   17  C19 UNL     1      44.440  12.378   0.308  1.00  0.00     0.149 C 
ATOM     18  H4  UNL     1      43.816  13.953   1.554  1.00  0.00     0.154 HD
BRANCH  12  19
HETATM   19  C10 UNL     1      48.833  11.693  -0.707  1.00  0.00     0.268 C 
BRANCH  19  20
HETATM   20  N1  UNL     1      49.890  10.852  -0.386  1.00  0.00    -0.374 NA
HETATM   21  C9  UNL     1      50.938  10.016  -0.068  1.00  0.00     0.436 C 
HETATM   22  O2  UNL     1      51.971   9.901  -0.764  1.00  0.00    -0.221 OA
BRANCH  21  23
HETATM   23  O1  UNL     1      50.956   9.225   1.064  1.00  0.00    -0.282 OA
BRANCH  23  24
HETATM   24  C6  UNL     1      50.214   8.015   1.295  1.00  0.00     0.066 C 
HETATM   25  C7  UNL     1      49.677   7.509  -0.017  1.00  0.00     0.046 C 
HETATM   26  C8  UNL     1      49.085   8.332   2.229  1.00  0.00     0.046 C 
BRANCH  24  27
HETATM   27  C5  UNL     1      51.231   7.109   1.884  1.00  0.00     0.043 C 
BRANCH  27  28
HETATM   28  C4  UNL     1      50.993   5.926   2.715  1.00  0.00    -0.004 C 
BRANCH  28  29
HETATM   29  C3  UNL     1      51.105   4.656   2.011  1.00  0.00     0.005 C 
BRANCH  29  30
HETATM   30  C2  UNL     1      49.945   3.818   1.632  1.00  0.00    -0.004 C 
HETATM   31  C1  UNL     1      48.607   4.382   2.012  1.00  0.00     0.005 C 
ENDBRANCH  29  30
ENDBRANCH  28  29
BRANCH  28  32
HETATM   32  C30 UNL     1      51.752   6.047   4.047  1.00  0.00    -0.048 C 
HETATM   33  C31 UNL     1      50.884   5.433   5.171  1.00  0.00     0.015 C 
HETATM   34  C32 UNL     1      52.111   7.413   4.459  1.00  0.00     0.015 C 
HETATM   35  C33 UNL     1      52.979   5.156   4.108  1.00  0.00     0.015 C 
ENDBRANCH  28  32
ENDBRANCH  27  28
ENDBRANCH  24  27
ENDBRANCH  23  24
ENDBRANCH  21  23
ENDBRANCH  19  20
BRANCH  19  36
HETATM   36  C26 UNL     1      49.019  12.128  -2.105  1.00  0.00    -0.010 C 
HETATM   37  C27 UNL     1      49.258  11.217  -3.216  1.00  0.00     0.018 C 
HETATM   38  C28 UNL     1      47.844  13.034  -2.500  1.00  0.00     0.018 C 
HETATM   39  C29 UNL     1      50.211  13.118  -2.149  1.00  0.00     0.018 C 
ENDBRANCH  19  36
ENDBRANCH  12  19
BRANCH  15  40
HETATM   40  C14 UNL     1      46.107  14.663   2.459  1.00  0.00    -0.032 A 
HETATM   41  C15 UNL     1      47.339  15.011   3.026  1.00  0.00     0.026 A 
HETATM   42  C16 UNL     1      47.625  16.316   3.356  1.00  0.00     0.088 A 
HETATM   43  N3  UNL     1      46.743  17.318   3.153  1.00  0.00    -0.375 N 
HETATM   44  C17 UNL     1      45.559  17.027   2.613  1.00  0.00     0.088 A 
ATOM     45  H3  UNL     1      46.978  18.277   3.407  1.00  0.00     0.164 HD
HETATM   46  C18 UNL     1      45.246  15.721   2.271  1.00  0.00     0.026 A 
ENDBRANCH  15  40
ENDBRANCH   7  10
ENDBRANCH   1   6
TORSDOF 13
ENDMDL
MODEL 3
REMARK VINA RESULT: -7.295223066      4.356     10.591
REMARK  13 active torsions:
REMARK  status: ('A' for Active; 'I' for Inactive)
REMARK    1  A    between atoms: C2_2  and  C3_3 
REMARK    2  A    between atoms: C3_3  and  C4_4 
REMARK    3  A    between atoms: C4_4  and  C5_5 
REMARK    4  A    between atoms: C4_4  and  C30_43 
REMARK    5  A    between atoms: C5_5  and  C6_6 
REMARK    6  A    between atoms: C6_6  and  O1_9 
REMARK    7  A    between atoms: O1_9  and  C9_10 
REMARK       I    between atoms: C9_10  and  N1_12 
REMARK    8  A    between atoms: N1_12  and  C10_13 
REMARK    9  A    between atoms: C10_13  and  C11_14 
REMARK   10  A    between atoms: C10_13  and  C26_39 
REMARK       I    between atoms: C11_14  and  N2_16 
REMARK   11  A    between atoms: C13_18  and  C14_19 
REMARK   12  A    between atoms: C20_29  and  C21_30 
REMARK       I    between atoms: C21_30  and  N5_32 
REMARK   13  A    between atoms: N5_32  and  C22_34 
ROOT
HETATM    1  C22 UNL     1      56.409   5.673  -1.220  1.00  0.00     0.122 A 
HETATM    2  C23 UNL     1      57.642   4.859  -1.411  1.00  0.00     0.091 C 
HETATM    3  N6  UNL     1      58.595   4.243  -1.543  1.00  0.00    -0.195 NA
HETATM    4  C24 UNL     1      56.585   7.113  -1.723  1.00  0.00     0.050 A 
HETATM    5  C25 UNL     1      55.706   6.121  -2.406  1.00  0.00     0.050 A 
ENDROOT
BRANCH   1   6
HETATM    6  N5  UNL     1      55.876   5.588   0.109  1.00  0.00    -0.337 N 
HETATM    7  C21 UNL     1      55.033   4.495   0.543  1.00  0.00     0.243 C 
HETATM    8  O4  UNL     1      54.822   3.657  -0.329  1.00  0.00    -0.271 OA
ATOM      9  H5  UNL     1      56.099   6.327   0.775  1.00  0.00     0.164 HD
BRANCH   7  10
HETATM   10  C20 UNL     1      54.545   4.491   1.883  1.00  0.00     0.196 C 
HETATM   11  N2  UNL     1      53.374   5.134   2.346  1.00  0.00    -0.332 N 
HETATM   12  C11 UNL     1      52.434   5.788   1.599  1.00  0.00     0.257 C 
HETATM   13  C12 UNL     1      53.215   5.004   3.819  1.00  0.00     0.156 C 
HETATM   14  O3  UNL     1      52.777   6.041   0.400  1.00  0.00    -0.270 OA
HETATM   15  C13 UNL     1      53.796   3.811   4.420  1.00  0.00     0.128 C 
HETATM   16  N4  UNL     1      54.186   2.739   3.570  1.00  0.00    -0.409 N 
HETATM   17  C19 UNL     1      54.198   2.968   2.201  1.00  0.00     0.149 C 
ATOM     18  H4  UNL     1      54.447   1.832   3.955  1.00  0.00     0.154 HD
BRANCH  12  19
HETATM   19  C10 UNL     1      51.069   6.270   1.884  1.00  0.00     0.268 C 
BRANCH  19  20
HETATM   20  N1  UNL     1      50.835   7.559   1.426  1.00  0.00    -0.374 NA
HETATM   21  C9  UNL     1      50.603   8.839   0.972  1.00  0.00     0.436 C 
HETATM   22  O2  UNL     1      51.343   9.433   0.158  1.00  0.00    -0.221 OA
BRANCH  21  23
HETATM   23  O1  UNL     1      49.515   9.594   1.367  1.00  0.00    -0.282 OA
BRANCH  23  24
HETATM   24  C6  UNL     1      48.172   9.520   0.861  1.00  0.00     0.066 C 
HETATM   25  C7  UNL     1      47.388   8.535   1.686  1.00  0.00     0.046 C 
HETATM   26  C8  UNL     1      48.236   9.064  -0.567  1.00  0.00     0.046 C 
BRANCH  24  27
HETATM   27  C5  UNL     1      47.681  10.912   1.015  1.00  0.00     0.043 C 
BRANCH  27  28
HETATM   28  C4  UNL     1      46.428  11.350   1.635  1.00  0.00    -0.004 C 
BRANCH  28  29
HETATM   29  C3  UNL     1      46.588  12.327   2.703  1.00  0.00     0.005 C 
BRANCH  29  30
HETATM   30  C2  UNL     1      47.162  13.677   2.508  1.00  0.00    -0.004 C 
HETATM   31  C1  UNL     1      46.486  14.768   3.289  1.00  0.00     0.005 C 
ENDBRANCH  29  30
ENDBRANCH  28  29
BRANCH  28  32
HETATM   32  C30 UNL     1      45.380  11.669   0.556  1.00  0.00    -0.048 C 
HETATM   33  C31 UNL     1      46.113  12.089  -0.739  1.00  0.00     0.015 C 
HETATM   34  C32 UNL     1      44.420  12.731   0.889  1.00  0.00     0.015 C 
HETATM   35  C33 UNL     1      44.634  10.436   0.079  1.00  0.00     0.015 C 
ENDBRANCH  28  32
ENDBRANCH  27  28
ENDBRANCH  24  27
ENDBRANCH  23  24
ENDBRANCH  21  23
ENDBRANCH  19  20
BRANCH  19  36
HETATM   36  C26 UNL     1      49.952   5.423   1.420  1.00  0.00    -0.010 C 
HETATM   37  C27 UNL     1      49.278   5.594   0.141  1.00  0.00     0.018 C 
HETATM   38  C28 UNL     1      50.375   3.951   1.522  1.00  0.00     0.018 C 
HETATM   39  C29 UNL     1      48.817   5.501   2.472  1.00  0.00     0.018 C 
ENDBRANCH  19  36
ENDBRANCH  12  19
BRANCH  15  40
HETATM   40  C14 UNL     1      53.008   3.242   5.539  1.00  0.00    -0.032 A 
HETATM   41  C15 UNL     1      53.003   1.873   5.832  1.00  0.00     0.026 A 
HETATM   42  C16 UNL     1      52.240   1.371   6.862  1.00  0.00     0.088 A 
HETATM   43  N3  UNL     1      51.466   2.164   7.635  1.00  0.00    -0.375 N 
HETATM   44  C17 UNL     1      51.447   3.474   7.388  1.00  0.00     0.088 A 
ATOM     45  H3  UNL     1      50.909   1.768   8.391  1.00  0.00     0.164 HD
HETATM   46  C18 UNL     1      52.205   4.004   6.357  1.00  0.00     0.026 A 
ENDBRANCH  15  40
ENDBRANCH   7  10
ENDBRANCH   1   6
TORSDOF 13
ENDMDL
MODEL 4
REMARK VINA RESULT: -7.248744104      1.227      2.467
REMARK  13 active torsions:
REMARK  status: ('A' for Active; 'I' for Inactive)
REMARK    1  A    between atoms: C2_2  and  C3_3 
REMARK    2  A    between atoms: C3_3  and  C4_4 
REMARK    3  A    between atoms: C4_4  and  C5_5 
REMARK    4  A    between atoms: C4_4  and  C30_43 
REMARK    5  A    between atoms: C5_5  and  C6_6 
REMARK    6  A    between atoms: C6_6  and  O1_9 
REMARK    7  A    between atoms: O1_9  and  C9_10 
REMARK       I    between atoms: C9_10  and  N1_12 
REMARK    8  A    between atoms: N1_12  and  C10_13 
REMARK    9  A    between atoms: C10_13  and  C11_14 
REMARK   10  A    between atoms: C10_13  and  C26_39 
REMARK       I    between atoms: C11_14  and  N2_16 
REMARK   11  A    between atoms: C13_18  and  C14_19 
REMARK   12  A    between atoms: C20_29  and  C21_30 
REMARK       I    between atoms: C21_30  and  N5_32 
REMARK   13  A    between atoms: N5_32  and  C22_34 
ROOT
HETATM    1  C22 UNL     1      43.526   9.512  -2.518  1.00  0.00     0.122 A 
HETATM    2  C23 UNL     1      44.513   8.843  -3.411  1.00  0.00     0.091 C 
HETATM    3  N6  UNL     1      45.277   8.347  -4.101  1.00  0.00    -0.195 NA
HETATM    4  C24 UNL     1      42.349  10.108  -3.304  1.00  0.00     0.050 A 
HETATM    5  C25 UNL     1      42.206   8.922  -2.411  1.00  0.00     0.050 A 
ENDROOT
BRANCH   1   6
HETATM    6  N5  UNL     1      44.130  10.430  -1.596  1.00  0.00    -0.337 N 
HETATM    7  C21 UNL     1      44.530  10.046  -0.261  1.00  0.00     0.243 C 
HETATM    8  O4  UNL     1      44.305   8.868   0.003  1.00  0.00    -0.271 OA
ATOM      9  H5  UNL     1      44.283  11.394  -1.894  1.00  0.00     0.164 HD
BRANCH   7  10
HETATM   10  C20 UNL     1      45.122  11.025   0.590  1.00  0.00     0.196 C 
HETATM   11  N2  UNL     1      46.477  11.429   0.580  1.00  0.00    -0.332 N 
HETATM   12  C11 UNL     1      47.451  11.049  -0.301  1.00  0.00     0.257 C 
HETATM   13  C12 UNL     1      46.774  12.401   1.665  1.00  0.00     0.156 C 
HETATM   14  O3  UNL     1      47.157  10.051  -1.034  1.00  0.00    -0.270 OA
HETATM   15  C13 UNL     1      45.663  13.244   2.088  1.00  0.00     0.128 C 
HETATM   16  N4  UNL     1      44.503  13.305   1.269  1.00  0.00    -0.409 N 
HETATM   17  C19 UNL     1      44.395  12.396   0.226  1.00  0.00     0.149 C 
ATOM     18  H4  UNL     1      43.773  13.996   1.442  1.00  0.00     0.154 HD
BRANCH  12  19
HETATM   19  C10 UNL     1      48.801  11.560  -0.600  1.00  0.00     0.268 C 
BRANCH  19  20
HETATM   20  N1  UNL     1      49.814  10.683  -0.238  1.00  0.00    -0.374 NA
HETATM   21  C9  UNL     1      50.819   9.811   0.121  1.00  0.00     0.436 C 
HETATM   22  O2  UNL     1      51.790   9.529  -0.614  1.00  0.00    -0.221 OA
BRANCH  21  23
HETATM   23  O1  UNL     1      50.858   9.166   1.342  1.00  0.00    -0.282 OA
BRANCH  23  24
HETATM   24  C6  UNL     1      49.973   8.135   1.814  1.00  0.00     0.066 C 
HETATM   25  C7  UNL     1      48.631   8.742   2.123  1.00  0.00     0.046 C 
HETATM   26  C8  UNL     1      50.571   7.540   3.054  1.00  0.00     0.046 C 
BRANCH  24  27
HETATM   27  C5  UNL     1      49.924   7.191   0.670  1.00  0.00     0.043 C 
BRANCH  27  28
HETATM   28  C4  UNL     1      48.773   6.407   0.214  1.00  0.00    -0.004 C 
BRANCH  28  29
HETATM   29  C3  UNL     1      48.304   6.738  -1.123  1.00  0.00     0.005 C 
BRANCH  29  30
HETATM   30  C2  UNL     1      49.132   7.416  -2.146  1.00  0.00    -0.004 C 
HETATM   31  C1  UNL     1      49.900   6.494  -3.048  1.00  0.00     0.005 C 
ENDBRANCH  29  30
ENDBRANCH  28  29
BRANCH  28  32
HETATM   32  C30 UNL     1      48.987   4.915   0.523  1.00  0.00    -0.048 C 
HETATM   33  C31 UNL     1      50.506   4.645   0.643  1.00  0.00     0.015 C 
HETATM   34  C32 UNL     1      48.444   3.971  -0.464  1.00  0.00     0.015 C 
HETATM   35  C33 UNL     1      48.515   4.530   1.913  1.00  0.00     0.015 C 
ENDBRANCH  28  32
ENDBRANCH  27  28
ENDBRANCH  24  27
ENDBRANCH  23  24
ENDBRANCH  21  23
ENDBRANCH  19  20
BRANCH  19  36
HETATM   36  C26 UNL     1      49.060  11.989  -1.989  1.00  0.00    -0.010 C 
HETATM   37  C27 UNL     1      49.294  11.071  -3.095  1.00  0.00     0.018 C 
HETATM   38  C28 UNL     1      47.946  12.953  -2.422  1.00  0.00     0.018 C 
HETATM   39  C29 UNL     1      50.300  12.918  -1.986  1.00  0.00     0.018 C 
ENDBRANCH  19  36
ENDBRANCH  12  19
BRANCH  15  40
HETATM   40  C14 UNL     1      46.046  14.631   2.442  1.00  0.00    -0.032 A 
HETATM   41  C15 UNL     1      47.273  14.941   3.040  1.00  0.00     0.026 A 
HETATM   42  C16 UNL     1      47.590  16.237   3.380  1.00  0.00     0.088 A 
HETATM   43  N3  UNL     1      46.742  17.265   3.158  1.00  0.00    -0.375 N 
HETATM   44  C17 UNL     1      45.564  17.010   2.588  1.00  0.00     0.088 A 
ATOM     45  H3  UNL     1      46.999  18.216   3.420  1.00  0.00     0.164 HD
HETATM   46  C18 UNL     1      45.221  15.714   2.236  1.00  0.00     0.026 A 
ENDBRANCH  15  40
ENDBRANCH   7  10
ENDBRANCH   1   6
TORSDOF 13
ENDMDL
MODEL 5
REMARK VINA RESULT: -7.055012505      4.569     10.645
REMARK  13 active torsions:
REMARK  status: ('A' for Active; 'I' for Inactive)
REMARK    1  A    between atoms: C2_2  and  C3_3 
REMARK    2  A    between atoms: C3_3  and  C4_4 
REMARK    3  A    between atoms: C4_4  and  C5_5 
REMARK    4  A    between atoms: C4_4  and  C30_43 
REMARK    5  A    between atoms: C5_5  and  C6_6 
REMARK    6  A    between atoms: C6_6  and  O1_9 
REMARK    7  A    between atoms: O1_9  and  C9_10 
REMARK       I    between atoms: C9_10  and  N1_12 
REMARK    8  A    between atoms: N1_12  and  C10_13 
REMARK    9  A    between atoms: C10_13  and  C11_14 
REMARK   10  A    between atoms: C10_13  and  C26_39 
REMARK       I    between atoms: C11_14  and  N2_16 
REMARK   11  A    between atoms: C13_18  and  C14_19 
REMARK   12  A    between atoms: C20_29  and  C21_30 
REMARK       I    between atoms: C21_30  and  N5_32 
REMARK   13  A    between atoms: N5_32  and  C22_34 
ROOT
HETATM    1  C22 UNL     1      52.481   2.314   5.805  1.00  0.00     0.122 A 
HETATM    2  C23 UNL     1      53.054   3.680   5.963  1.00  0.00     0.091 C 
HETATM    3  N6  UNL     1      53.496   4.729   6.066  1.00  0.00    -0.195 NA
HETATM    4  C24 UNL     1      53.568   1.259   5.555  1.00  0.00     0.050 A 
HETATM    5  C25 UNL     1      52.790   1.331   6.825  1.00  0.00     0.050 A 
ENDROOT
BRANCH   1   6
HETATM    6  N5  UNL     1      51.398   2.261   4.867  1.00  0.00    -0.337 N 
HETATM    7  C21 UNL     1      50.025   2.515   5.244  1.00  0.00     0.243 C 
HETATM    8  O4  UNL     1      49.880   2.778   6.435  1.00  0.00    -0.271 OA
ATOM      9  H5  UNL     1      51.604   2.035   3.894  1.00  0.00     0.164 HD
BRANCH   7  10
HETATM   10  C20 UNL     1      49.010   2.439   4.246  1.00  0.00     0.196 C 
HETATM   11  N2  UNL     1      48.659   3.462   3.335  1.00  0.00    -0.332 N 
HETATM   12  C11 UNL     1      49.280   4.668   3.159  1.00  0.00     0.257 C 
HETATM   13  C12 UNL     1      47.493   3.080   2.494  1.00  0.00     0.156 C 
HETATM   14  O3  UNL     1      50.106   4.988   4.072  1.00  0.00    -0.270 OA
HETATM   15  C13 UNL     1      47.330   1.655   2.241  1.00  0.00     0.128 C 
HETATM   16  N4  UNL     1      48.413   0.781   2.531  1.00  0.00    -0.409 N 
HETATM   17  C19 UNL     1      49.488   1.294   3.244  1.00  0.00     0.149 C 
ATOM     18  H4  UNL     1      48.401  -0.192   2.225  1.00  0.00     0.154 HD
BRANCH  12  19
HETATM   19  C10 UNL     1      49.204   5.702   2.110  1.00  0.00     0.268 C 
BRANCH  19  20
HETATM   20  N1  UNL     1      49.183   6.995   2.614  1.00  0.00    -0.374 NA
HETATM   21  C9  UNL     1      49.162   8.278   3.115  1.00  0.00     0.436 C 
HETATM   22  O2  UNL     1      49.894   8.672   4.049  1.00  0.00    -0.221 OA
BRANCH  21  23
HETATM   23  O1  UNL     1      48.331   9.267   2.624  1.00  0.00    -0.282 OA
BRANCH  23  24
HETATM   24  C6  UNL     1      48.147   9.649   1.250  1.00  0.00     0.066 C 
HETATM   25  C7  UNL     1      47.197   8.683   0.594  1.00  0.00     0.046 C 
HETATM   26  C8  UNL     1      49.483   9.603   0.570  1.00  0.00     0.046 C 
BRANCH  24  27
HETATM   27  C5  UNL     1      47.586  11.018   1.358  1.00  0.00     0.043 C 
BRANCH  27  28
HETATM   28  C4  UNL     1      46.177  11.392   1.510  1.00  0.00    -0.004 C 
BRANCH  28  29
HETATM   29  C3  UNL     1      45.885  12.188   2.693  1.00  0.00     0.005 C 
BRANCH  29  30
HETATM   30  C2  UNL     1      46.830  13.158   3.291  1.00  0.00    -0.004 C 
HETATM   31  C1  UNL     1      46.447  14.600   3.120  1.00  0.00     0.005 C 
ENDBRANCH  29  30
ENDBRANCH  28  29
BRANCH  28  32
HETATM   32  C30 UNL     1      45.613  11.903   0.174  1.00  0.00    -0.048 C 
HETATM   33  C31 UNL     1      44.682  10.820  -0.420  1.00  0.00     0.015 C 
HETATM   34  C32 UNL     1      46.607  12.247  -0.853  1.00  0.00     0.015 C 
HETATM   35  C33 UNL     1      44.640  13.056   0.350  1.00  0.00     0.015 C 
ENDBRANCH  28  32
ENDBRANCH  27  28
ENDBRANCH  24  27
ENDBRANCH  23  24
ENDBRANCH  21  23
ENDBRANCH  19  20
BRANCH  19  36
HETATM   36  C26 UNL     1      50.231   5.654   1.051  1.00  0.00    -0.010 C 
HETATM   37  C27 UNL     1      51.462   6.432   1.074  1.00  0.00     0.018 C 
HETATM   38  C28 UNL     1      50.619   4.189   0.807  1.00  0.00     0.018 C 
HETATM   39  C29 UNL     1      49.558   6.031  -0.293  1.00  0.00     0.018 C 
ENDBRANCH  19  36
ENDBRANCH  12  19
BRANCH  15  40
HETATM   40  C14 UNL     1      46.831   1.326   0.884  1.00  0.00    -0.032 A 
HETATM   41  C15 UNL     1      45.658   0.591   0.674  1.00  0.00     0.026 A 
HETATM   42  C16 UNL     1      45.234   0.280  -0.598  1.00  0.00     0.088 A 
HETATM   43  N3  UNL     1      45.918   0.663  -1.697  1.00  0.00    -0.375 N 
HETATM   44  C17 UNL     1      47.039   1.368  -1.538  1.00  0.00     0.088 A 
ATOM     45  H3  UNL     1      45.584   0.420  -2.629  1.00  0.00     0.164 HD
HETATM   46  C18 UNL     1      47.488   1.694  -0.268  1.00  0.00     0.026 A 
ENDBRANCH  15  40
ENDBRANCH   7  10
ENDBRANCH   1   6
TORSDOF 13
ENDMDL
