MODEL 1
REMARK VINA RESULT: -8.570220614      0.000      0.000
REMARK  8 active torsions:
REMARK  status: ('A' for Active; 'I' for Inactive)
REMARK    1  A    between atoms: C2_2  and  C3_3 
REMARK    2  A    between atoms: C3_3  and  O1_4 
REMARK    3  A    between atoms: O1_4  and  C4_5 
REMARK    4  A    between atoms: C7_8  and  N1_9 
REMARK    5  A    between atoms: N1_9  and  C8_11 
REMARK    6  A    between atoms: C9_14  and  C10_15 
REMARK    7  A    between atoms: C18_27  and  C19_28 
REMARK    8  A    between atoms: C21_34  and  C22_35 
ROOT
HETATM    1  C8  UNL     1      47.260  10.008   0.887  1.00  0.00     0.683 A 
HETATM    2  N2  UNL     1      47.065  11.195   1.455  1.00  0.00    -0.191 N 
ATOM      3  H2  UNL     1      47.787  11.599   2.052  1.00  0.00     0.184 HD
HETATM    4  C9  UNL     1      45.914  11.866   1.242  1.00  0.00     0.061 A 
HETATM    5  C17 UNL     1      44.938  11.334   0.444  1.00  0.00     0.062 A 
HETATM    6  C18 UNL     1      45.146  10.086  -0.153  1.00  0.00     0.065 A 
HETATM    7  N7  UNL     1      46.310   9.483   0.103  1.00  0.00    -0.191 N 
ATOM      8  H7  UNL     1      46.485   8.572  -0.321  1.00  0.00     0.184 HD
ENDROOT
BRANCH   6   9
HETATM    9  C19 UNL     1      44.129   9.496  -1.007  1.00  0.00     0.037 A 
HETATM   10  C20 UNL     1      43.411   8.356  -0.765  1.00  0.00     0.123 A 
HETATM   11  N5  UNL     1      42.555   8.138  -1.807  1.00  0.00    -0.310 N 
HETATM   12  N6  UNL     1      42.736   9.118  -2.677  1.00  0.00    -0.299 N 
ATOM     13  H5  UNL     1      41.899   7.363  -1.898  1.00  0.00     0.186 HD
HETATM   14  C21 UNL     1      43.699   9.973  -2.216  1.00  0.00     0.072 A 
ATOM     15  H6  UNL     1      42.233   9.220  -3.558  1.00  0.00     0.187 HD
BRANCH  14  16
HETATM   16  C22 UNL     1      44.213  11.179  -2.848  1.00  0.00    -0.007 A 
HETATM   17  C23 UNL     1      43.606  12.411  -2.721  1.00  0.00     0.017 A 
HETATM   18  C24 UNL     1      44.093  13.550  -3.318  1.00  0.00     0.043 A 
HETATM   19  C25 UNL     1      45.239  13.493  -4.088  1.00  0.00     0.116 A 
HETATM   20  F1  UNL     1      45.720  14.612  -4.678  1.00  0.00    -0.206 F 
HETATM   21  C26 UNL     1      45.868  12.272  -4.232  1.00  0.00     0.043 A 
HETATM   22  C27 UNL     1      45.359  11.129  -3.618  1.00  0.00     0.017 A 
ENDBRANCH  14  16
ENDBRANCH   6   9
BRANCH   4  23
HETATM   23  C10 UNL     1      45.688  13.165   1.858  1.00  0.00    -0.006 A 
HETATM   24  C11 UNL     1      44.650  13.989   1.525  1.00  0.00     0.016 A 
HETATM   25  C12 UNL     1      44.487  15.232   2.153  1.00  0.00     0.033 A 
HETATM   26  C13 UNL     1      45.371  15.646   3.119  1.00  0.00     0.060 A 
HETATM   27  N3  UNL     1      45.464  16.764   3.877  1.00  0.00    -0.351 N 
HETATM   28  C15 UNL     1      46.426  14.815   3.460  1.00  0.00     0.060 A 
HETATM   29  C14 UNL     1      46.543  16.639   4.668  1.00  0.00     0.181 A 
ATOM     30  H3  UNL     1      44.828  17.561   3.852  1.00  0.00     0.166 HD
HETATM   31  N4  UNL     1      47.120  15.460   4.413  1.00  0.00    -0.350 N 
ATOM     32  H4  UNL     1      47.960  15.104   4.871  1.00  0.00     0.166 HD
HETATM   33  C16 UNL     1      46.564  13.593   2.825  1.00  0.00     0.045 A 
ENDBRANCH   4  23
BRANCH   1  34
HETATM   34  N1  UNL     1      48.361   9.359   1.087  1.00  0.00    -0.192 N 
ATOM     35  H1  UNL     1      49.146   9.547   0.465  1.00  0.00     0.184 HD
BRANCH  34  36
HETATM   36  C7  UNL     1      48.544   8.402   2.117  1.00  0.00     0.049 A 
HETATM   37  C6  UNL     1      47.536   7.855   2.843  1.00  0.00     0.033 A 
HETATM   38  C5  UNL     1      47.807   6.933   3.821  1.00  0.00     0.039 A 
HETATM   39  C4  UNL     1      49.110   6.506   4.126  1.00  0.00     0.068 A 
HETATM   40  C29 UNL     1      50.123   7.066   3.385  1.00  0.00     0.039 A 
HETATM   41  C28 UNL     1      49.831   8.009   2.387  1.00  0.00     0.033 A 
BRANCH  39  42
HETATM   42  O1  UNL     1      49.243   5.587   5.116  1.00  0.00    -0.351 OA
BRANCH  42  43
HETATM   43  C3  UNL     1      49.999   4.459   5.264  1.00  0.00     0.175 C 
BRANCH  43  44
HETATM   44  C2  UNL     1      51.298   4.716   5.973  1.00  0.00     0.022 C 
HETATM   45  C1  UNL     1      51.426   3.851   7.224  1.00  0.00     0.007 C 
ENDBRANCH  43  44
ENDBRANCH  42  43
ENDBRANCH  39  42
ENDBRANCH  34  36
ENDBRANCH   1  34
TORSDOF 8
ENDMDL
MODEL 2
REMARK VINA RESULT: -8.488955711      0.706      1.159
REMARK  8 active torsions:
REMARK  status: ('A' for Active; 'I' for Inactive)
REMARK    1  A    between atoms: C2_2  and  C3_3 
REMARK    2  A    between atoms: C3_3  and  O1_4 
REMARK    3  A    between atoms: O1_4  and  C4_5 
REMARK    4  A    between atoms: C7_8  and  N1_9 
REMARK    5  A    between atoms: N1_9  and  C8_11 
REMARK    6  A    between atoms: C9_14  and  C10_15 
REMARK    7  A    between atoms: C18_27  and  C19_28 
REMARK    8  A    between atoms: C21_34  and  C22_35 
ROOT
HETATM    1  C8  UNL     1      47.482   9.653   1.006  1.00  0.00     0.683 A 
HETATM    2  N2  UNL     1      47.405  10.795   1.683  1.00  0.00    -0.191 N 
ATOM      3  H2  UNL     1      48.163  11.070   2.307  1.00  0.00     0.184 HD
HETATM    4  C9  UNL     1      46.324  11.592   1.544  1.00  0.00     0.061 A 
HETATM    5  C17 UNL     1      45.301  11.234   0.709  1.00  0.00     0.062 A 
HETATM    6  C18 UNL     1      45.385  10.033  -0.002  1.00  0.00     0.065 A 
HETATM    7  N7  UNL     1      46.485   9.297   0.186  1.00  0.00    -0.191 N 
ATOM      8  H7  UNL     1      46.569   8.417  -0.322  1.00  0.00     0.184 HD
ENDROOT
BRANCH   6   9
HETATM    9  C19 UNL     1      44.315   9.626  -0.898  1.00  0.00     0.037 A 
HETATM   10  C20 UNL     1      43.521   8.517  -0.781  1.00  0.00     0.123 A 
HETATM   11  N5  UNL     1      42.636   8.491  -1.821  1.00  0.00    -0.310 N 
HETATM   12  N6  UNL     1      42.872   9.557  -2.566  1.00  0.00    -0.299 N 
ATOM     13  H5  UNL     1      41.924   7.780  -1.991  1.00  0.00     0.186 HD
HETATM   14  C21 UNL     1      43.901  10.280  -2.027  1.00  0.00     0.072 A 
ATOM     15  H6  UNL     1      42.363   9.804  -3.414  1.00  0.00     0.187 HD
BRANCH  14  16
HETATM   16  C22 UNL     1      44.489  11.517  -2.516  1.00  0.00    -0.007 A 
HETATM   17  C23 UNL     1      43.980  12.762  -2.213  1.00  0.00     0.017 A 
HETATM   18  C24 UNL     1      44.537  13.931  -2.676  1.00  0.00     0.043 A 
HETATM   19  C25 UNL     1      45.657  13.893  -3.484  1.00  0.00     0.116 A 
HETATM   20  F1  UNL     1      46.208  15.041  -3.942  1.00  0.00    -0.206 F 
HETATM   21  C26 UNL     1      46.189  12.659  -3.804  1.00  0.00     0.043 A 
HETATM   22  C27 UNL     1      45.609  11.485  -3.324  1.00  0.00     0.017 A 
ENDBRANCH  14  16
ENDBRANCH   6   9
BRANCH   4  23
HETATM   23  C10 UNL     1      46.227  12.844   2.278  1.00  0.00    -0.006 A 
HETATM   24  C11 UNL     1      46.836  13.065   3.482  1.00  0.00     0.016 A 
HETATM   25  C12 UNL     1      46.704  14.294   4.143  1.00  0.00     0.033 A 
HETATM   26  C13 UNL     1      45.955  15.304   3.591  1.00  0.00     0.060 A 
HETATM   27  N3  UNL     1      45.656  16.564   3.988  1.00  0.00    -0.351 N 
HETATM   28  C15 UNL     1      45.334  15.087   2.371  1.00  0.00     0.060 A 
HETATM   29  C14 UNL     1      44.872  17.118   3.047  1.00  0.00     0.181 A 
ATOM     30  H3  UNL     1      45.969  17.012   4.848  1.00  0.00     0.166 HD
HETATM   31  N4  UNL     1      44.681  16.223   2.073  1.00  0.00    -0.350 N 
ATOM     32  H4  UNL     1      44.125  16.378   1.232  1.00  0.00     0.166 HD
HETATM   33  C16 UNL     1      45.482  13.864   1.739  1.00  0.00     0.045 A 
ENDBRANCH   4  23
BRANCH   1  34
HETATM   34  N1  UNL     1      48.514   8.884   1.135  1.00  0.00    -0.192 N 
ATOM     35  H1  UNL     1      49.222   8.907   0.401  1.00  0.00     0.184 HD
BRANCH  34  36
HETATM   36  C7  UNL     1      48.724   8.011   2.232  1.00  0.00     0.049 A 
HETATM   37  C6  UNL     1      47.730   7.426   2.947  1.00  0.00     0.033 A 
HETATM   38  C5  UNL     1      48.026   6.592   3.994  1.00  0.00     0.039 A 
HETATM   39  C4  UNL     1      49.343   6.296   4.383  1.00  0.00     0.068 A 
HETATM   40  C29 UNL     1      50.342   6.893   3.651  1.00  0.00     0.039 A 
HETATM   41  C28 UNL     1      50.024   7.744   2.582  1.00  0.00     0.033 A 
BRANCH  39  42
HETATM   42  O1  UNL     1      49.501   5.453   5.435  1.00  0.00    -0.351 OA
BRANCH  42  43
HETATM   43  C3  UNL     1      50.209   4.301   5.626  1.00  0.00     0.175 C 
BRANCH  43  44
HETATM   44  C2  UNL     1      51.485   4.520   6.389  1.00  0.00     0.022 C 
HETATM   45  C1  UNL     1      51.523   3.670   7.657  1.00  0.00     0.007 C 
ENDBRANCH  43  44
ENDBRANCH  42  43
ENDBRANCH  39  42
ENDBRANCH  34  36
ENDBRANCH   1  34
TORSDOF 8
ENDMDL
MODEL 3
REMARK VINA RESULT: -8.423314242      0.263      1.150
REMARK  8 active torsions:
REMARK  status: ('A' for Active; 'I' for Inactive)
REMARK    1  A    between atoms: C2_2  and  C3_3 
REMARK    2  A    between atoms: C3_3  and  O1_4 
REMARK    3  A    between atoms: O1_4  and  C4_5 
REMARK    4  A    between atoms: C7_8  and  N1_9 
REMARK    5  A    between atoms: N1_9  and  C8_11 
REMARK    6  A    between atoms: C9_14  and  C10_15 
REMARK    7  A    between atoms: C18_27  and  C19_28 
REMARK    8  A    between atoms: C21_34  and  C22_35 
ROOT
HETATM    1  C8  UNL     1      47.328  10.066   0.843  1.00  0.00     0.683 A 
HETATM    2  N2  UNL     1      47.120  11.250   1.410  1.00  0.00    -0.191 N 
ATOM      3  H2  UNL     1      47.846  11.672   1.991  1.00  0.00     0.184 HD
HETATM    4  C9  UNL     1      45.951  11.896   1.218  1.00  0.00     0.061 A 
HETATM    5  C17 UNL     1      44.971  11.342   0.441  1.00  0.00     0.062 A 
HETATM    6  C18 UNL     1      45.192  10.096  -0.155  1.00  0.00     0.065 A 
HETATM    7  N7  UNL     1      46.373   9.517   0.080  1.00  0.00    -0.191 N 
ATOM      8  H7  UNL     1      46.558   8.608  -0.345  1.00  0.00     0.184 HD
ENDROOT
BRANCH   6   9
HETATM    9  C19 UNL     1      44.170   9.482  -0.986  1.00  0.00     0.037 A 
HETATM   10  C20 UNL     1      43.464   8.341  -0.715  1.00  0.00     0.123 A 
HETATM   11  N5  UNL     1      42.599   8.097  -1.743  1.00  0.00    -0.310 N 
HETATM   12  N6  UNL     1      42.762   9.061  -2.633  1.00  0.00    -0.299 N 
ATOM     13  H5  UNL     1      41.948   7.315  -1.812  1.00  0.00     0.186 HD
HETATM   14  C21 UNL     1      43.724   9.932  -2.200  1.00  0.00     0.072 A 
ATOM     15  H6  UNL     1      42.249   9.142  -3.510  1.00  0.00     0.187 HD
BRANCH  14  16
HETATM   16  C22 UNL     1      44.221  11.130  -2.860  1.00  0.00    -0.007 A 
HETATM   17  C23 UNL     1      45.425  11.174  -3.530  1.00  0.00     0.017 A 
HETATM   18  C24 UNL     1      45.893  12.306  -4.154  1.00  0.00     0.043 A 
HETATM   19  C25 UNL     1      45.150  13.470  -4.126  1.00  0.00     0.116 A 
HETATM   20  F1  UNL     1      45.608  14.587  -4.739  1.00  0.00    -0.206 F 
HETATM   21  C26 UNL     1      43.939  13.455  -3.462  1.00  0.00     0.043 A 
HETATM   22  C27 UNL     1      43.482  12.297  -2.836  1.00  0.00     0.017 A 
ENDBRANCH  14  16
ENDBRANCH   6   9
BRANCH   4  23
HETATM   23  C10 UNL     1      45.711  13.194   1.833  1.00  0.00    -0.006 A 
HETATM   24  C11 UNL     1      44.669  14.010   1.494  1.00  0.00     0.016 A 
HETATM   25  C12 UNL     1      44.492  15.251   2.122  1.00  0.00     0.033 A 
HETATM   26  C13 UNL     1      45.367  15.671   3.094  1.00  0.00     0.060 A 
HETATM   27  N3  UNL     1      45.446  16.789   3.854  1.00  0.00    -0.351 N 
HETATM   28  C15 UNL     1      46.426  14.848   3.442  1.00  0.00     0.060 A 
HETATM   29  C14 UNL     1      46.520  16.671   4.652  1.00  0.00     0.181 A 
ATOM     30  H3  UNL     1      44.804  17.581   3.826  1.00  0.00     0.166 HD
HETATM   31  N4  UNL     1      47.109  15.497   4.400  1.00  0.00    -0.350 N 
ATOM     32  H4  UNL     1      47.948  15.147   4.863  1.00  0.00     0.166 HD
HETATM   33  C16 UNL     1      46.577  13.627   2.806  1.00  0.00     0.045 A 
ENDBRANCH   4  23
BRANCH   1  34
HETATM   34  N1  UNL     1      48.445   9.439   1.023  1.00  0.00    -0.192 N 
ATOM     35  H1  UNL     1      49.219   9.652   0.394  1.00  0.00     0.184 HD
BRANCH  34  36
HETATM   36  C7  UNL     1      48.662   8.477   2.041  1.00  0.00     0.049 A 
HETATM   37  C6  UNL     1      49.883   8.026   2.422  1.00  0.00     0.033 A 
HETATM   38  C5  UNL     1      49.999   7.092   3.421  1.00  0.00     0.039 A 
HETATM   39  C4  UNL     1      48.888   6.558   4.096  1.00  0.00     0.068 A 
HETATM   40  C29 UNL     1      47.656   7.023   3.702  1.00  0.00     0.039 A 
HETATM   41  C28 UNL     1      47.554   7.978   2.679  1.00  0.00     0.033 A 
BRANCH  39  42
HETATM   42  O1  UNL     1      49.138   5.643   5.066  1.00  0.00    -0.351 OA
BRANCH  42  43
HETATM   43  C3  UNL     1      49.870   4.491   5.114  1.00  0.00     0.175 C 
BRANCH  43  44
HETATM   44  C2  UNL     1      51.041   4.581   6.050  1.00  0.00     0.022 C 
HETATM   45  C1  UNL     1      52.337   4.846   5.289  1.00  0.00     0.007 C 
ENDBRANCH  43  44
ENDBRANCH  42  43
ENDBRANCH  39  42
ENDBRANCH  34  36
ENDBRANCH   1  34
TORSDOF 8
ENDMDL
MODEL 4
REMARK VINA RESULT: -8.416521575      4.483      8.728
REMARK  8 active torsions:
REMARK  status: ('A' for Active; 'I' for Inactive)
REMARK    1  A    between atoms: C2_2  and  C3_3 
REMARK    2  A    between atoms: C3_3  and  O1_4 
REMARK    3  A    between atoms: O1_4  and  C4_5 
REMARK    4  A    between atoms: C7_8  and  N1_9 
REMARK    5  A    between atoms: N1_9  and  C8_11 
REMARK    6  A    between atoms: C9_14  and  C10_15 
REMARK    7  A    between atoms: C18_27  and  C19_28 
REMARK    8  A    between atoms: C21_34  and  C22_35 
ROOT
HETATM    1  C8  UNL     1      44.294  12.233  -2.533  1.00  0.00     0.683 A 
HETATM    2  N2  UNL     1      43.202  11.514  -2.777  1.00  0.00    -0.191 N 
ATOM      3  H2  UNL     1      42.295  11.975  -2.850  1.00  0.00     0.184 HD
HETATM    4  C9  UNL     1      43.292  10.176  -2.928  1.00  0.00     0.061 A 
HETATM    5  C17 UNL     1      44.503   9.547  -2.833  1.00  0.00     0.062 A 
HETATM    6  C18 UNL     1      45.651  10.305  -2.577  1.00  0.00     0.065 A 
HETATM    7  N7  UNL     1      45.483  11.624  -2.440  1.00  0.00    -0.191 N 
ATOM      8  H7  UNL     1      46.306  12.198  -2.254  1.00  0.00     0.184 HD
ENDROOT
BRANCH   6   9
HETATM    9  C19 UNL     1      46.952   9.665  -2.472  1.00  0.00     0.037 A 
HETATM   10  C20 UNL     1      47.581   8.916  -3.429  1.00  0.00     0.123 A 
HETATM   11  N5  UNL     1      48.786   8.494  -2.945  1.00  0.00    -0.310 N 
HETATM   12  N6  UNL     1      48.904   8.967  -1.716  1.00  0.00    -0.299 N 
ATOM     13  H5  UNL     1      49.468   7.919  -3.439  1.00  0.00     0.186 HD
HETATM   14  C21 UNL     1      47.791   9.694  -1.391  1.00  0.00     0.072 A 
ATOM     15  H6  UNL     1      49.705   8.814  -1.103  1.00  0.00     0.187 HD
BRANCH  14  16
HETATM   16  C22 UNL     1      47.498  10.389  -0.147  1.00  0.00    -0.007 A 
HETATM   17  C23 UNL     1      46.728   9.841   0.857  1.00  0.00     0.017 A 
HETATM   18  C24 UNL     1      46.452  10.498   2.033  1.00  0.00     0.043 A 
HETATM   19  C25 UNL     1      46.952  11.768   2.250  1.00  0.00     0.116 A 
HETATM   20  F1  UNL     1      46.682  12.419   3.406  1.00  0.00    -0.206 F 
HETATM   21  C26 UNL     1      47.728  12.341   1.262  1.00  0.00     0.043 A 
HETATM   22  C27 UNL     1      47.996  11.658   0.077  1.00  0.00     0.017 A 
ENDBRANCH  14  16
ENDBRANCH   6   9
BRANCH   4  23
HETATM   23  C10 UNL     1      42.105   9.379  -3.195  1.00  0.00    -0.006 A 
HETATM   24  C11 UNL     1      42.112   8.240  -3.951  1.00  0.00     0.016 A 
HETATM   25  C12 UNL     1      40.933   7.515  -4.174  1.00  0.00     0.033 A 
HETATM   26  C13 UNL     1      39.743   7.937  -3.634  1.00  0.00     0.060 A 
HETATM   27  N3  UNL     1      38.479   7.455  -3.677  1.00  0.00    -0.351 N 
HETATM   28  C15 UNL     1      39.729   9.091  -2.866  1.00  0.00     0.060 A 
HETATM   29  C14 UNL     1      37.697   8.279  -2.961  1.00  0.00     0.181 A 
ATOM     30  H3  UNL     1      38.174   6.614  -4.168  1.00  0.00     0.166 HD
HETATM   31  N4  UNL     1      38.456   9.265  -2.473  1.00  0.00    -0.350 N 
ATOM     32  H4  UNL     1      38.121  10.034  -1.891  1.00  0.00     0.166 HD
HETATM   33  C16 UNL     1      40.907   9.788  -2.661  1.00  0.00     0.045 A 
ENDBRANCH   4  23
BRANCH   1  34
HETATM   34  N1  UNL     1      44.216  13.516  -2.386  1.00  0.00    -0.192 N 
ATOM     35  H1  UNL     1      44.127  14.088  -3.225  1.00  0.00     0.184 HD
BRANCH  34  36
HETATM   36  C7  UNL     1      44.246  14.175  -1.132  1.00  0.00     0.049 A 
HETATM   37  C6  UNL     1      44.626  13.591   0.032  1.00  0.00     0.033 A 
HETATM   38  C5  UNL     1      44.626  14.309   1.202  1.00  0.00     0.039 A 
HETATM   39  C4  UNL     1      44.243  15.659   1.267  1.00  0.00     0.068 A 
HETATM   40  C29 UNL     1      43.861  16.241   0.081  1.00  0.00     0.039 A 
HETATM   41  C28 UNL     1      43.866  15.494  -1.107  1.00  0.00     0.033 A 
BRANCH  39  42
HETATM   42  O1  UNL     1      44.290  16.255   2.485  1.00  0.00    -0.351 OA
BRANCH  42  43
HETATM   43  C3  UNL     1      45.216  16.286   3.488  1.00  0.00     0.175 C 
BRANCH  43  44
HETATM   44  C2  UNL     1      46.475  17.006   3.098  1.00  0.00     0.022 C 
HETATM   45  C1  UNL     1      47.713  16.183   3.448  1.00  0.00     0.007 C 
ENDBRANCH  43  44
ENDBRANCH  42  43
ENDBRANCH  39  42
ENDBRANCH  34  36
ENDBRANCH   1  34
TORSDOF 8
ENDMDL
MODEL 5
REMARK VINA RESULT: -8.319968149      2.389      3.159
REMARK  8 active torsions:
REMARK  status: ('A' for Active; 'I' for Inactive)
REMARK    1  A    between atoms: C2_2  and  C3_3 
REMARK    2  A    between atoms: C3_3  and  O1_4 
REMARK    3  A    between atoms: O1_4  and  C4_5 
REMARK    4  A    between atoms: C7_8  and  N1_9 
REMARK    5  A    between atoms: N1_9  and  C8_11 
REMARK    6  A    between atoms: C9_14  and  C10_15 
REMARK    7  A    between atoms: C18_27  and  C19_28 
REMARK    8  A    between atoms: C21_34  and  C22_35 
ROOT
HETATM    1  C8  UNL     1      47.541   9.615   1.837  1.00  0.00     0.683 A 
HETATM    2  N2  UNL     1      47.016  10.744   2.304  1.00  0.00    -0.191 N 
ATOM      3  H2  UNL     1      46.808  10.837   3.298  1.00  0.00     0.184 HD
HETATM    4  C9  UNL     1      46.759  11.768   1.463  1.00  0.00     0.061 A 
HETATM    5  C17 UNL     1      47.035  11.656   0.127  1.00  0.00     0.062 A 
HETATM    6  C18 UNL     1      47.588  10.468  -0.361  1.00  0.00     0.065 A 
HETATM    7  N7  UNL     1      47.815   9.499   0.531  1.00  0.00    -0.191 N 
ATOM      8  H7  UNL     1      48.218   8.623   0.199  1.00  0.00     0.184 HD
ENDROOT
BRANCH   6   9
HETATM    9  C19 UNL     1      47.892  10.319  -1.774  1.00  0.00     0.037 A 
HETATM   10  C20 UNL     1      49.108  10.500  -2.378  1.00  0.00     0.123 A 
HETATM   11  N5  UNL     1      48.980  10.264  -3.717  1.00  0.00    -0.310 N 
HETATM   12  N6  UNL     1      47.717   9.944  -3.942  1.00  0.00    -0.299 N 
ATOM     13  H5  UNL     1      49.721  10.324  -4.414  1.00  0.00     0.186 HD
HETATM   14  C21 UNL     1      47.017   9.969  -2.766  1.00  0.00     0.072 A 
ATOM     15  H6  UNL     1      47.324   9.714  -4.854  1.00  0.00     0.187 HD
BRANCH  14  16
HETATM   16  C22 UNL     1      45.606   9.685  -2.549  1.00  0.00    -0.007 A 
HETATM   17  C23 UNL     1      44.608  10.600  -2.808  1.00  0.00     0.017 A 
HETATM   18  C24 UNL     1      43.275  10.331  -2.603  1.00  0.00     0.043 A 
HETATM   19  C25 UNL     1      42.884   9.099  -2.115  1.00  0.00     0.116 A 
HETATM   20  F1  UNL     1      41.573   8.830  -1.911  1.00  0.00    -0.206 F 
HETATM   21  C26 UNL     1      43.864   8.162  -1.848  1.00  0.00     0.043 A 
HETATM   22  C27 UNL     1      45.209   8.455  -2.062  1.00  0.00     0.017 A 
ENDBRANCH  14  16
ENDBRANCH   6   9
BRANCH   4  23
HETATM   23  C10 UNL     1      46.185  13.010   1.961  1.00  0.00    -0.006 A 
HETATM   24  C11 UNL     1      45.076  13.599   1.422  1.00  0.00     0.016 A 
HETATM   25  C12 UNL     1      44.570  14.797   1.945  1.00  0.00     0.033 A 
HETATM   26  C13 UNL     1      45.184  15.404   3.014  1.00  0.00     0.060 A 
HETATM   27  N3  UNL     1      44.929  16.536   3.713  1.00  0.00    -0.351 N 
HETATM   28  C15 UNL     1      46.309  14.812   3.564  1.00  0.00     0.060 A 
HETATM   29  C14 UNL     1      45.864  16.649   4.671  1.00  0.00     0.181 A 
ATOM     30  H3  UNL     1      44.162  17.186   3.543  1.00  0.00     0.166 HD
HETATM   31  N4  UNL     1      46.695  15.606   4.577  1.00  0.00    -0.350 N 
ATOM     32  H4  UNL     1      47.500  15.438   5.182  1.00  0.00     0.166 HD
HETATM   33  C16 UNL     1      46.787  13.628   3.029  1.00  0.00     0.045 A 
ENDBRANCH   4  23
BRANCH   1  34
HETATM   34  N1  UNL     1      47.790   8.628   2.636  1.00  0.00    -0.192 N 
ATOM     35  H1  UNL     1      47.016   8.247   3.180  1.00  0.00     0.184 HD
BRANCH  34  36
HETATM   36  C7  UNL     1      49.070   8.044   2.803  1.00  0.00     0.049 A 
HETATM   37  C6  UNL     1      49.589   7.090   1.990  1.00  0.00     0.033 A 
HETATM   38  C5  UNL     1      50.841   6.582   2.227  1.00  0.00     0.039 A 
HETATM   39  C4  UNL     1      51.645   7.005   3.299  1.00  0.00     0.068 A 
HETATM   40  C29 UNL     1      51.109   7.972   4.116  1.00  0.00     0.039 A 
HETATM   41  C28 UNL     1      49.827   8.483   3.861  1.00  0.00     0.033 A 
BRANCH  39  42
HETATM   42  O1  UNL     1      52.865   6.424   3.422  1.00  0.00    -0.351 OA
BRANCH  42  43
HETATM   43  C3  UNL     1      53.292   5.130   3.506  1.00  0.00     0.175 C 
BRANCH  43  44
HETATM   44  C2  UNL     1      53.631   4.717   4.910  1.00  0.00     0.022 C 
HETATM   45  C1  UNL     1      52.381   4.292   5.677  1.00  0.00     0.007 C 
ENDBRANCH  43  44
ENDBRANCH  42  43
ENDBRANCH  39  42
ENDBRANCH  34  36
ENDBRANCH   1  34
TORSDOF 8
ENDMDL
