MODEL 1
REMARK VINA RESULT: -9.923151405      0.000      0.000
REMARK  6 active torsions:
REMARK  status: ('A' for Active; 'I' for Inactive)
REMARK    1  A    between atoms: C7_7  and  C8_8 
REMARK    2  A    between atoms: C11_11  and  S1_12 
REMARK    3  A    between atoms: S1_12  and  C12_13 
REMARK    4  A    between atoms: C12_13  and  C13_14 
REMARK    5  A    between atoms: C13_14  and  N1_15 
REMARK    6  A    between atoms: C14_18  and  C15_19 
ROOT
HETATM    1  N1  UNL     1      48.031   8.409   0.499  1.00  0.00    -0.276 N 
HETATM    2  N2  UNL     1      48.062   7.115   0.380  1.00  0.00    -0.292 N 
ATOM      3  H2  UNL     1      47.866   6.481  -0.394  1.00  0.00     0.187 HD
HETATM    4  C14 UNL     1      48.456   6.917   1.686  1.00  0.00     0.120 A 
HETATM    5  C28 UNL     1      48.418   8.280   1.792  1.00  0.00     0.163 A 
HETATM    6  N5  UNL     1      48.669   9.356   2.705  1.00  0.00    -0.079 NA
ENDROOT
BRANCH   4   7
HETATM    7  C15 UNL     1      48.848   5.726   2.416  1.00  0.00     0.092 A 
HETATM    8  N3  UNL     1      47.934   4.836   2.836  1.00  0.00    -0.297 N 
HETATM    9  N4  UNL     1      48.522   3.849   3.316  1.00  0.00    -0.299 N 
ATOM     10  H3  UNL     1      46.922   4.950   2.773  1.00  0.00     0.187 HD
HETATM   11  C16 UNL     1      49.918   3.995   3.263  1.00  0.00     0.060 A 
ATOM     12  H4  UNL     1      48.047   3.032   3.701  1.00  0.00     0.187 HD
HETATM   13  C17 UNL     1      50.161   5.203   2.687  1.00  0.00     0.022 A 
HETATM   14  C27 UNL     1      50.668   2.872   3.807  1.00  0.00     0.035 C 
HETATM   15  C18 UNL     1      51.361   5.994   2.419  1.00  0.00     0.017 C 
HETATM   16  C19 UNL     1      52.629   6.062   2.745  1.00  0.00     0.013 C 
HETATM   17  C20 UNL     1      53.220   5.081   3.692  1.00  0.00    -0.025 A 
HETATM   18  C21 UNL     1      53.871   4.203   4.426  1.00  0.00     0.024 A 
HETATM   19  C22 UNL     1      52.596   4.690   4.854  1.00  0.00    -0.025 A 
HETATM   20  C23 UNL     1      51.512   4.988   5.588  1.00  0.00     0.015 C 
HETATM   21  C24 UNL     1      51.245   4.138   6.792  1.00  0.00     0.043 C 
HETATM   22  C25 UNL     1      51.031   2.831   6.362  1.00  0.00     0.116 C 
HETATM   23  F1  UNL     1      50.776   1.945   7.347  1.00  0.00    -0.206 F 
HETATM   24  C26 UNL     1      51.091   2.426   4.959  1.00  0.00     0.044 C 
ENDBRANCH   4   7
BRANCH   1  25
HETATM   25  C13 UNL     1      47.740   9.513  -0.400  1.00  0.00     0.161 C 
BRANCH  25  26
HETATM   26  C12 UNL     1      46.350   9.372  -0.992  1.00  0.00     0.101 C 
BRANCH  26  27
HETATM   27  S1  UNL     1      45.126   9.713   0.306  1.00  0.00    -0.127 SA
BRANCH  27  28
HETATM   28  C11 UNL     1      45.484  11.298   1.075  1.00  0.00     0.016 A 
HETATM   29  C10 UNL     1      46.160  11.441   2.251  1.00  0.00     0.022 A 
HETATM   30  C9  UNL     1      46.380  12.711   2.761  1.00  0.00     0.032 A 
HETATM   31  C8  UNL     1      45.917  13.817   2.079  1.00  0.00     0.042 A 
HETATM   32  N6  UNL     1      45.273  13.636   0.952  1.00  0.00    -0.364 N 
HETATM   33  C29 UNL     1      45.047  12.430   0.439  1.00  0.00     0.106 A 
ATOM     34  H6  UNL     1      44.931  14.453   0.448  1.00  0.00     0.165 HD
BRANCH  31  35
HETATM   35  C7  UNL     1      46.163  15.158   2.625  1.00  0.00    -0.004 A 
HETATM   36  C2  UNL     1      45.251  16.182   2.408  1.00  0.00    -0.050 A 
HETATM   37  C1  UNL     1      43.995  15.993   1.651  1.00  0.00     0.049 C 
HETATM   38  C3  UNL     1      45.556  17.444   2.938  1.00  0.00     0.007 A 
HETATM   39  C4  UNL     1      46.699  17.701   3.650  1.00  0.00     0.001 A 
HETATM   40  C5  UNL     1      47.586  16.701   3.861  1.00  0.00     0.001 A 
HETATM   41  C6  UNL     1      47.298  15.431   3.337  1.00  0.00     0.014 A 
ENDBRANCH  31  35
ENDBRANCH  27  28
ENDBRANCH  26  27
ENDBRANCH  25  26
ENDBRANCH   1  25
TORSDOF 6
ENDMDL
MODEL 2
REMARK VINA RESULT: -9.911820320      4.808      9.887
REMARK  6 active torsions:
REMARK  status: ('A' for Active; 'I' for Inactive)
REMARK    1  A    between atoms: C7_7  and  C8_8 
REMARK    2  A    between atoms: C11_11  and  S1_12 
REMARK    3  A    between atoms: S1_12  and  C12_13 
REMARK    4  A    between atoms: C12_13  and  C13_14 
REMARK    5  A    between atoms: C13_14  and  N1_15 
REMARK    6  A    between atoms: C14_18  and  C15_19 
ROOT
HETATM    1  N1  UNL     1      43.728  13.446  -3.147  1.00  0.00    -0.276 N 
HETATM    2  N2  UNL     1      43.043  14.207  -2.346  1.00  0.00    -0.292 N 
ATOM      3  H2  UNL     1      42.085  14.554  -2.363  1.00  0.00     0.187 HD
HETATM    4  C14 UNL     1      44.092  14.372  -1.467  1.00  0.00     0.120 A 
HETATM    5  C28 UNL     1      44.796  13.569  -2.321  1.00  0.00     0.163 A 
HETATM    6  N5  UNL     1      46.071  12.940  -2.497  1.00  0.00    -0.079 NA
ENDROOT
BRANCH   4   7
HETATM    7  C15 UNL     1      44.185  15.018  -0.171  1.00  0.00     0.092 A 
HETATM    8  N3  UNL     1      43.703  16.257   0.025  1.00  0.00    -0.297 N 
HETATM    9  N4  UNL     1      43.783  16.535   1.236  1.00  0.00    -0.299 N 
ATOM     10  H3  UNL     1      43.331  16.870  -0.700  1.00  0.00     0.187 HD
HETATM   11  C16 UNL     1      44.345  15.483   1.978  1.00  0.00     0.060 A 
ATOM     12  H4  UNL     1      43.478  17.420   1.641  1.00  0.00     0.187 HD
HETATM   13  C17 UNL     1      44.619  14.486   1.094  1.00  0.00     0.022 A 
HETATM   14  C27 UNL     1      44.465  15.743   3.405  1.00  0.00     0.035 C 
HETATM   15  C18 UNL     1      45.274  13.182   1.182  1.00  0.00     0.017 C 
HETATM   16  C19 UNL     1      46.039  12.479   1.983  1.00  0.00     0.013 C 
HETATM   17  C20 UNL     1      46.482  13.036   3.287  1.00  0.00    -0.025 A 
HETATM   18  C21 UNL     1      46.838  13.382   4.506  1.00  0.00     0.024 A 
HETATM   19  C22 UNL     1      46.937  14.326   3.437  1.00  0.00    -0.025 A 
HETATM   20  C23 UNL     1      47.246  15.399   2.691  1.00  0.00     0.015 C 
HETATM   21  C24 UNL     1      47.631  16.651   3.418  1.00  0.00     0.043 C 
HETATM   22  C25 UNL     1      46.544  17.057   4.188  1.00  0.00     0.116 C 
HETATM   23  F1  UNL     1      46.747  18.182   4.904  1.00  0.00    -0.206 F 
HETATM   24  C26 UNL     1      45.279  16.327   4.243  1.00  0.00     0.044 C 
ENDBRANCH   4   7
BRANCH   1  25
HETATM   25  C13 UNL     1      43.437  12.738  -4.382  1.00  0.00     0.161 C 
BRANCH  25  26
HETATM   26  C12 UNL     1      42.488  11.582  -4.130  1.00  0.00     0.101 C 
BRANCH  26  27
HETATM   27  S1  UNL     1      43.396  10.023  -4.344  1.00  0.00    -0.127 SA
BRANCH  27  28
HETATM   28  C11 UNL     1      44.364   9.679  -2.869  1.00  0.00     0.016 A 
HETATM   29  C10 UNL     1      44.009  10.073  -1.613  1.00  0.00     0.022 A 
HETATM   30  C9  UNL     1      44.831   9.760  -0.542  1.00  0.00     0.032 A 
HETATM   31  C8  UNL     1      45.998   9.054  -0.752  1.00  0.00     0.042 A 
HETATM   32  N6  UNL     1      46.302   8.693  -1.975  1.00  0.00    -0.364 N 
HETATM   33  C29 UNL     1      45.533   8.980  -3.021  1.00  0.00     0.106 A 
ATOM     34  H6  UNL     1      47.164   8.171  -2.131  1.00  0.00     0.165 HD
BRANCH  31  35
HETATM   35  C7  UNL     1      46.857   8.721   0.391  1.00  0.00    -0.004 A 
HETATM   36  C2  UNL     1      47.950   9.519   0.704  1.00  0.00    -0.050 A 
HETATM   37  C1  UNL     1      48.302  10.735  -0.060  1.00  0.00     0.049 C 
HETATM   38  C3  UNL     1      48.742   9.133   1.795  1.00  0.00     0.007 A 
HETATM   39  C4  UNL     1      48.484   8.020   2.552  1.00  0.00     0.001 A 
HETATM   40  C5  UNL     1      47.417   7.244   2.245  1.00  0.00     0.001 A 
HETATM   41  C6  UNL     1      46.613   7.614   1.156  1.00  0.00     0.014 A 
ENDBRANCH  31  35
ENDBRANCH  27  28
ENDBRANCH  26  27
ENDBRANCH  25  26
ENDBRANCH   1  25
TORSDOF 6
ENDMDL
MODEL 3
REMARK VINA RESULT: -9.902553704      2.576      3.927
REMARK  6 active torsions:
REMARK  status: ('A' for Active; 'I' for Inactive)
REMARK    1  A    between atoms: C7_7  and  C8_8 
REMARK    2  A    between atoms: C11_11  and  S1_12 
REMARK    3  A    between atoms: S1_12  and  C12_13 
REMARK    4  A    between atoms: C12_13  and  C13_14 
REMARK    5  A    between atoms: C13_14  and  N1_15 
REMARK    6  A    between atoms: C14_18  and  C15_19 
ROOT
HETATM    1  N1  UNL     1      51.912   7.154   1.311  1.00  0.00    -0.276 N 
HETATM    2  N2  UNL     1      52.243   5.899   1.373  1.00  0.00    -0.292 N 
ATOM      3  H2  UNL     1      52.390   5.181   0.664  1.00  0.00     0.187 HD
HETATM    4  C14 UNL     1      52.321   5.898   2.749  1.00  0.00     0.120 A 
HETATM    5  C28 UNL     1      51.972   7.217   2.664  1.00  0.00     0.163 A 
HETATM    6  N5  UNL     1      51.747   8.387   3.461  1.00  0.00    -0.079 NA
ENDROOT
BRANCH   4   7
HETATM    7  C15 UNL     1      52.753   4.891   3.700  1.00  0.00     0.092 A 
HETATM    8  N3  UNL     1      54.055   4.606   3.868  1.00  0.00    -0.297 N 
HETATM    9  N4  UNL     1      54.175   3.812   4.819  1.00  0.00    -0.299 N 
ATOM     10  H3  UNL     1      54.821   4.979   3.306  1.00  0.00     0.187 HD
HETATM   11  C16 UNL     1      52.933   3.482   5.386  1.00  0.00     0.060 A 
ATOM     12  H4  UNL     1      55.069   3.445   5.148  1.00  0.00     0.187 HD
HETATM   13  C17 UNL     1      51.990   4.163   4.680  1.00  0.00     0.022 A 
HETATM   14  C27 UNL     1      53.003   2.558   6.508  1.00  0.00     0.035 C 
HETATM   15  C18 UNL     1      50.529   4.205   4.686  1.00  0.00     0.017 C 
HETATM   16  C19 UNL     1      49.494   3.542   5.142  1.00  0.00     0.013 C 
HETATM   17  C20 UNL     1      49.682   2.309   5.949  1.00  0.00    -0.025 A 
HETATM   18  C21 UNL     1      49.731   1.276   6.765  1.00  0.00     0.024 A 
HETATM   19  C22 UNL     1      50.590   1.329   5.623  1.00  0.00    -0.025 A 
HETATM   20  C23 UNL     1      51.440   1.004   4.636  1.00  0.00     0.015 C 
HETATM   21  C24 UNL     1      52.307  -0.199   4.846  1.00  0.00     0.043 C 
HETATM   22  C25 UNL     1      53.122   0.041   5.949  1.00  0.00     0.116 C 
HETATM   23  F1  UNL     1      53.964  -0.966   6.261  1.00  0.00    -0.206 F 
HETATM   24  C26 UNL     1      53.073   1.273   6.733  1.00  0.00     0.044 C 
ENDBRANCH   4   7
BRANCH   1  25
HETATM   25  C13 UNL     1      51.636   8.088   0.232  1.00  0.00     0.161 C 
BRANCH  25  26
HETATM   26  C12 UNL     1      50.328   7.745  -0.456  1.00  0.00     0.101 C 
BRANCH  26  27
HETATM   27  S1  UNL     1      49.016   7.655   0.797  1.00  0.00    -0.127 SA
BRANCH  27  28
HETATM   28  C11 UNL     1      48.299   9.284   1.041  1.00  0.00     0.016 A 
HETATM   29  C10 UNL     1      48.551  10.359   0.239  1.00  0.00     0.022 A 
HETATM   30  C9  UNL     1      47.948  11.575   0.519  1.00  0.00     0.032 A 
HETATM   31  C8  UNL     1      47.100  11.691   1.602  1.00  0.00     0.042 A 
HETATM   32  N6  UNL     1      46.884  10.634   2.346  1.00  0.00    -0.364 N 
HETATM   33  C29 UNL     1      47.448   9.455   2.102  1.00  0.00     0.106 A 
ATOM     34  H6  UNL     1      46.257  10.720   3.146  1.00  0.00     0.165 HD
BRANCH  31  35
HETATM   35  C7  UNL     1      46.461  12.983   1.884  1.00  0.00    -0.004 A 
HETATM   36  C2  UNL     1      45.281  13.336   1.242  1.00  0.00    -0.050 A 
HETATM   37  C1  UNL     1      44.596  12.453   0.274  1.00  0.00     0.049 C 
HETATM   38  C3  UNL     1      44.734  14.593   1.540  1.00  0.00     0.007 A 
HETATM   39  C4  UNL     1      45.308  15.469   2.423  1.00  0.00     0.001 A 
HETATM   40  C5  UNL     1      46.457  15.122   3.048  1.00  0.00     0.001 A 
HETATM   41  C6  UNL     1      47.020  13.868   2.762  1.00  0.00     0.014 A 
ENDBRANCH  31  35
ENDBRANCH  27  28
ENDBRANCH  26  27
ENDBRANCH  25  26
ENDBRANCH   1  25
TORSDOF 6
ENDMDL
MODEL 4
REMARK VINA RESULT: -9.709628920      1.693      2.441
REMARK  6 active torsions:
REMARK  status: ('A' for Active; 'I' for Inactive)
REMARK    1  A    between atoms: C7_7  and  C8_8 
REMARK    2  A    between atoms: C11_11  and  S1_12 
REMARK    3  A    between atoms: S1_12  and  C12_13 
REMARK    4  A    between atoms: C12_13  and  C13_14 
REMARK    5  A    between atoms: C13_14  and  N1_15 
REMARK    6  A    between atoms: C14_18  and  C15_19 
ROOT
HETATM    1  N1  UNL     1      47.994   7.982   0.179  1.00  0.00    -0.276 N 
HETATM    2  N2  UNL     1      48.417   6.852   0.660  1.00  0.00    -0.292 N 
ATOM      3  H2  UNL     1      48.026   5.910   0.677  1.00  0.00     0.187 HD
HETATM    4  C14 UNL     1      49.590   7.395   1.138  1.00  0.00     0.120 A 
HETATM    5  C28 UNL     1      49.128   8.576   0.626  1.00  0.00     0.163 A 
HETATM    6  N5  UNL     1      49.481   9.953   0.449  1.00  0.00    -0.079 NA
ENDROOT
BRANCH   4   7
HETATM    7  C15 UNL     1      50.761   6.798   1.752  1.00  0.00     0.092 A 
HETATM    8  N3  UNL     1      51.947   6.784   1.121  1.00  0.00    -0.297 N 
HETATM    9  N4  UNL     1      52.813   6.340   1.898  1.00  0.00    -0.299 N 
ATOM     10  H3  UNL     1      52.111   7.088   0.161  1.00  0.00     0.187 HD
HETATM   11  C16 UNL     1      52.271   6.004   3.149  1.00  0.00     0.060 A 
ATOM     12  H4  UNL     1      53.798   6.233   1.654  1.00  0.00     0.187 HD
HETATM   13  C17 UNL     1      50.942   6.287   3.086  1.00  0.00     0.022 A 
HETATM   14  C27 UNL     1      53.233   5.480   4.107  1.00  0.00     0.035 C 
HETATM   15  C18 UNL     1      49.805   6.099   3.985  1.00  0.00     0.017 C 
HETATM   16  C19 UNL     1      49.462   5.448   5.071  1.00  0.00     0.013 C 
HETATM   17  C20 UNL     1      50.434   4.558   5.756  1.00  0.00    -0.025 A 
HETATM   18  C21 UNL     1      51.242   3.837   6.506  1.00  0.00     0.024 A 
HETATM   19  C22 UNL     1      51.252   3.680   5.085  1.00  0.00    -0.025 A 
HETATM   20  C23 UNL     1      51.457   3.213   3.842  1.00  0.00     0.015 C 
HETATM   21  C24 UNL     1      52.611   2.279   3.643  1.00  0.00     0.043 C 
HETATM   22  C25 UNL     1      53.781   2.962   3.961  1.00  0.00     0.116 C 
HETATM   23  F1  UNL     1      54.913   2.238   3.827  1.00  0.00    -0.206 F 
HETATM   24  C26 UNL     1      53.805   4.348   4.422  1.00  0.00     0.044 C 
ENDBRANCH   4   7
BRANCH   1  25
HETATM   25  C13 UNL     1      46.814   8.403  -0.559  1.00  0.00     0.161 C 
BRANCH  25  26
HETATM   26  C12 UNL     1      45.629   8.574   0.373  1.00  0.00     0.101 C 
BRANCH  26  27
HETATM   27  S1  UNL     1      44.656  10.006  -0.177  1.00  0.00    -0.127 SA
BRANCH  27  28
HETATM   28  C11 UNL     1      45.174  11.472   0.724  1.00  0.00     0.016 A 
HETATM   29  C10 UNL     1      46.082  11.463   1.742  1.00  0.00     0.022 A 
HETATM   30  C9  UNL     1      46.409  12.651   2.375  1.00  0.00     0.032 A 
HETATM   31  C8  UNL     1      45.817  13.831   1.973  1.00  0.00     0.042 A 
HETATM   32  N6  UNL     1      44.951  13.797   0.991  1.00  0.00    -0.364 N 
HETATM   33  C29 UNL     1      44.618  12.672   0.365  1.00  0.00     0.106 A 
ATOM     34  H6  UNL     1      44.513  14.669   0.694  1.00  0.00     0.165 HD
BRANCH  31  35
HETATM   35  C7  UNL     1      46.178  15.086   2.647  1.00  0.00    -0.004 A 
HETATM   36  C2  UNL     1      45.369  16.208   2.519  1.00  0.00    -0.050 A 
HETATM   37  C1  UNL     1      44.115  16.210   1.736  1.00  0.00     0.049 C 
HETATM   38  C3  UNL     1      45.781  17.380   3.170  1.00  0.00     0.007 A 
HETATM   39  C4  UNL     1      46.930  17.460   3.913  1.00  0.00     0.001 A 
HETATM   40  C5  UNL     1      47.716  16.364   4.036  1.00  0.00     0.001 A 
HETATM   41  C6  UNL     1      47.320  15.182   3.392  1.00  0.00     0.014 A 
ENDBRANCH  31  35
ENDBRANCH  27  28
ENDBRANCH  26  27
ENDBRANCH  25  26
ENDBRANCH   1  25
TORSDOF 6
ENDMDL
MODEL 5
REMARK VINA RESULT: -9.684265402      1.048      1.179
REMARK  6 active torsions:
REMARK  status: ('A' for Active; 'I' for Inactive)
REMARK    1  A    between atoms: C7_7  and  C8_8 
REMARK    2  A    between atoms: C11_11  and  S1_12 
REMARK    3  A    between atoms: S1_12  and  C12_13 
REMARK    4  A    between atoms: C12_13  and  C13_14 
REMARK    5  A    between atoms: C13_14  and  N1_15 
REMARK    6  A    between atoms: C14_18  and  C15_19 
ROOT
HETATM    1  N1  UNL     1      48.907   8.177   0.791  1.00  0.00    -0.276 N 
HETATM    2  N2  UNL     1      49.146   6.922   0.553  1.00  0.00    -0.292 N 
ATOM      3  H2  UNL     1      49.141   6.359  -0.298  1.00  0.00     0.187 HD
HETATM    4  C14 UNL     1      49.408   6.632   1.875  1.00  0.00     0.120 A 
HETATM    5  C28 UNL     1      49.153   7.956   2.105  1.00  0.00     0.163 A 
HETATM    6  N5  UNL     1      49.129   8.945   3.143  1.00  0.00    -0.079 NA
ENDROOT
BRANCH   4   7
HETATM    7  C15 UNL     1      49.886   5.431   2.533  1.00  0.00     0.092 A 
HETATM    8  N3  UNL     1      49.059   4.658   3.256  1.00  0.00    -0.297 N 
HETATM    9  N4  UNL     1      49.669   3.630   3.606  1.00  0.00    -0.299 N 
ATOM     10  H3  UNL     1      48.089   4.878   3.483  1.00  0.00     0.187 HD
HETATM   11  C16 UNL     1      50.994   3.624   3.140  1.00  0.00     0.060 A 
ATOM     12  H4  UNL     1      49.255   2.882   4.163  1.00  0.00     0.187 HD
HETATM   13  C17 UNL     1      51.167   4.779   2.443  1.00  0.00     0.022 A 
HETATM   14  C27 UNL     1      51.763   2.446   3.512  1.00  0.00     0.035 C 
HETATM   15  C18 UNL     1      52.301   5.427   1.788  1.00  0.00     0.017 C 
HETATM   16  C19 UNL     1      53.610   5.369   1.726  1.00  0.00     0.013 C 
HETATM   17  C20 UNL     1      54.360   4.363   2.520  1.00  0.00    -0.025 A 
HETATM   18  C21 UNL     1      55.115   3.444   3.087  1.00  0.00     0.024 A 
HETATM   19  C22 UNL     1      54.075   4.079   3.835  1.00  0.00    -0.025 A 
HETATM   20  C23 UNL     1      53.289   4.516   4.833  1.00  0.00     0.015 C 
HETATM   21  C24 UNL     1      53.312   3.740   6.114  1.00  0.00     0.043 C 
HETATM   22  C25 UNL     1      52.861   2.450   5.847  1.00  0.00     0.116 C 
HETATM   23  F1  UNL     1      52.828   1.630   6.918  1.00  0.00    -0.206 F 
HETATM   24  C26 UNL     1      52.464   1.995   4.517  1.00  0.00     0.044 C 
ENDBRANCH   4   7
BRANCH   1  25
HETATM   25  C13 UNL     1      48.561   9.326  -0.030  1.00  0.00     0.161 C 
BRANCH  25  26
HETATM   26  C12 UNL     1      47.226   9.113  -0.719  1.00  0.00     0.101 C 
BRANCH  26  27
HETATM   27  S1  UNL     1      45.896   9.387   0.488  1.00  0.00    -0.127 SA
BRANCH  27  28
HETATM   28  C11 UNL     1      46.067  11.021   1.216  1.00  0.00     0.016 A 
HETATM   29  C10 UNL     1      46.650  11.262   2.426  1.00  0.00     0.022 A 
HETATM   30  C9  UNL     1      46.726  12.562   2.899  1.00  0.00     0.032 A 
HETATM   31  C8  UNL     1      46.215  13.601   2.147  1.00  0.00     0.042 A 
HETATM   32  N6  UNL     1      45.665  13.327   0.990  1.00  0.00    -0.364 N 
HETATM   33  C29 UNL     1      45.577  12.089   0.511  1.00  0.00     0.106 A 
ATOM     34  H6  UNL     1      45.287  14.094   0.434  1.00  0.00     0.165 HD
BRANCH  31  35
HETATM   35  C7  UNL     1      46.310  14.975   2.655  1.00  0.00    -0.004 A 
HETATM   36  C2  UNL     1      45.277  15.878   2.433  1.00  0.00    -0.050 A 
HETATM   37  C1  UNL     1      44.039  15.520   1.707  1.00  0.00     0.049 C 
HETATM   38  C3  UNL     1      45.439  17.180   2.926  1.00  0.00     0.007 A 
HETATM   39  C4  UNL     1      46.556  17.590   3.607  1.00  0.00     0.001 A 
HETATM   40  C5  UNL     1      47.560  16.708   3.823  1.00  0.00     0.001 A 
HETATM   41  C6  UNL     1      47.416  15.400   3.336  1.00  0.00     0.014 A 
ENDBRANCH  31  35
ENDBRANCH  27  28
ENDBRANCH  26  27
ENDBRANCH  25  26
ENDBRANCH   1  25
TORSDOF 6
ENDMDL
