MODEL 1
REMARK VINA RESULT: -9.420090452      0.000      0.000
REMARK  7 active torsions:
REMARK  status: ('A' for Active; 'I' for Inactive)
REMARK    1  A    between atoms: N1_2  and  C2_3 
REMARK    2  A    between atoms: N1_2  and  C9_11 
REMARK    3  A    between atoms: C2_3  and  C3_4 
REMARK    4  A    between atoms: C9_11  and  C10_12 
REMARK    5  A    between atoms: C12_14  and  O1_15 
REMARK    6  A    between atoms: O1_15  and  C13_16 
REMARK    7  A    between atoms: C22_32  and  C23_33 
ROOT
HETATM    1  C10 UNL     1      44.445  11.100  -1.190  1.00  0.00    -0.027 A 
HETATM    2  C11 UNL     1      44.951   9.881  -0.740  1.00  0.00     0.046 A 
HETATM    3  C12 UNL     1      45.673   9.784   0.431  1.00  0.00     0.077 A 
HETATM    4  C21 UNL     1      45.898  10.924   1.170  1.00  0.00     0.052 A 
HETATM    5  C22 UNL     1      45.419  12.164   0.771  1.00  0.00     0.011 A 
HETATM    6  C30 UNL     1      44.704  12.206  -0.405  1.00  0.00     0.024 A 
ENDROOT
BRANCH   3   7
HETATM    7  O1  UNL     1      46.139   8.536   0.806  1.00  0.00    -0.311 OA
BRANCH   7   8
HETATM    8  C13 UNL     1      47.471   8.295   1.120  1.00  0.00     0.077 A 
HETATM    9  C14 UNL     1      48.436   8.616   0.190  1.00  0.00     0.039 A 
HETATM   10  C15 UNL     1      49.745   8.371   0.519  1.00  0.00     0.033 A 
HETATM   11  C16 UNL     1      50.052   7.818   1.751  1.00  0.00     0.047 A 
HETATM   12  N2  UNL     1      51.348   7.574   2.078  1.00  0.00    -0.352 N 
HETATM   13  C19 UNL     1      49.088   7.498   2.677  1.00  0.00     0.037 A 
HETATM   14  C17 UNL     1      51.638   7.038   3.273  1.00  0.00     0.182 A 
ATOM     15  H2  UNL     1      52.096   7.796   1.420  1.00  0.00     0.166 HD
HETATM   16  N3  UNL     1      50.689   6.723   4.181  1.00  0.00    -0.338 N 
HETATM   17  C18 UNL     1      49.392   6.947   3.903  1.00  0.00     0.112 A 
ATOM     18  H3  UNL     1      50.955   6.317   5.077  1.00  0.00     0.168 HD
HETATM   19  N4  UNL     1      48.456   6.659   4.749  1.00  0.00    -0.385 N 
ATOM     20  H42 UNL     1      48.680   6.252   5.657  1.00  0.00     0.157 HD
ATOM     21  H41 UNL     1      47.473   6.829   4.537  1.00  0.00     0.157 HD
HETATM   22  C20 UNL     1      47.772   7.744   2.349  1.00  0.00     0.054 A 
ENDBRANCH   7   8
ENDBRANCH   3   7
BRANCH   1  23
HETATM   23  C9  UNL     1      43.671  11.182  -2.451  1.00  0.00     0.311 C 
BRANCH  23  24
HETATM   24  N1  UNL     1      44.024  12.289  -3.289  1.00  0.00     0.092 N 
HETATM   25  C1  UNL     1      44.335  11.733  -4.609  1.00  0.00     0.310 C 
BRANCH  24  26
HETATM   26  C2  UNL     1      42.927  13.211  -3.351  1.00  0.00     0.310 C 
BRANCH  26  27
HETATM   27  C3  UNL     1      43.375  14.624  -3.139  1.00  0.00    -0.030 A 
HETATM   28  C4  UNL     1      43.735  15.388  -4.216  1.00  0.00     0.010 A 
HETATM   29  C5  UNL     1      44.148  16.685  -4.038  1.00  0.00     0.024 A 
HETATM   30  C6  UNL     1      44.209  17.243  -2.780  1.00  0.00     0.034 A 
HETATM   31 CL1  UNL     1      44.741  18.906  -2.569  1.00  0.00    -0.084 Cl
HETATM   32  C7  UNL     1      43.840  16.444  -1.716  1.00  0.00     0.024 A 
HETATM   33  C8  UNL     1      43.429  15.158  -1.880  1.00  0.00     0.010 A 
ENDBRANCH  26  27
ENDBRANCH  24  26
ENDBRANCH  23  24
ENDBRANCH   1  23
BRANCH   5  34
HETATM   34  C23 UNL     1      45.673  13.353   1.573  1.00  0.00     0.116 A 
HETATM   35  N5  UNL     1      44.964  14.493   1.508  1.00  0.00    -0.340 N 
HETATM   36  C24 UNL     1      45.452  15.393   2.377  1.00  0.00     0.060 A 
ATOM     37  H5  UNL     1      44.170  14.651   0.887  1.00  0.00     0.167 HD
HETATM   38  C25 UNL     1      45.105  16.686   2.703  1.00  0.00     0.032 A 
HETATM   39  C29 UNL     1      46.519  14.800   3.024  1.00  0.00     0.060 A 
HETATM   40  C26 UNL     1      45.801  17.407   3.666  1.00  0.00     0.002 A 
HETATM   41  C27 UNL     1      46.861  16.815   4.309  1.00  0.00     0.002 A 
HETATM   42  C28 UNL     1      47.215  15.530   3.992  1.00  0.00     0.032 A 
HETATM   43  N6  UNL     1      46.615  13.563   2.504  1.00  0.00    -0.340 N 
ATOM     44  H6  UNL     1      47.313  12.875   2.782  1.00  0.00     0.167 HD
ENDBRANCH   5  34
TORSDOF 7
ENDMDL
MODEL 2
REMARK VINA RESULT: -9.419343774      2.708      3.980
REMARK  7 active torsions:
REMARK  status: ('A' for Active; 'I' for Inactive)
REMARK    1  A    between atoms: N1_2  and  C2_3 
REMARK    2  A    between atoms: N1_2  and  C9_11 
REMARK    3  A    between atoms: C2_3  and  C3_4 
REMARK    4  A    between atoms: C9_11  and  C10_12 
REMARK    5  A    between atoms: C12_14  and  O1_15 
REMARK    6  A    between atoms: O1_15  and  C13_16 
REMARK    7  A    between atoms: C22_32  and  C23_33 
ROOT
HETATM    1  C10 UNL     1      45.500   9.425   0.362  1.00  0.00    -0.027 A 
HETATM    2  C11 UNL     1      46.754   8.914   0.696  1.00  0.00     0.046 A 
HETATM    3  C12 UNL     1      47.710   9.688   1.320  1.00  0.00     0.077 A 
HETATM    4  C21 UNL     1      47.414  11.000   1.617  1.00  0.00     0.052 A 
HETATM    5  C22 UNL     1      46.182  11.562   1.308  1.00  0.00     0.011 A 
HETATM    6  C30 UNL     1      45.264  10.746   0.686  1.00  0.00     0.024 A 
ENDROOT
BRANCH   3   7
HETATM    7  O1  UNL     1      48.929   9.102   1.618  1.00  0.00    -0.311 OA
BRANCH   7   8
HETATM    8  C13 UNL     1      49.064   8.090   2.558  1.00  0.00     0.077 A 
HETATM    9  C14 UNL     1      47.964   7.731   3.305  1.00  0.00     0.039 A 
HETATM   10  C15 UNL     1      48.118   6.728   4.229  1.00  0.00     0.033 A 
HETATM   11  C16 UNL     1      49.353   6.119   4.381  1.00  0.00     0.047 A 
HETATM   12  N2  UNL     1      49.508   5.126   5.296  1.00  0.00    -0.352 N 
HETATM   13  C19 UNL     1      50.450   6.478   3.635  1.00  0.00     0.037 A 
HETATM   14  C17 UNL     1      50.707   4.541   5.438  1.00  0.00     0.182 A 
ATOM     15  H2  UNL     1      48.719   4.828   5.871  1.00  0.00     0.166 HD
HETATM   16  N3  UNL     1      51.784   4.896   4.704  1.00  0.00    -0.338 N 
HETATM   17  C18 UNL     1      51.679   5.873   3.785  1.00  0.00     0.112 A 
ATOM     18  H3  UNL     1      52.676   4.424   4.846  1.00  0.00     0.168 HD
HETATM   19  N4  UNL     1      52.689   6.239   3.064  1.00  0.00    -0.385 N 
ATOM     20  H42 UNL     1      53.599   5.791   3.175  1.00  0.00     0.157 HD
ATOM     21  H41 UNL     1      52.609   6.980   2.368  1.00  0.00     0.157 HD
HETATM   22  C20 UNL     1      50.296   7.485   2.706  1.00  0.00     0.054 A 
ENDBRANCH   7   8
ENDBRANCH   3   7
BRANCH   1  23
HETATM   23  C9  UNL     1      44.488   8.575  -0.308  1.00  0.00     0.311 C 
BRANCH  23  24
HETATM   24  N1  UNL     1      44.260   8.903  -1.684  1.00  0.00     0.092 N 
HETATM   25  C1  UNL     1      45.421   8.409  -2.429  1.00  0.00     0.310 C 
BRANCH  24  26
HETATM   26  C2  UNL     1      43.046   8.282  -2.129  1.00  0.00     0.310 C 
BRANCH  26  27
HETATM   27  C3  UNL     1      42.072   9.285  -2.665  1.00  0.00    -0.030 A 
HETATM   28  C4  UNL     1      40.731   9.017  -2.621  1.00  0.00     0.010 A 
HETATM   29  C5  UNL     1      39.825   9.926  -3.108  1.00  0.00     0.024 A 
HETATM   30  C6  UNL     1      40.244  11.123  -3.649  1.00  0.00     0.034 A 
HETATM   31 CL1  UNL     1      39.071  12.277  -4.269  1.00  0.00    -0.084 Cl
HETATM   32  C7  UNL     1      41.604  11.360  -3.678  1.00  0.00     0.024 A 
HETATM   33  C8  UNL     1      42.510  10.467  -3.198  1.00  0.00     0.010 A 
ENDBRANCH  26  27
ENDBRANCH  24  26
ENDBRANCH  23  24
ENDBRANCH   1  23
BRANCH   5  34
HETATM   34  C23 UNL     1      45.897  12.953   1.634  1.00  0.00     0.116 A 
HETATM   35  N5  UNL     1      46.685  13.746   2.379  1.00  0.00    -0.340 N 
HETATM   36  C24 UNL     1      46.139  14.969   2.490  1.00  0.00     0.060 A 
ATOM     37  H5  UNL     1      47.569  13.461   2.800  1.00  0.00     0.167 HD
HETATM   38  C25 UNL     1      46.524  16.127   3.129  1.00  0.00     0.032 A 
HETATM   39  C29 UNL     1      44.952  14.952   1.784  1.00  0.00     0.060 A 
HETATM   40  C26 UNL     1      45.748  17.280   3.079  1.00  0.00     0.002 A 
HETATM   41  C27 UNL     1      44.567  17.261   2.375  1.00  0.00     0.002 A 
HETATM   42  C28 UNL     1      44.175  16.114   1.737  1.00  0.00     0.032 A 
HETATM   43  N6  UNL     1      44.848  13.709   1.282  1.00  0.00    -0.340 N 
ATOM     44  H6  UNL     1      44.070  13.384   0.707  1.00  0.00     0.167 HD
ENDBRANCH   5  34
TORSDOF 7
ENDMDL
MODEL 3
REMARK VINA RESULT: -9.391688674      1.911      3.057
REMARK  7 active torsions:
REMARK  status: ('A' for Active; 'I' for Inactive)
REMARK    1  A    between atoms: N1_2  and  C2_3 
REMARK    2  A    between atoms: N1_2  and  C9_11 
REMARK    3  A    between atoms: C2_3  and  C3_4 
REMARK    4  A    between atoms: C9_11  and  C10_12 
REMARK    5  A    between atoms: C12_14  and  O1_15 
REMARK    6  A    between atoms: O1_15  and  C13_16 
REMARK    7  A    between atoms: C22_32  and  C23_33 
ROOT
HETATM    1  C10 UNL     1      44.837   9.470   0.018  1.00  0.00    -0.027 A 
HETATM    2  C11 UNL     1      46.041   8.781   0.164  1.00  0.00     0.046 A 
HETATM    3  C12 UNL     1      47.142   9.362   0.756  1.00  0.00     0.077 A 
HETATM    4  C21 UNL     1      47.046  10.658   1.212  1.00  0.00     0.052 A 
HETATM    5  C22 UNL     1      45.874  11.392   1.094  1.00  0.00     0.011 A 
HETATM    6  C30 UNL     1      44.804  10.765   0.496  1.00  0.00     0.024 A 
ENDROOT
BRANCH   3   7
HETATM    7  O1  UNL     1      48.298   8.607   0.861  1.00  0.00    -0.311 OA
BRANCH   7   8
HETATM    8  C13 UNL     1      48.561   7.787   1.951  1.00  0.00     0.077 A 
HETATM    9  C14 UNL     1      47.512   7.406   2.758  1.00  0.00     0.039 A 
HETATM   10  C15 UNL     1      47.793   6.595   3.830  1.00  0.00     0.033 A 
HETATM   11  C16 UNL     1      49.098   6.194   4.063  1.00  0.00     0.047 A 
HETATM   12  N2  UNL     1      49.378   5.392   5.124  1.00  0.00    -0.352 N 
HETATM   13  C19 UNL     1      50.143   6.576   3.257  1.00  0.00     0.037 A 
HETATM   14  C17 UNL     1      50.645   5.007   5.345  1.00  0.00     0.182 A 
ATOM     15  H2  UNL     1      48.632   5.085   5.748  1.00  0.00     0.166 HD
HETATM   16  N3  UNL     1      51.670   5.385   4.551  1.00  0.00    -0.338 N 
HETATM   17  C18 UNL     1      51.442   6.178   3.489  1.00  0.00     0.112 A 
ATOM     18  H3  UNL     1      52.617   5.069   4.757  1.00  0.00     0.168 HD
HETATM   19  N4  UNL     1      52.400   6.558   2.707  1.00  0.00    -0.385 N 
ATOM     20  H42 UNL     1      53.362   6.263   2.878  1.00  0.00     0.157 HD
ATOM     21  H41 UNL     1      52.227   7.159   1.901  1.00  0.00     0.157 HD
HETATM   22  C20 UNL     1      49.863   7.390   2.180  1.00  0.00     0.054 A 
ENDBRANCH   7   8
ENDBRANCH   3   7
BRANCH   1  23
HETATM   23  C9  UNL     1      43.665   8.825  -0.620  1.00  0.00     0.311 C 
BRANCH  23  24
HETATM   24  N1  UNL     1      43.724   8.783  -2.051  1.00  0.00     0.092 N 
HETATM   25  C1  UNL     1      43.035   7.556  -2.461  1.00  0.00     0.310 C 
BRANCH  24  26
HETATM   26  C2  UNL     1      43.087   9.949  -2.591  1.00  0.00     0.310 C 
BRANCH  26  27
HETATM   27  C3  UNL     1      44.075  11.035  -2.887  1.00  0.00    -0.030 A 
HETATM   28  C4  UNL     1      43.735  12.340  -2.656  1.00  0.00     0.010 A 
HETATM   29  C5  UNL     1      44.629  13.348  -2.922  1.00  0.00     0.024 A 
HETATM   30  C6  UNL     1      45.881  13.068  -3.425  1.00  0.00     0.034 A 
HETATM   31 CL1  UNL     1      47.016  14.370  -3.761  1.00  0.00    -0.084 Cl
HETATM   32  C7  UNL     1      46.191  11.741  -3.647  1.00  0.00     0.024 A 
HETATM   33  C8  UNL     1      45.313  10.736  -3.387  1.00  0.00     0.010 A 
ENDBRANCH  26  27
ENDBRANCH  24  26
ENDBRANCH  23  24
ENDBRANCH   1  23
BRANCH   5  34
HETATM   34  C23 UNL     1      45.801  12.762   1.585  1.00  0.00     0.116 A 
HETATM   35  N5  UNL     1      46.771  13.384   2.277  1.00  0.00    -0.340 N 
HETATM   36  C24 UNL     1      46.394  14.637   2.580  1.00  0.00     0.060 A 
ATOM     37  H5  UNL     1      47.664  12.965   2.535  1.00  0.00     0.167 HD
HETATM   38  C25 UNL     1      46.995  15.674   3.259  1.00  0.00     0.032 A 
HETATM   39  C29 UNL     1      45.128  14.820   2.058  1.00  0.00     0.060 A 
HETATM   40  C26 UNL     1      46.361  16.899   3.431  1.00  0.00     0.002 A 
HETATM   41  C27 UNL     1      45.102  17.079   2.910  1.00  0.00     0.002 A 
HETATM   42  C28 UNL     1      44.494  16.054   2.233  1.00  0.00     0.032 A 
HETATM   43  N6  UNL     1      44.810  13.656   1.463  1.00  0.00    -0.340 N 
ATOM     44  H6  UNL     1      43.929  13.477   0.982  1.00  0.00     0.167 HD
ENDBRANCH   5  34
TORSDOF 7
ENDMDL
MODEL 4
REMARK VINA RESULT: -9.292897281      2.232      7.792
REMARK  7 active torsions:
REMARK  status: ('A' for Active; 'I' for Inactive)
REMARK    1  A    between atoms: N1_2  and  C2_3 
REMARK    2  A    between atoms: N1_2  and  C9_11 
REMARK    3  A    between atoms: C2_3  and  C3_4 
REMARK    4  A    between atoms: C9_11  and  C10_12 
REMARK    5  A    between atoms: C12_14  and  O1_15 
REMARK    6  A    between atoms: O1_15  and  C13_16 
REMARK    7  A    between atoms: C22_32  and  C23_33 
ROOT
HETATM    1  C10 UNL     1      46.486   8.681   0.215  1.00  0.00    -0.027 A 
HETATM    2  C11 UNL     1      46.709   9.954   0.739  1.00  0.00     0.046 A 
HETATM    3  C12 UNL     1      47.408  10.142   1.913  1.00  0.00     0.077 A 
HETATM    4  C21 UNL     1      47.895   9.041   2.581  1.00  0.00     0.052 A 
HETATM    5  C22 UNL     1      47.704   7.750   2.106  1.00  0.00     0.011 A 
HETATM    6  C30 UNL     1      47.000   7.618   0.930  1.00  0.00     0.024 A 
ENDROOT
BRANCH   3   7
HETATM    7  O1  UNL     1      47.585  11.439   2.364  1.00  0.00    -0.311 OA
BRANCH   7   8
HETATM    8  C13 UNL     1      46.652  12.444   2.144  1.00  0.00     0.077 A 
HETATM    9  C14 UNL     1      45.488  12.128   1.478  1.00  0.00     0.039 A 
HETATM   10  C15 UNL     1      44.578  13.135   1.271  1.00  0.00     0.033 A 
HETATM   11  C16 UNL     1      44.854  14.414   1.727  1.00  0.00     0.047 A 
HETATM   12  N2  UNL     1      43.954  15.412   1.522  1.00  0.00    -0.352 N 
HETATM   13  C19 UNL     1      46.015  14.726   2.391  1.00  0.00     0.037 A 
HETATM   14  C17 UNL     1      44.228  16.648   1.967  1.00  0.00     0.182 A 
ATOM     15  H2  UNL     1      43.078  15.223   1.034  1.00  0.00     0.166 HD
HETATM   16  N3  UNL     1      45.371  16.952   2.619  1.00  0.00    -0.338 N 
HETATM   17  C18 UNL     1      46.291  15.998   2.845  1.00  0.00     0.112 A 
ATOM     18  H3  UNL     1      45.537  17.906   2.938  1.00  0.00     0.168 HD
HETATM   19  N4  UNL     1      47.396  16.253   3.467  1.00  0.00    -0.385 N 
ATOM     20  H42 UNL     1      47.600  17.195   3.803  1.00  0.00     0.157 HD
ATOM     21  H41 UNL     1      48.093  15.529   3.638  1.00  0.00     0.157 HD
HETATM   22  C20 UNL     1      46.930  13.716   2.601  1.00  0.00     0.054 A 
ENDBRANCH   7   8
ENDBRANCH   3   7
BRANCH   1  23
HETATM   23  C9  UNL     1      45.733   8.501  -1.049  1.00  0.00     0.311 C 
BRANCH  23  24
HETATM   24  N1  UNL     1      46.342   9.118  -2.190  1.00  0.00     0.092 N 
HETATM   25  C1  UNL     1      47.105   8.070  -2.874  1.00  0.00     0.310 C 
BRANCH  24  26
HETATM   26  C2  UNL     1      45.323   9.666  -3.039  1.00  0.00     0.310 C 
BRANCH  26  27
HETATM   27  C3  UNL     1      45.101  11.122  -2.772  1.00  0.00    -0.030 A 
HETATM   28  C4  UNL     1      43.836  11.638  -2.844  1.00  0.00     0.010 A 
HETATM   29  C5  UNL     1      43.616  12.972  -2.603  1.00  0.00     0.024 A 
HETATM   30  C6  UNL     1      44.658  13.815  -2.285  1.00  0.00     0.034 A 
HETATM   31 CL1  UNL     1      44.360  15.521  -1.979  1.00  0.00    -0.084 Cl
HETATM   32  C7  UNL     1      45.921  13.262  -2.221  1.00  0.00     0.024 A 
HETATM   33  C8  UNL     1      46.151  11.943  -2.458  1.00  0.00     0.010 A 
ENDBRANCH  26  27
ENDBRANCH  24  26
ENDBRANCH  23  24
ENDBRANCH   1  23
BRANCH   5  34
HETATM   34  C23 UNL     1      48.231   6.604   2.835  1.00  0.00     0.116 A 
HETATM   35  N5  UNL     1      49.095   6.675   3.862  1.00  0.00    -0.340 N 
HETATM   36  C24 UNL     1      49.381   5.442   4.313  1.00  0.00     0.060 A 
ATOM     37  H5  UNL     1      49.477   7.540   4.243  1.00  0.00     0.167 HD
HETATM   38  C25 UNL     1      50.189   4.962   5.320  1.00  0.00     0.032 A 
HETATM   39  C29 UNL     1      48.668   4.548   3.538  1.00  0.00     0.060 A 
HETATM   40  C26 UNL     1      50.304   3.600   5.576  1.00  0.00     0.002 A 
HETATM   41  C27 UNL     1      49.592   2.712   4.805  1.00  0.00     0.002 A 
HETATM   42  C28 UNL     1      48.786   3.180   3.800  1.00  0.00     0.032 A 
HETATM   43  N6  UNL     1      47.984   5.298   2.656  1.00  0.00    -0.340 N 
ATOM     44  H6  UNL     1      47.360   4.922   1.943  1.00  0.00     0.167 HD
ENDBRANCH   5  34
TORSDOF 7
ENDMDL
MODEL 5
REMARK VINA RESULT: -9.239301107      2.411      3.182
REMARK  7 active torsions:
REMARK  status: ('A' for Active; 'I' for Inactive)
REMARK    1  A    between atoms: N1_2  and  C2_3 
REMARK    2  A    between atoms: N1_2  and  C9_11 
REMARK    3  A    between atoms: C2_3  and  C3_4 
REMARK    4  A    between atoms: C9_11  and  C10_12 
REMARK    5  A    between atoms: C12_14  and  O1_15 
REMARK    6  A    between atoms: O1_15  and  C13_16 
REMARK    7  A    between atoms: C22_32  and  C23_33 
ROOT
HETATM    1  C10 UNL     1      44.506  11.209  -1.261  1.00  0.00    -0.027 A 
HETATM    2  C11 UNL     1      45.001   9.992  -0.792  1.00  0.00     0.046 A 
HETATM    3  C12 UNL     1      45.686   9.900   0.401  1.00  0.00     0.077 A 
HETATM    4  C21 UNL     1      45.887  11.042   1.143  1.00  0.00     0.052 A 
HETATM    5  C22 UNL     1      45.418  12.281   0.726  1.00  0.00     0.011 A 
HETATM    6  C30 UNL     1      44.739  12.317  -0.472  1.00  0.00     0.024 A 
ENDROOT
BRANCH   3   7
HETATM    7  O1  UNL     1      46.142   8.653   0.794  1.00  0.00    -0.311 OA
BRANCH   7   8
HETATM    8  C13 UNL     1      47.475   8.404   1.099  1.00  0.00     0.077 A 
HETATM    9  C14 UNL     1      48.437   8.740   0.172  1.00  0.00     0.039 A 
HETATM   10  C15 UNL     1      49.747   8.485   0.492  1.00  0.00     0.033 A 
HETATM   11  C16 UNL     1      50.056   7.908   1.712  1.00  0.00     0.047 A 
HETATM   12  N2  UNL     1      51.353   7.655   2.030  1.00  0.00    -0.352 N 
HETATM   13  C19 UNL     1      49.095   7.574   2.635  1.00  0.00     0.037 A 
HETATM   14  C17 UNL     1      51.645   7.096   3.215  1.00  0.00     0.182 A 
ATOM     15  H2  UNL     1      52.099   7.888   1.374  1.00  0.00     0.166 HD
HETATM   16  N3  UNL     1      50.698   6.768   4.120  1.00  0.00    -0.338 N 
HETATM   17  C18 UNL     1      49.401   7.000   3.850  1.00  0.00     0.112 A 
ATOM     18  H3  UNL     1      50.966   6.344   5.007  1.00  0.00     0.168 HD
HETATM   19  N4  UNL     1      48.468   6.699   4.694  1.00  0.00    -0.385 N 
ATOM     20  H42 UNL     1      48.694   6.274   5.593  1.00  0.00     0.157 HD
ATOM     21  H41 UNL     1      47.484   6.875   4.489  1.00  0.00     0.157 HD
HETATM   22  C20 UNL     1      47.778   7.829   2.316  1.00  0.00     0.054 A 
ENDBRANCH   7   8
ENDBRANCH   3   7
BRANCH   1  23
HETATM   23  C9  UNL     1      43.772  11.285  -2.546  1.00  0.00     0.311 C 
BRANCH  23  24
HETATM   24  N1  UNL     1      44.507  10.798  -3.675  1.00  0.00     0.092 N 
HETATM   25  C1  UNL     1      43.518  10.433  -4.693  1.00  0.00     0.310 C 
BRANCH  24  26
HETATM   26  C2  UNL     1      45.393  11.823  -4.147  1.00  0.00     0.310 C 
BRANCH  26  27
HETATM   27  C3  UNL     1      46.765  11.685  -3.562  1.00  0.00    -0.030 A 
HETATM   28  C4  UNL     1      47.404  10.476  -3.615  1.00  0.00     0.010 A 
HETATM   29  C5  UNL     1      48.662  10.332  -3.084  1.00  0.00     0.024 A 
HETATM   30  C6  UNL     1      49.304  11.396  -2.487  1.00  0.00     0.034 A 
HETATM   31 CL1  UNL     1      50.915  11.195  -1.811  1.00  0.00    -0.084 Cl
HETATM   32  C7  UNL     1      48.630  12.599  -2.450  1.00  0.00     0.024 A 
HETATM   33  C8  UNL     1      47.385  12.754  -2.973  1.00  0.00     0.010 A 
ENDBRANCH  26  27
ENDBRANCH  24  26
ENDBRANCH  23  24
ENDBRANCH   1  23
BRANCH   5  34
HETATM   34  C23 UNL     1      45.645  13.473   1.532  1.00  0.00     0.116 A 
HETATM   35  N5  UNL     1      46.647  13.626   2.414  1.00  0.00    -0.340 N 
HETATM   36  C24 UNL     1      46.576  14.838   2.990  1.00  0.00     0.060 A 
ATOM     37  H5  UNL     1      47.359  12.924   2.616  1.00  0.00     0.167 HD
HETATM   38  C25 UNL     1      47.337  15.486   3.938  1.00  0.00     0.032 A 
HETATM   39  C29 UNL     1      45.481  15.483   2.451  1.00  0.00     0.060 A 
HETATM   40  C26 UNL     1      47.030  16.773   4.365  1.00  0.00     0.002 A 
HETATM   41  C27 UNL     1      45.939  17.413   3.826  1.00  0.00     0.002 A 
HETATM   42  C28 UNL     1      45.175  16.777   2.883  1.00  0.00     0.032 A 
HETATM   43  N6  UNL     1      44.947  14.617   1.571  1.00  0.00    -0.340 N 
ATOM     44  H6  UNL     1      44.119  14.806   1.007  1.00  0.00     0.167 HD
ENDBRANCH   5  34
TORSDOF 7
ENDMDL
