MODEL 1
REMARK VINA RESULT: -8.294687996      0.000      0.000
REMARK  8 active torsions:
REMARK  status: ('A' for Active; 'I' for Inactive)
REMARK    1  A    between atoms: C7_8  and  C8_9 
REMARK    2  A    between atoms: N2_12  and  C9_13 
REMARK    3  A    between atoms: C14_18  and  C15_19 
REMARK    4  A    between atoms: N4_25  and  C19_27 
REMARK    5  A    between atoms: C19_27  and  C20_28 
REMARK    6  A    between atoms: C20_28  and  C21_29 
REMARK    7  A    between atoms: C21_29  and  C22_30 
REMARK    8  A    between atoms: C22_30  and  N5_33 
ROOT
HETATM    1  C8  UNL     1      46.729  11.501   0.676  1.00  0.00     0.074 A 
HETATM    2  N1  UNL     1      46.316  12.755   0.950  1.00  0.00    -0.296 N 
ATOM      3  H1  UNL     1      45.876  13.380   0.274  1.00  0.00     0.187 HD
HETATM    4  N2  UNL     1      46.557  13.064   2.211  1.00  0.00    -0.292 N 
HETATM    5  C13 UNL     1      47.143  11.987   2.782  1.00  0.00     0.127 A 
HETATM    6  C14 UNL     1      47.265  10.988   1.841  1.00  0.00     0.037 A 
ENDROOT
BRANCH   6   7
HETATM    7  C15 UNL     1      47.827   9.653   1.963  1.00  0.00     0.064 A 
HETATM    8  C16 UNL     1      47.121   8.483   1.789  1.00  0.00     0.048 A 
HETATM    9  C17 UNL     1      47.725   7.242   1.920  1.00  0.00     0.108 A 
HETATM   10  N3  UNL     1      49.048   7.160   2.228  1.00  0.00    -0.202 N 
HETATM   11  C18 UNL     1      49.729   8.300   2.397  1.00  0.00     0.678 A 
ATOM     12  H3  UNL     1      49.508   6.255   2.328  1.00  0.00     0.183 HD
HETATM   13  N4  UNL     1      50.977   8.239   2.686  1.00  0.00    -0.226 N 
HETATM   14  N6  UNL     1      49.125   9.526   2.266  1.00  0.00    -0.191 N 
ATOM     15  H4  UNL     1      51.489   9.112   2.813  1.00  0.00     0.177 HD
ATOM     16  H6  UNL     1      49.685  10.368   2.404  1.00  0.00     0.184 HD
BRANCH  13  17
HETATM   17  C19 UNL     1      51.705   6.971   2.842  1.00  0.00     0.138 C 
BRANCH  17  18
HETATM   18  C20 UNL     1      52.037   6.721   4.276  1.00  0.00     0.023 C 
BRANCH  18  19
HETATM   19  C21 UNL     1      53.064   5.729   4.597  1.00  0.00     0.039 C 
BRANCH  19  20
HETATM   20  C22 UNL     1      52.711   4.458   5.264  1.00  0.00     0.116 C 
HETATM   21  C23 UNL     1      51.594   4.700   6.312  1.00  0.00     0.045 C 
HETATM   22  C24 UNL     1      52.102   3.465   4.300  1.00  0.00     0.045 C 
BRANCH  20  23
HETATM   23  N5  UNL     1      53.781   3.815   5.951  1.00  0.00    -0.071 N 
ATOM     24  H53 UNL     1      54.671   4.044   5.507  1.00  0.00     0.275 HD
ATOM     25  H52 UNL     1      53.923   4.247   6.865  1.00  0.00     0.275 HD
ATOM     26  H51 UNL     1      53.688   2.804   6.051  1.00  0.00     0.275 HD
ENDBRANCH  20  23
ENDBRANCH  19  20
ENDBRANCH  18  19
ENDBRANCH  17  18
ENDBRANCH  13  17
ENDBRANCH   6   7
BRANCH   1  27
HETATM   27  C7  UNL     1      46.653  10.777  -0.589  1.00  0.00     0.021 A 
HETATM   28  C6  UNL     1      45.604   9.973  -0.981  1.00  0.00     0.005 A 
HETATM   29  C5  UNL     1      44.409   9.626  -0.375  1.00  0.00     0.018 A 
HETATM   30  C26 UNL     1      45.884   9.450  -2.244  1.00  0.00     0.052 A 
HETATM   31  C4  UNL     1      43.510   8.776  -1.011  1.00  0.00     0.044 A 
HETATM   32  C3  UNL     1      43.824   8.280  -2.260  1.00  0.00     0.124 A 
HETATM   33  C2  UNL     1      45.011   8.606  -2.899  1.00  0.00     0.004 A 
HETATM   34  F1  UNL     1      42.966   7.442  -2.918  1.00  0.00    -0.205 F 
HETATM   35  C1  UNL     1      45.331   8.060  -4.243  1.00  0.00     0.054 C 
HETATM   36  N7  UNL     1      47.098   9.934  -2.619  1.00  0.00    -0.364 N 
HETATM   37  C25 UNL     1      47.552  10.723  -1.632  1.00  0.00     0.103 A 
ATOM     38  H7  UNL     1      47.579   9.732  -3.496  1.00  0.00     0.165 HD
ENDBRANCH   1  27
BRANCH   4  39
HETATM   39  C9  UNL     1      46.234  14.349   2.838  1.00  0.00     0.049 A 
HETATM   40  C10 UNL     1      45.022  15.051   2.264  1.00  0.00     0.041 C 
HETATM   41  C11 UNL     1      47.345  15.244   3.249  1.00  0.00     0.035 A 
HETATM   42  C12 UNL     1      46.547  14.520   4.271  1.00  0.00     0.035 A 
ENDBRANCH   4  39
TORSDOF 8
ENDMDL
MODEL 2
REMARK VINA RESULT: -8.293757747      1.748      2.426
REMARK  8 active torsions:
REMARK  status: ('A' for Active; 'I' for Inactive)
REMARK    1  A    between atoms: C7_8  and  C8_9 
REMARK    2  A    between atoms: N2_12  and  C9_13 
REMARK    3  A    between atoms: C14_18  and  C15_19 
REMARK    4  A    between atoms: N4_25  and  C19_27 
REMARK    5  A    between atoms: C19_27  and  C20_28 
REMARK    6  A    between atoms: C20_28  and  C21_29 
REMARK    7  A    between atoms: C21_29  and  C22_30 
REMARK    8  A    between atoms: C22_30  and  N5_33 
ROOT
HETATM    1  C8  UNL     1      45.800  13.179   0.911  1.00  0.00     0.074 A 
HETATM    2  N1  UNL     1      45.368  14.301   1.522  1.00  0.00    -0.296 N 
ATOM      3  H1  UNL     1      44.612  14.893   1.180  1.00  0.00     0.187 HD
HETATM    4  N2  UNL     1      46.059  14.531   2.625  1.00  0.00    -0.292 N 
HETATM    5  C13 UNL     1      46.966  13.535   2.743  1.00  0.00     0.127 A 
HETATM    6  C14 UNL     1      46.828  12.669   1.680  1.00  0.00     0.037 A 
ENDROOT
BRANCH   6   7
HETATM    7  C15 UNL     1      47.566  11.459   1.359  1.00  0.00     0.064 A 
HETATM    8  C16 UNL     1      48.260  11.248   0.188  1.00  0.00     0.048 A 
HETATM    9  C17 UNL     1      48.944  10.066  -0.050  1.00  0.00     0.108 A 
HETATM   10  N3  UNL     1      48.938   9.078   0.886  1.00  0.00    -0.202 N 
HETATM   11  C18 UNL     1      48.262   9.288   2.021  1.00  0.00     0.678 A 
ATOM     12  H3  UNL     1      49.436   8.202   0.727  1.00  0.00     0.183 HD
HETATM   13  N4  UNL     1      48.249   8.367   2.914  1.00  0.00    -0.226 N 
HETATM   14  N6  UNL     1      47.586  10.461   2.251  1.00  0.00    -0.191 N 
ATOM     15  H4  UNL     1      47.731   8.535   3.776  1.00  0.00     0.177 HD
ATOM     16  H6  UNL     1      47.084  10.576   3.132  1.00  0.00     0.184 HD
BRANCH  13  17
HETATM   17  C19 UNL     1      48.946   7.082   2.754  1.00  0.00     0.138 C 
BRANCH  17  18
HETATM   18  C20 UNL     1      49.419   6.565   4.072  1.00  0.00     0.023 C 
BRANCH  18  19
HETATM   19  C21 UNL     1      50.589   5.685   4.103  1.00  0.00     0.039 C 
BRANCH  19  20
HETATM   20  C22 UNL     1      51.958   6.238   4.035  1.00  0.00     0.116 C 
HETATM   21  C23 UNL     1      52.918   5.389   4.908  1.00  0.00     0.045 C 
HETATM   22  C24 UNL     1      52.539   6.137   2.643  1.00  0.00     0.045 C 
BRANCH  20  23
HETATM   23  N5  UNL     1      52.090   7.586   4.478  1.00  0.00    -0.071 N 
ATOM     24  H53 UNL     1      51.331   8.156   4.102  1.00  0.00     0.275 HD
ATOM     25  H52 UNL     1      51.883   7.651   5.475  1.00  0.00     0.275 HD
ATOM     26  H51 UNL     1      52.990   8.023   4.277  1.00  0.00     0.275 HD
ENDBRANCH  20  23
ENDBRANCH  19  20
ENDBRANCH  18  19
ENDBRANCH  17  18
ENDBRANCH  13  17
ENDBRANCH   6   7
BRANCH   1  27
HETATM   27  C7  UNL     1      45.313  12.575  -0.325  1.00  0.00     0.021 A 
HETATM   28  C6  UNL     1      44.792  11.303  -0.435  1.00  0.00     0.005 A 
HETATM   29  C5  UNL     1      44.580  10.292   0.486  1.00  0.00     0.018 A 
HETATM   30  C26 UNL     1      44.435  11.076  -1.765  1.00  0.00     0.052 A 
HETATM   31  C4  UNL     1      44.024   9.079   0.094  1.00  0.00     0.044 A 
HETATM   32  C3  UNL     1      43.685   8.893  -1.231  1.00  0.00     0.124 A 
HETATM   33  C2  UNL     1      43.881   9.883  -2.182  1.00  0.00     0.004 A 
HETATM   34  F1  UNL     1      43.135   7.714  -1.656  1.00  0.00    -0.205 F 
HETATM   35  C1  UNL     1      43.510   9.664  -3.603  1.00  0.00     0.054 C 
HETATM   36  N7  UNL     1      44.737  12.204  -2.461  1.00  0.00    -0.364 N 
HETATM   37  C25 UNL     1      45.259  13.094  -1.600  1.00  0.00     0.103 A 
ATOM     38  H7  UNL     1      44.593  12.349  -3.460  1.00  0.00     0.165 HD
ENDBRANCH   1  27
BRANCH   4  39
HETATM   39  C9  UNL     1      45.850  15.668   3.527  1.00  0.00     0.049 A 
HETATM   40  C10 UNL     1      45.939  15.335   5.000  1.00  0.00     0.041 C 
HETATM   41  C11 UNL     1      44.829  16.684   3.171  1.00  0.00     0.035 A 
HETATM   42  C12 UNL     1      46.275  17.004   3.068  1.00  0.00     0.035 A 
ENDBRANCH   4  39
TORSDOF 8
ENDMDL
MODEL 3
REMARK VINA RESULT: -8.249660982      2.233      2.828
REMARK  8 active torsions:
REMARK  status: ('A' for Active; 'I' for Inactive)
REMARK    1  A    between atoms: C7_8  and  C8_9 
REMARK    2  A    between atoms: N2_12  and  C9_13 
REMARK    3  A    between atoms: C14_18  and  C15_19 
REMARK    4  A    between atoms: N4_25  and  C19_27 
REMARK    5  A    between atoms: C19_27  and  C20_28 
REMARK    6  A    between atoms: C20_28  and  C21_29 
REMARK    7  A    between atoms: C21_29  and  C22_30 
REMARK    8  A    between atoms: C22_30  and  N5_33 
ROOT
HETATM    1  C8  UNL     1      45.738  13.037   0.734  1.00  0.00     0.074 A 
HETATM    2  N1  UNL     1      45.253  13.970   1.579  1.00  0.00    -0.296 N 
ATOM      3  H1  UNL     1      44.341  14.417   1.487  1.00  0.00     0.187 HD
HETATM    4  N2  UNL     1      46.120  14.226   2.543  1.00  0.00    -0.292 N 
HETATM    5  C13 UNL     1      47.200  13.442   2.328  1.00  0.00     0.127 A 
HETATM    6  C14 UNL     1      46.990  12.683   1.197  1.00  0.00     0.037 A 
ENDROOT
BRANCH   6   7
HETATM    7  C15 UNL     1      47.850  11.700   0.558  1.00  0.00     0.064 A 
HETATM    8  C16 UNL     1      48.345  11.803  -0.723  1.00  0.00     0.048 A 
HETATM    9  C17 UNL     1      49.163  10.825  -1.268  1.00  0.00     0.108 A 
HETATM   10  N3  UNL     1      49.494   9.729  -0.532  1.00  0.00    -0.202 N 
HETATM   11  C18 UNL     1      49.009   9.634   0.711  1.00  0.00     0.678 A 
ATOM     12  H3  UNL     1      50.094   9.000  -0.918  1.00  0.00     0.183 HD
HETATM   13  N4  UNL     1      49.314   8.609   1.418  1.00  0.00    -0.226 N 
HETATM   14  N6  UNL     1      48.200  10.607   1.246  1.00  0.00    -0.191 N 
ATOM     15  H4  UNL     1      48.940   8.544   2.365  1.00  0.00     0.177 HD
ATOM     16  H6  UNL     1      47.854  10.491   2.198  1.00  0.00     0.184 HD
BRANCH  13  17
HETATM   17  C19 UNL     1      50.176   7.522   0.929  1.00  0.00     0.138 C 
BRANCH  17  18
HETATM   18  C20 UNL     1      50.574   6.615   2.046  1.00  0.00     0.023 C 
BRANCH  18  19
HETATM   19  C21 UNL     1      50.093   6.910   3.396  1.00  0.00     0.039 C 
BRANCH  19  20
HETATM   20  C22 UNL     1      49.017   6.104   4.013  1.00  0.00     0.116 C 
HETATM   21  C23 UNL     1      49.618   5.120   5.049  1.00  0.00     0.045 C 
HETATM   22  C24 UNL     1      48.067   6.957   4.822  1.00  0.00     0.045 C 
BRANCH  20  23
HETATM   23  N5  UNL     1      48.250   5.320   3.103  1.00  0.00    -0.071 N 
ATOM     24  H53 UNL     1      48.750   5.219   2.218  1.00  0.00     0.275 HD
ATOM     25  H52 UNL     1      48.231   4.347   3.408  1.00  0.00     0.275 HD
ATOM     26  H51 UNL     1      47.301   5.655   2.935  1.00  0.00     0.275 HD
ENDBRANCH  20  23
ENDBRANCH  19  20
ENDBRANCH  18  19
ENDBRANCH  17  18
ENDBRANCH  13  17
ENDBRANCH   6   7
BRANCH   1  27
HETATM   27  C7  UNL     1      45.106  12.475  -0.456  1.00  0.00     0.021 A 
HETATM   28  C6  UNL     1      44.639  11.183  -0.571  1.00  0.00     0.005 A 
HETATM   29  C5  UNL     1      44.614  10.112   0.305  1.00  0.00     0.018 A 
HETATM   30  C26 UNL     1      44.103  11.010  -1.847  1.00  0.00     0.052 A 
HETATM   31  C4  UNL     1      44.068   8.892  -0.080  1.00  0.00     0.044 A 
HETATM   32  C3  UNL     1      43.549   8.761  -1.352  1.00  0.00     0.124 A 
HETATM   33  C2  UNL     1      43.555   9.812  -2.256  1.00  0.00     0.004 A 
HETATM   34  F1  UNL     1      43.003   7.577  -1.768  1.00  0.00    -0.205 F 
HETATM   35  C1  UNL     1      42.991   9.651  -3.621  1.00  0.00     0.054 C 
HETATM   36  N7  UNL     1      44.243  12.191  -2.506  1.00  0.00    -0.364 N 
HETATM   37  C25 UNL     1      44.840  13.061  -1.675  1.00  0.00     0.103 A 
ATOM     38  H7  UNL     1      43.947  12.383  -3.463  1.00  0.00     0.165 HD
ENDBRANCH   1  27
BRANCH   4  39
HETATM   39  C9  UNL     1      45.910  15.190   3.627  1.00  0.00     0.049 A 
HETATM   40  C10 UNL     1      44.719  16.105   3.444  1.00  0.00     0.041 C 
HETATM   41  C11 UNL     1      47.095  15.818   4.265  1.00  0.00     0.035 A 
HETATM   42  C12 UNL     1      46.304  14.794   4.993  1.00  0.00     0.035 A 
ENDBRANCH   4  39
TORSDOF 8
ENDMDL
MODEL 4
REMARK VINA RESULT: -8.233123852      3.940      9.584
REMARK  8 active torsions:
REMARK  status: ('A' for Active; 'I' for Inactive)
REMARK    1  A    between atoms: C7_8  and  C8_9 
REMARK    2  A    between atoms: N2_12  and  C9_13 
REMARK    3  A    between atoms: C14_18  and  C15_19 
REMARK    4  A    between atoms: N4_25  and  C19_27 
REMARK    5  A    between atoms: C19_27  and  C20_28 
REMARK    6  A    between atoms: C20_28  and  C21_29 
REMARK    7  A    between atoms: C21_29  and  C22_30 
REMARK    8  A    between atoms: C22_30  and  N5_33 
ROOT
HETATM    1  C8  UNL     1      47.143  11.325   1.533  1.00  0.00     0.074 A 
HETATM    2  N1  UNL     1      47.396  10.395   2.476  1.00  0.00    -0.296 N 
ATOM      3  H1  UNL     1      46.963  10.373   3.399  1.00  0.00     0.187 HD
HETATM    4  N2  UNL     1      48.281   9.515   2.042  1.00  0.00    -0.292 N 
HETATM    5  C13 UNL     1      48.618   9.874   0.782  1.00  0.00     0.127 A 
HETATM    6  C14 UNL     1      47.919  11.009   0.435  1.00  0.00     0.037 A 
ENDROOT
BRANCH   6   7
HETATM    7  C15 UNL     1      47.937  11.777  -0.800  1.00  0.00     0.064 A 
HETATM    8  C16 UNL     1      49.069  12.306  -1.381  1.00  0.00     0.048 A 
HETATM    9  C17 UNL     1      49.010  13.027  -2.564  1.00  0.00     0.108 A 
HETATM   10  N3  UNL     1      47.813  13.227  -3.179  1.00  0.00    -0.202 N 
HETATM   11  C18 UNL     1      46.717  12.711  -2.610  1.00  0.00     0.678 A 
ATOM     12  H3  UNL     1      47.752  13.755  -4.049  1.00  0.00     0.183 HD
HETATM   13  N4  UNL     1      45.581  12.888  -3.179  1.00  0.00    -0.226 N 
HETATM   14  N6  UNL     1      46.781  11.997  -1.438  1.00  0.00    -0.191 N 
ATOM     15  H4  UNL     1      44.751  12.491  -2.739  1.00  0.00     0.177 HD
ATOM     16  H6  UNL     1      45.919  11.623  -1.042  1.00  0.00     0.184 HD
BRANCH  13  17
HETATM   17  C19 UNL     1      45.419  13.636  -4.435  1.00  0.00     0.138 C 
BRANCH  17  18
HETATM   18  C20 UNL     1      44.517  14.809  -4.243  1.00  0.00     0.023 C 
BRANCH  18  19
HETATM   19  C21 UNL     1      44.960  15.902  -3.377  1.00  0.00     0.039 C 
BRANCH  19  20
HETATM   20  C22 UNL     1      43.982  16.766  -2.682  1.00  0.00     0.116 C 
HETATM   21  C23 UNL     1      43.771  16.268  -1.229  1.00  0.00     0.045 C 
HETATM   22  C24 UNL     1      44.494  18.179  -2.516  1.00  0.00     0.045 C 
BRANCH  20  23
HETATM   23  N5  UNL     1      42.691  16.826  -3.283  1.00  0.00    -0.071 N 
ATOM     24  H53 UNL     1      42.110  17.512  -2.801  1.00  0.00     0.275 HD
ATOM     25  H52 UNL     1      42.753  17.260  -4.205  1.00  0.00     0.275 HD
ATOM     26  H51 UNL     1      42.201  15.933  -3.348  1.00  0.00     0.275 HD
ENDBRANCH  20  23
ENDBRANCH  19  20
ENDBRANCH  18  19
ENDBRANCH  17  18
ENDBRANCH  13  17
ENDBRANCH   6   7
BRANCH   1  27
HETATM   27  C7  UNL     1      46.237  12.467   1.606  1.00  0.00     0.021 A 
HETATM   28  C6  UNL     1      46.504  13.651   2.260  1.00  0.00     0.005 A 
HETATM   29  C5  UNL     1      47.595  14.099   2.983  1.00  0.00     0.018 A 
HETATM   30  C26 UNL     1      45.408  14.503   2.114  1.00  0.00     0.052 A 
HETATM   31  C4  UNL     1      47.598  15.370   3.550  1.00  0.00     0.044 A 
HETATM   32  C3  UNL     1      46.496  16.182   3.382  1.00  0.00     0.124 A 
HETATM   33  C2  UNL     1      45.384  15.768   2.664  1.00  0.00     0.004 A 
HETATM   34  F1  UNL     1      46.461  17.439   3.923  1.00  0.00    -0.205 F 
HETATM   35  C1  UNL     1      44.206  16.657   2.496  1.00  0.00     0.054 C 
HETATM   36  N7  UNL     1      44.480  13.841   1.373  1.00  0.00    -0.364 N 
HETATM   37  C25 UNL     1      44.977  12.630   1.072  1.00  0.00     0.103 A 
ATOM     38  H7  UNL     1      43.567  14.200   1.095  1.00  0.00     0.165 HD
ENDBRANCH   1  27
BRANCH   4  39
HETATM   39  C9  UNL     1      48.780   8.373   2.814  1.00  0.00     0.049 A 
HETATM   40  C10 UNL     1      50.173   8.549   3.382  1.00  0.00     0.041 C 
HETATM   41  C11 UNL     1      48.458   7.000   2.352  1.00  0.00     0.035 A 
HETATM   42  C12 UNL     1      47.802   7.559   3.561  1.00  0.00     0.035 A 
ENDBRANCH   4  39
TORSDOF 8
ENDMDL
MODEL 5
REMARK VINA RESULT: -8.218817492      4.238      9.162
REMARK  8 active torsions:
REMARK  status: ('A' for Active; 'I' for Inactive)
REMARK    1  A    between atoms: C7_8  and  C8_9 
REMARK    2  A    between atoms: N2_12  and  C9_13 
REMARK    3  A    between atoms: C14_18  and  C15_19 
REMARK    4  A    between atoms: N4_25  and  C19_27 
REMARK    5  A    between atoms: C19_27  and  C20_28 
REMARK    6  A    between atoms: C20_28  and  C21_29 
REMARK    7  A    between atoms: C21_29  and  C22_30 
REMARK    8  A    between atoms: C22_30  and  N5_33 
ROOT
HETATM    1  C8  UNL     1      47.193  10.937   1.570  1.00  0.00     0.074 A 
HETATM    2  N1  UNL     1      47.500  10.144   2.617  1.00  0.00    -0.296 N 
ATOM      3  H1  UNL     1      47.100  10.237   3.550  1.00  0.00     0.187 HD
HETATM    4  N2  UNL     1      48.389   9.231   2.269  1.00  0.00    -0.292 N 
HETATM    5  C13 UNL     1      48.673   9.427   0.961  1.00  0.00     0.127 A 
HETATM    6  C14 UNL     1      47.937  10.493   0.494  1.00  0.00     0.037 A 
ENDROOT
BRANCH   6   7
HETATM    7  C15 UNL     1      47.893  11.091  -0.831  1.00  0.00     0.064 A 
HETATM    8  C16 UNL     1      47.007  10.737  -1.824  1.00  0.00     0.048 A 
HETATM    9  C17 UNL     1      47.023  11.353  -3.067  1.00  0.00     0.108 A 
HETATM   10  N3  UNL     1      47.931  12.332  -3.328  1.00  0.00    -0.202 N 
HETATM   11  C18 UNL     1      48.790  12.671  -2.359  1.00  0.00     0.678 A 
ATOM     12  H3  UNL     1      47.956  12.795  -4.236  1.00  0.00     0.183 HD
HETATM   13  N4  UNL     1      49.650  13.594  -2.589  1.00  0.00    -0.226 N 
HETATM   14  N6  UNL     1      48.769  12.058  -1.130  1.00  0.00    -0.191 N 
ATOM     15  H4  UNL     1      50.302  13.846  -1.845  1.00  0.00     0.177 HD
ATOM     16  H6  UNL     1      49.444  12.349  -0.423  1.00  0.00     0.184 HD
BRANCH  13  17
HETATM   17  C19 UNL     1      49.743  14.305  -3.873  1.00  0.00     0.138 C 
BRANCH  17  18
HETATM   18  C20 UNL     1      49.248  15.707  -3.741  1.00  0.00     0.023 C 
BRANCH  18  19
HETATM   19  C21 UNL     1      50.173  16.737  -3.265  1.00  0.00     0.039 C 
BRANCH  19  20
HETATM   20  C22 UNL     1      50.143  18.104  -3.828  1.00  0.00     0.116 C 
HETATM   21  C23 UNL     1      48.685  18.630  -3.870  1.00  0.00     0.045 C 
HETATM   22  C24 UNL     1      50.867  19.094  -2.943  1.00  0.00     0.045 C 
BRANCH  20  23
HETATM   23  N5  UNL     1      50.658  18.226  -5.151  1.00  0.00    -0.071 N 
ATOM     24  H53 UNL     1      50.989  17.320  -5.484  1.00  0.00     0.275 HD
ATOM     25  H52 UNL     1      49.897  18.391  -5.811  1.00  0.00     0.275 HD
ATOM     26  H51 UNL     1      51.386  18.932  -5.270  1.00  0.00     0.275 HD
ENDBRANCH  20  23
ENDBRANCH  19  20
ENDBRANCH  18  19
ENDBRANCH  17  18
ENDBRANCH  13  17
ENDBRANCH   6   7
BRANCH   1  27
HETATM   27  C7  UNL     1      46.264  12.062   1.526  1.00  0.00     0.021 A 
HETATM   28  C6  UNL     1      46.461  13.279   2.145  1.00  0.00     0.005 A 
HETATM   29  C5  UNL     1      47.489  13.781   2.923  1.00  0.00     0.018 A 
HETATM   30  C26 UNL     1      45.364  14.100   1.882  1.00  0.00     0.052 A 
HETATM   31  C4  UNL     1      47.428  15.075   3.431  1.00  0.00     0.044 A 
HETATM   32  C3  UNL     1      46.326  15.856   3.149  1.00  0.00     0.124 A 
HETATM   33  C2  UNL     1      45.277  15.387   2.372  1.00  0.00     0.004 A 
HETATM   34  F1  UNL     1      46.230  17.133   3.629  1.00  0.00    -0.205 F 
HETATM   35  C1  UNL     1      44.099  16.243   2.080  1.00  0.00     0.054 C 
HETATM   36  N7  UNL     1      44.503  13.388   1.107  1.00  0.00    -0.364 N 
HETATM   37  C25 UNL     1      45.043  12.175   0.897  1.00  0.00     0.103 A 
ATOM     38  H7  UNL     1      43.607  13.715   0.749  1.00  0.00     0.165 HD
ENDBRANCH   1  27
BRANCH   4  39
HETATM   39  C9  UNL     1      48.942   8.211   3.165  1.00  0.00     0.049 A 
HETATM   40  C10 UNL     1      50.254   8.585   3.822  1.00  0.00     0.041 C 
HETATM   41  C11 UNL     1      48.810   6.782   2.790  1.00  0.00     0.035 A 
HETATM   42  C12 UNL     1      47.997   7.345   3.897  1.00  0.00     0.035 A 
ENDBRANCH   4  39
TORSDOF 8
ENDMDL
