MODEL 1
REMARK VINA RESULT: -7.294853230      0.000      0.000
REMARK  8 active torsions:
REMARK  status: ('A' for Active; 'I' for Inactive)
REMARK    1  A    between atoms: C2_2  and  C3_3 
REMARK    2  A    between atoms: C3_3  and  C4_4 
REMARK    3  A    between atoms: C4_4  and  C5_5 
REMARK    4  A    between atoms: C5_5  and  C6_6 
REMARK    5  A    between atoms: C6_6  and  C7_7 
REMARK    6  A    between atoms: C10_12  and  C11_13 
REMARK    7  A    between atoms: C11_13  and  O1_14 
REMARK    8  A    between atoms: C11_13  and  C12_16 
ROOT
HETATM    1  C7  UNL     1      44.997  14.483   0.767  1.00  0.00     0.060 C 
HETATM    2  C8  UNL     1      44.301  14.747  -0.489  1.00  0.00     0.089 A 
HETATM    3  N1  UNL     1      43.416  15.751  -0.771  1.00  0.00    -0.354 N 
ATOM      4  H1  UNL     1      43.182  16.413  -0.031  1.00  0.00     0.166 HD
HETATM    5  C9  UNL     1      42.853  15.906  -1.948  1.00  0.00     0.102 A 
HETATM    6  C10 UNL     1      43.173  14.995  -2.975  1.00  0.00     0.029 A 
HETATM    7  C16 UNL     1      44.060  14.006  -2.659  1.00  0.00     0.115 A 
HETATM    8  S1  UNL     1      44.444  12.931  -3.853  1.00  0.00    -0.059 SA
HETATM    9  N4  UNL     1      44.636  13.859  -1.430  1.00  0.00    -0.321 N 
HETATM   10  C17 UNL     1      45.564  12.928  -0.904  1.00  0.00     0.098 C 
HETATM   11  C18 UNL     1      45.352  11.514  -1.389  1.00  0.00     0.038 C 
HETATM   12  C19 UNL     1      45.616  10.589  -0.284  1.00  0.00    -0.005 A 
HETATM   13  C20 UNL     1      47.065  10.532   0.093  1.00  0.00     0.019 C 
HETATM   14  C21 UNL     1      44.756   9.712   0.448  1.00  0.00     0.183 A 
HETATM   15  F1  UNL     1      43.762   9.058  -0.292  1.00  0.00    -0.248 F 
HETATM   16  C22 UNL     1      44.569  11.070   0.776  1.00  0.00     0.032 A 
HETATM   17  C23 UNL     1      45.363  12.083   1.497  1.00  0.00     0.015 C 
HETATM   18  C24 UNL     1      45.725  13.170   0.535  1.00  0.00     0.021 C 
ENDROOT
BRANCH   6  19
HETATM   19  C11 UNL     1      42.557  15.147  -4.293  1.00  0.00     0.196 C 
BRANCH  19  20
HETATM   20  O1  UNL     1      43.229  16.146  -5.054  1.00  0.00    -0.386 OA
ATOM     21  H1  UNL     1      43.250  15.913  -5.975  1.00  0.00     0.210 HD
ENDBRANCH  19  20
BRANCH  19  22
HETATM   22  C12 UNL     1      41.116  15.316  -4.356  1.00  0.00     0.068 A 
HETATM   23  C13 UNL     1      40.141  14.369  -4.135  1.00  0.00     0.036 A 
HETATM   24  C14 UNL     1      40.324  12.933  -3.737  1.00  0.00     0.070 C 
HETATM   25  N2  UNL     1      38.936  14.934  -4.337  1.00  0.00    -0.302 N 
HETATM   26  N3  UNL     1      39.122  16.193  -4.674  1.00  0.00    -0.266 N 
ATOM     27  H2  UNL     1      38.034  14.467  -4.244  1.00  0.00     0.186 HD
HETATM   28  C15 UNL     1      40.445  16.467  -4.699  1.00  0.00     0.271 A 
ATOM     29  H3  UNL     1      38.379  16.859  -4.885  1.00  0.00     0.190 HD
HETATM   30  O2  UNL     1      40.865  17.619  -5.001  1.00  0.00    -0.266 OA
ENDBRANCH  19  22
ENDBRANCH   6  19
BRANCH   1  31
HETATM   31  C6  UNL     1      44.202  14.515   2.008  1.00  0.00     0.013 C 
BRANCH  31  32
HETATM   32  C5  UNL     1      44.299  15.794   2.793  1.00  0.00     0.001 C 
BRANCH  32  33
HETATM   33  C4  UNL     1      45.610  16.473   2.497  1.00  0.00     0.000 C 
BRANCH  33  34
HETATM   34  C3  UNL     1      46.662  16.378   3.536  1.00  0.00    -0.000 C 
BRANCH  34  35
HETATM   35  C2  UNL     1      47.629  15.271   3.468  1.00  0.00    -0.005 C 
HETATM   36  C1  UNL     1      47.336  13.966   4.078  1.00  0.00     0.005 C 
ENDBRANCH  34  35
ENDBRANCH  33  34
ENDBRANCH  32  33
ENDBRANCH  31  32
ENDBRANCH   1  31
TORSDOF 8
ENDMDL
MODEL 2
REMARK VINA RESULT: -6.969468692      0.708      1.001
REMARK  8 active torsions:
REMARK  status: ('A' for Active; 'I' for Inactive)
REMARK    1  A    between atoms: C2_2  and  C3_3 
REMARK    2  A    between atoms: C3_3  and  C4_4 
REMARK    3  A    between atoms: C4_4  and  C5_5 
REMARK    4  A    between atoms: C5_5  and  C6_6 
REMARK    5  A    between atoms: C6_6  and  C7_7 
REMARK    6  A    between atoms: C10_12  and  C11_13 
REMARK    7  A    between atoms: C11_13  and  O1_14 
REMARK    8  A    between atoms: C11_13  and  C12_16 
ROOT
HETATM    1  C7  UNL     1      45.210  14.010   0.349  1.00  0.00     0.060 C 
HETATM    2  C8  UNL     1      44.388  14.309  -0.820  1.00  0.00     0.089 A 
HETATM    3  N1  UNL     1      43.548  15.371  -1.014  1.00  0.00    -0.354 N 
ATOM      4  H1  UNL     1      43.451  16.056  -0.264  1.00  0.00     0.166 HD
HETATM    5  C9  UNL     1      42.860  15.554  -2.119  1.00  0.00     0.102 A 
HETATM    6  C10 UNL     1      42.991  14.611  -3.159  1.00  0.00     0.029 A 
HETATM    7  C16 UNL     1      43.838  13.564  -2.931  1.00  0.00     0.115 A 
HETATM    8  S1  UNL     1      44.001  12.452  -4.142  1.00  0.00    -0.059 SA
HETATM    9  N4  UNL     1      44.545  13.389  -1.777  1.00  0.00    -0.321 N 
HETATM   10  C17 UNL     1      45.463  12.400  -1.347  1.00  0.00     0.098 C 
HETATM   11  C18 UNL     1      45.096  11.000  -1.776  1.00  0.00     0.038 C 
HETATM   12  C19 UNL     1      45.425  10.070  -0.693  1.00  0.00    -0.005 A 
HETATM   13  C20 UNL     1      46.901   9.914  -0.489  1.00  0.00     0.019 C 
HETATM   14  C21 UNL     1      44.600   9.265   0.152  1.00  0.00     0.183 A 
HETATM   15  F1  UNL     1      43.481   8.676  -0.452  1.00  0.00    -0.248 F 
HETATM   16  C22 UNL     1      44.548  10.636   0.474  1.00  0.00     0.032 A 
HETATM   17  C23 UNL     1      45.492  11.598   1.076  1.00  0.00     0.015 C 
HETATM   18  C24 UNL     1      45.811  12.646   0.057  1.00  0.00     0.021 C 
ENDROOT
BRANCH   6  19
HETATM   19  C11 UNL     1      42.235  14.792  -4.398  1.00  0.00     0.196 C 
BRANCH  19  20
HETATM   20  O1  UNL     1      42.900  15.701  -5.269  1.00  0.00    -0.386 OA
ATOM     21  H1  UNL     1      43.779  15.886  -4.958  1.00  0.00     0.210 HD
ENDBRANCH  19  20
BRANCH  19  22
HETATM   22  C12 UNL     1      40.820  15.104  -4.291  1.00  0.00     0.068 A 
HETATM   23  C13 UNL     1      39.786  14.253  -3.970  1.00  0.00     0.036 A 
HETATM   24  C14 UNL     1      39.869  12.797  -3.610  1.00  0.00     0.070 C 
HETATM   25  N2  UNL     1      38.629  14.937  -4.025  1.00  0.00    -0.302 N 
HETATM   26  N3  UNL     1      38.900  16.179  -4.368  1.00  0.00    -0.266 N 
ATOM     27  H2  UNL     1      37.701  14.559  -3.833  1.00  0.00     0.186 HD
HETATM   28  C15 UNL     1      40.232  16.322  -4.542  1.00  0.00     0.271 A 
ATOM     29  H3  UNL     1      38.209  16.919  -4.484  1.00  0.00     0.190 HD
HETATM   30  O2  UNL     1      40.728  17.434  -4.879  1.00  0.00    -0.266 OA
ENDBRANCH  19  22
ENDBRANCH   6  19
BRANCH   1  31
HETATM   31  C6  UNL     1      44.573  14.112   1.675  1.00  0.00     0.013 C 
BRANCH  31  32
HETATM   32  C5  UNL     1      45.214  15.093   2.616  1.00  0.00     0.001 C 
BRANCH  32  33
HETATM   33  C4  UNL     1      46.356  14.430   3.341  1.00  0.00     0.000 C 
BRANCH  33  34
HETATM   34  C3  UNL     1      47.612  15.206   3.462  1.00  0.00    -0.000 C 
BRANCH  34  35
HETATM   35  C2  UNL     1      47.539  16.675   3.497  1.00  0.00    -0.005 C 
HETATM   36  C1  UNL     1      47.666  17.414   4.761  1.00  0.00     0.005 C 
ENDBRANCH  34  35
ENDBRANCH  33  34
ENDBRANCH  32  33
ENDBRANCH  31  32
ENDBRANCH   1  31
TORSDOF 8
ENDMDL
MODEL 3
REMARK VINA RESULT: -6.955963070      3.631      6.441
REMARK  8 active torsions:
REMARK  status: ('A' for Active; 'I' for Inactive)
REMARK    1  A    between atoms: C2_2  and  C3_3 
REMARK    2  A    between atoms: C3_3  and  C4_4 
REMARK    3  A    between atoms: C4_4  and  C5_5 
REMARK    4  A    between atoms: C5_5  and  C6_6 
REMARK    5  A    between atoms: C6_6  and  C7_7 
REMARK    6  A    between atoms: C10_12  and  C11_13 
REMARK    7  A    between atoms: C11_13  and  O1_14 
REMARK    8  A    between atoms: C11_13  and  C12_16 
ROOT
HETATM    1  C7  UNL     1      44.360  13.306  -3.067  1.00  0.00     0.060 C 
HETATM    2  C8  UNL     1      44.386  13.859  -1.715  1.00  0.00     0.089 A 
HETATM    3  N1  UNL     1      44.185  15.155  -1.327  1.00  0.00    -0.354 N 
ATOM      4  H1  UNL     1      44.000  15.853  -2.047  1.00  0.00     0.166 HD
HETATM    5  C9  UNL     1      44.217  15.545  -0.073  1.00  0.00     0.102 A 
HETATM    6  C10 UNL     1      44.472  14.584   0.927  1.00  0.00     0.029 A 
HETATM    7  C16 UNL     1      44.667  13.300   0.504  1.00  0.00     0.115 A 
HETATM    8  S1  UNL     1      44.966  12.163   1.665  1.00  0.00    -0.059 SA
HETATM    9  N4  UNL     1      44.630  12.911  -0.804  1.00  0.00    -0.321 N 
HETATM   10  C17 UNL     1      44.796  11.659  -1.445  1.00  0.00     0.098 C 
HETATM   11  C18 UNL     1      45.871  10.797  -0.829  1.00  0.00     0.038 C 
HETATM   12  C19 UNL     1      46.582  10.089  -1.897  1.00  0.00    -0.005 A 
HETATM   13  C20 UNL     1      45.740   9.043  -2.561  1.00  0.00     0.019 C 
HETATM   14  C21 UNL     1      47.927  10.188  -2.371  1.00  0.00     0.183 A 
HETATM   15  F1  UNL     1      48.915  10.383  -1.398  1.00  0.00    -0.248 F 
HETATM   16  C22 UNL     1      47.125  11.285  -2.748  1.00  0.00     0.032 A 
HETATM   17  C23 UNL     1      46.004  11.479  -3.687  1.00  0.00     0.015 C 
HETATM   18  C24 UNL     1      44.790  11.859  -2.899  1.00  0.00     0.021 C 
ENDROOT
BRANCH   6  19
HETATM   19  C11 UNL     1      44.514  14.994   2.330  1.00  0.00     0.196 C 
BRANCH  19  20
HETATM   20  O1  UNL     1      43.242  15.473   2.757  1.00  0.00    -0.386 OA
ATOM     21  H1  UNL     1      43.299  16.377   3.041  1.00  0.00     0.210 HD
ENDBRANCH  19  20
BRANCH  19  22
HETATM   22  C12 UNL     1      45.580  15.890   2.745  1.00  0.00     0.068 A 
HETATM   23  C13 UNL     1      46.841  15.559   3.188  1.00  0.00     0.036 A 
HETATM   24  C14 UNL     1      47.443  14.189   3.316  1.00  0.00     0.070 C 
HETATM   25  N2  UNL     1      47.497  16.689   3.509  1.00  0.00    -0.302 N 
HETATM   26  N3  UNL     1      46.696  17.709   3.285  1.00  0.00    -0.266 N 
ATOM     27  H2  UNL     1      48.452  16.745   3.865  1.00  0.00     0.186 HD
HETATM   28  C15 UNL     1      45.510  17.262   2.817  1.00  0.00     0.271 A 
ATOM     29  H3  UNL     1      46.935  18.688   3.441  1.00  0.00     0.190 HD
HETATM   30  O2  UNL     1      44.578  18.066   2.533  1.00  0.00    -0.266 OA
ENDBRANCH  19  22
ENDBRANCH   6  19
BRANCH   1  31
HETATM   31  C6  UNL     1      45.099  14.032  -4.116  1.00  0.00     0.013 C 
BRANCH  31  32
HETATM   32  C5  UNL     1      45.943  15.175  -3.624  1.00  0.00     0.001 C 
BRANCH  32  33
HETATM   33  C4  UNL     1      47.379  14.953  -4.020  1.00  0.00     0.000 C 
BRANCH  33  34
HETATM   34  C3  UNL     1      48.253  16.148  -4.067  1.00  0.00    -0.000 C 
BRANCH  34  35
HETATM   35  C2  UNL     1      49.614  16.054  -3.518  1.00  0.00    -0.005 C 
HETATM   36  C1  UNL     1      50.404  17.260  -3.228  1.00  0.00     0.005 C 
ENDBRANCH  34  35
ENDBRANCH  33  34
ENDBRANCH  32  33
ENDBRANCH  31  32
ENDBRANCH   1  31
TORSDOF 8
ENDMDL
MODEL 4
REMARK VINA RESULT: -6.951139950      3.373      6.535
REMARK  8 active torsions:
REMARK  status: ('A' for Active; 'I' for Inactive)
REMARK    1  A    between atoms: C2_2  and  C3_3 
REMARK    2  A    between atoms: C3_3  and  C4_4 
REMARK    3  A    between atoms: C4_4  and  C5_5 
REMARK    4  A    between atoms: C5_5  and  C6_6 
REMARK    5  A    between atoms: C6_6  and  C7_7 
REMARK    6  A    between atoms: C10_12  and  C11_13 
REMARK    7  A    between atoms: C11_13  and  O1_14 
REMARK    8  A    between atoms: C11_13  and  C12_16 
ROOT
HETATM    1  C7  UNL     1      44.291  13.383  -3.096  1.00  0.00     0.060 C 
HETATM    2  C8  UNL     1      44.337  13.917  -1.738  1.00  0.00     0.089 A 
HETATM    3  N1  UNL     1      44.134  15.207  -1.329  1.00  0.00    -0.354 N 
ATOM      4  H1  UNL     1      43.932  15.914  -2.036  1.00  0.00     0.166 HD
HETATM    5  C9  UNL     1      44.186  15.580  -0.070  1.00  0.00     0.102 A 
HETATM    6  C10 UNL     1      44.464  14.608   0.912  1.00  0.00     0.029 A 
HETATM    7  C16 UNL     1      44.661  13.331   0.468  1.00  0.00     0.115 A 
HETATM    8  S1  UNL     1      44.989  12.181   1.608  1.00  0.00    -0.059 SA
HETATM    9  N4  UNL     1      44.604  12.960  -0.844  1.00  0.00    -0.321 N 
HETATM   10  C17 UNL     1      44.767  11.718  -1.505  1.00  0.00     0.098 C 
HETATM   11  C18 UNL     1      45.859  10.855  -0.920  1.00  0.00     0.038 C 
HETATM   12  C19 UNL     1      46.556  10.167  -2.010  1.00  0.00    -0.005 A 
HETATM   13  C20 UNL     1      45.710   9.123  -2.673  1.00  0.00     0.019 C 
HETATM   14  C21 UNL     1      47.891  10.282  -2.506  1.00  0.00     0.183 A 
HETATM   15  F1  UNL     1      48.896  10.471  -1.548  1.00  0.00    -0.248 F 
HETATM   16  C22 UNL     1      47.076  11.379  -2.854  1.00  0.00     0.032 A 
HETATM   17  C23 UNL     1      45.936  11.576  -3.770  1.00  0.00     0.015 C 
HETATM   18  C24 UNL     1      44.734  11.937  -2.955  1.00  0.00     0.021 C 
ENDROOT
BRANCH   6  19
HETATM   19  C11 UNL     1      44.529  14.999   2.319  1.00  0.00     0.196 C 
BRANCH  19  20
HETATM   20  O1  UNL     1      43.260  15.459   2.776  1.00  0.00    -0.386 OA
ATOM     21  H1  UNL     1      43.184  15.361   3.718  1.00  0.00     0.210 HD
ENDBRANCH  19  20
BRANCH  19  22
HETATM   22  C12 UNL     1      45.594  15.900   2.727  1.00  0.00     0.068 A 
HETATM   23  C13 UNL     1      46.855  15.574   3.172  1.00  0.00     0.036 A 
HETATM   24  C14 UNL     1      47.459  14.206   3.312  1.00  0.00     0.070 C 
HETATM   25  N2  UNL     1      47.510  16.708   3.484  1.00  0.00    -0.302 N 
HETATM   26  N3  UNL     1      46.707  17.725   3.252  1.00  0.00    -0.266 N 
ATOM     27  H2  UNL     1      48.464  16.769   3.840  1.00  0.00     0.186 HD
HETATM   28  C15 UNL     1      45.522  17.272   2.788  1.00  0.00     0.271 A 
ATOM     29  H3  UNL     1      46.945  18.705   3.400  1.00  0.00     0.190 HD
HETATM   30  O2  UNL     1      44.589  18.073   2.497  1.00  0.00    -0.266 OA
ENDBRANCH  19  22
ENDBRANCH   6  19
BRANCH   1  31
HETATM   31  C6  UNL     1      45.006  14.129  -4.148  1.00  0.00     0.013 C 
BRANCH  31  32
HETATM   32  C5  UNL     1      44.128  14.924  -5.074  1.00  0.00     0.001 C 
BRANCH  32  33
HETATM   33  C4  UNL     1      44.308  16.395  -4.804  1.00  0.00     0.000 C 
BRANCH  33  34
HETATM   34  C3  UNL     1      45.611  16.818  -4.242  1.00  0.00    -0.000 C 
BRANCH  34  35
HETATM   35  C2  UNL     1      45.718  18.146  -3.619  1.00  0.00    -0.005 C 
HETATM   36  C1  UNL     1      44.658  18.664  -2.741  1.00  0.00     0.005 C 
ENDBRANCH  34  35
ENDBRANCH  33  34
ENDBRANCH  32  33
ENDBRANCH  31  32
ENDBRANCH   1  31
TORSDOF 8
ENDMDL
MODEL 5
REMARK VINA RESULT: -6.916898425      3.736      6.965
REMARK  8 active torsions:
REMARK  status: ('A' for Active; 'I' for Inactive)
REMARK    1  A    between atoms: C2_2  and  C3_3 
REMARK    2  A    between atoms: C3_3  and  C4_4 
REMARK    3  A    between atoms: C4_4  and  C5_5 
REMARK    4  A    between atoms: C5_5  and  C6_6 
REMARK    5  A    between atoms: C6_6  and  C7_7 
REMARK    6  A    between atoms: C10_12  and  C11_13 
REMARK    7  A    between atoms: C11_13  and  O1_14 
REMARK    8  A    between atoms: C11_13  and  C12_16 
ROOT
HETATM    1  C7  UNL     1      43.689  15.083  -2.402  1.00  0.00     0.060 C 
HETATM    2  C8  UNL     1      43.985  15.278  -0.985  1.00  0.00     0.089 A 
HETATM    3  N1  UNL     1      43.802  16.405  -0.231  1.00  0.00    -0.354 N 
ATOM      4  H1  UNL     1      43.422  17.236  -0.684  1.00  0.00     0.166 HD
HETATM    5  C9  UNL     1      44.092  16.470   1.049  1.00  0.00     0.102 A 
HETATM    6  C10 UNL     1      44.618  15.325   1.681  1.00  0.00     0.029 A 
HETATM    7  C16 UNL     1      44.786  14.218   0.898  1.00  0.00     0.115 A 
HETATM    8  S1  UNL     1      45.401  12.869   1.626  1.00  0.00    -0.059 SA
HETATM    9  N4  UNL     1      44.480  14.168  -0.431  1.00  0.00    -0.321 N 
HETATM   10  C17 UNL     1      44.570  13.143  -1.405  1.00  0.00     0.098 C 
HETATM   11  C18 UNL     1      45.802  12.282  -1.272  1.00  0.00     0.038 C 
HETATM   12  C19 UNL     1      46.295  11.949  -2.612  1.00  0.00    -0.005 A 
HETATM   13  C20 UNL     1      45.388  11.014  -3.349  1.00  0.00     0.019 C 
HETATM   14  C21 UNL     1      47.492  12.316  -3.302  1.00  0.00     0.183 A 
HETATM   15  F1  UNL     1      48.661  12.373  -2.531  1.00  0.00    -0.248 F 
HETATM   16  C22 UNL     1      46.566  13.374  -3.200  1.00  0.00     0.032 A 
HETATM   17  C23 UNL     1      45.254  13.668  -3.808  1.00  0.00     0.015 C 
HETATM   18  C24 UNL     1      44.227  13.699  -2.719  1.00  0.00     0.021 C 
ENDROOT
BRANCH   6  19
HETATM   19  C11 UNL     1      44.949  15.373   3.105  1.00  0.00     0.196 C 
BRANCH  19  20
HETATM   20  O1  UNL     1      43.902  15.990   3.848  1.00  0.00    -0.386 OA
ATOM     21  H1  UNL     1      43.533  16.722   3.368  1.00  0.00     0.210 HD
ENDBRANCH  19  20
BRANCH  19  22
HETATM   22  C12 UNL     1      46.248  15.903   3.483  1.00  0.00     0.068 A 
HETATM   23  C13 UNL     1      47.385  15.202   3.818  1.00  0.00     0.036 A 
HETATM   24  C14 UNL     1      47.577  13.712   3.838  1.00  0.00     0.070 C 
HETATM   25  N2  UNL     1      48.353  16.078   4.143  1.00  0.00    -0.302 N 
HETATM   26  N3  UNL     1      47.865  17.294   4.026  1.00  0.00    -0.266 N 
ATOM     27  H2  UNL     1      49.302  15.840   4.432  1.00  0.00     0.186 HD
HETATM   28  C15 UNL     1      46.576  17.231   3.624  1.00  0.00     0.271 A 
ATOM     29  H3  UNL     1      48.382  18.154   4.210  1.00  0.00     0.190 HD
HETATM   30  O2  UNL     1      45.898  18.282   3.446  1.00  0.00    -0.266 OA
ENDBRANCH  19  22
ENDBRANCH   6  19
BRANCH   1  31
HETATM   31  C6  UNL     1      44.132  16.128  -3.343  1.00  0.00     0.013 C 
BRANCH  31  32
HETATM   32  C5  UNL     1      43.101  17.173  -3.666  1.00  0.00     0.001 C 
BRANCH  32  33
HETATM   33  C4  UNL     1      43.726  18.542  -3.590  1.00  0.00     0.000 C 
BRANCH  33  34
HETATM   34  C3  UNL     1      45.037  18.642  -2.908  1.00  0.00    -0.000 C 
BRANCH  34  35
HETATM   35  C2  UNL     1      46.221  19.017  -3.697  1.00  0.00    -0.005 C 
HETATM   36  C1  UNL     1      47.190  18.006  -4.144  1.00  0.00     0.005 C 
ENDBRANCH  34  35
ENDBRANCH  33  34
ENDBRANCH  32  33
ENDBRANCH  31  32
ENDBRANCH   1  31
TORSDOF 8
ENDMDL
