MODEL 1
REMARK VINA RESULT: -8.206872623      0.000      0.000
REMARK  8 active torsions:
REMARK  status: ('A' for Active; 'I' for Inactive)
REMARK    1  A    between atoms: O1_2  and  C2_3 
REMARK    2  A    between atoms: C7_9  and  N1_10 
REMARK    3  A    between atoms: C8_11  and  N2_12 
REMARK    4  A    between atoms: C12_20  and  O2_21 
REMARK    5  A    between atoms: O2_21  and  C13_22 
REMARK    6  A    between atoms: C18_29  and  C19_30 
REMARK    7  A    between atoms: C19_30  and  C20_31 
REMARK    8  A    between atoms: C20_31  and  N5_32 
ROOT
HETATM    1  N1  UNL     1      50.741   6.803   1.976  1.00  0.00    -0.143 N 
HETATM    2  C8  UNL     1      51.622   6.609   0.981  1.00  0.00     0.684 A 
HETATM    3  N3  UNL     1      51.359   7.569   0.076  1.00  0.00    -0.189 N 
ATOM      4  H3  UNL     1      51.860   7.696  -0.804  1.00  0.00     0.184 HD
HETATM    5  C9  UNL     1      50.339   8.337   0.499  1.00  0.00     0.077 A 
HETATM    6  C10 UNL     1      49.666   9.434  -0.007  1.00  0.00     0.035 A 
HETATM    7  C11 UNL     1      48.623  10.035   0.675  1.00  0.00     0.039 A 
HETATM    8  C12 UNL     1      48.213   9.555   1.901  1.00  0.00     0.078 A 
HETATM    9  C25 UNL     1      48.882   8.463   2.405  1.00  0.00     0.070 A 
HETATM   10  C26 UNL     1      49.935   7.850   1.725  1.00  0.00     0.087 A 
ENDROOT
BRANCH   8  11
HETATM   11  O2  UNL     1      47.160  10.153   2.602  1.00  0.00    -0.311 OA
BRANCH  11  12
HETATM   12  C13 UNL     1      46.388  11.168   2.125  1.00  0.00     0.077 A 
HETATM   13  C14 UNL     1      45.390  10.946   1.211  1.00  0.00     0.039 A 
HETATM   14  C15 UNL     1      44.608  11.992   0.730  1.00  0.00     0.033 A 
HETATM   15  C16 UNL     1      44.830  13.282   1.173  1.00  0.00     0.043 A 
HETATM   16  N4  UNL     1      44.264  14.482   0.910  1.00  0.00    -0.365 N 
HETATM   17  C23 UNL     1      45.831  13.484   2.084  1.00  0.00     0.001 A 
HETATM   18  C17 UNL     1      44.868  15.449   1.624  1.00  0.00     0.096 A 
ATOM     19  H4  UNL     1      43.490  14.632   0.263  1.00  0.00     0.165 HD
HETATM   20  C18 UNL     1      45.850  14.835   2.359  1.00  0.00    -0.029 A 
HETATM   21  C24 UNL     1      46.607  12.451   2.562  1.00  0.00     0.051 A 
BRANCH  20  22
HETATM   22  C19 UNL     1      46.795  15.488   3.311  1.00  0.00     0.071 C 
BRANCH  22  23
HETATM   23  C20 UNL     1      46.810  16.990   3.094  1.00  0.00     0.276 C 
BRANCH  23  24
HETATM   24  N5  UNL     1      46.866  17.628   4.374  1.00  0.00     0.080 N 
HETATM   25  C21 UNL     1      45.917  17.060   5.296  1.00  0.00     0.309 C 
HETATM   26  C22 UNL     1      48.228  17.558   4.917  1.00  0.00     0.309 C 
ENDBRANCH  23  24
ENDBRANCH  22  23
ENDBRANCH  20  22
ENDBRANCH  11  12
ENDBRANCH   8  11
BRANCH   1  27
HETATM   27  C7  UNL     1      50.662   6.015   3.146  1.00  0.00     0.093 A 
HETATM   28  C2  UNL     1      51.432   6.339   4.239  1.00  0.00     0.096 A 
HETATM   29  C3  UNL     1      51.334   5.553   5.367  1.00  0.00     0.042 A 
HETATM   30  C4  UNL     1      50.491   4.466   5.418  1.00  0.00     0.045 A 
HETATM   31  C5  UNL     1      49.710   4.126   4.329  1.00  0.00     0.118 A 
HETATM   32  F1  UNL     1      48.863   3.057   4.342  1.00  0.00    -0.206 F 
HETATM   33  C6  UNL     1      49.824   4.925   3.213  1.00  0.00     0.075 A 
BRANCH  28  34
HETATM   34  O1  UNL     1      52.308   7.421   4.264  1.00  0.00    -0.354 OA
HETATM   35  C1  UNL     1      52.019   8.644   4.861  1.00  0.00     0.210 C 
ENDBRANCH  28  34
ENDBRANCH   1  27
BRANCH   2  36
HETATM   36  N2  UNL     1      52.547   5.693   0.892  1.00  0.00    -0.234 N 
ATOM     37  H22 UNL     1      53.499   5.756   1.252  1.00  0.00     0.174 HD
ATOM     38  H21 UNL     1      52.480   4.772   0.459  1.00  0.00     0.174 HD
ENDBRANCH   2  36
TORSDOF 8
ENDMDL
MODEL 2
REMARK VINA RESULT: -8.045436217      4.642      8.626
REMARK  8 active torsions:
REMARK  status: ('A' for Active; 'I' for Inactive)
REMARK    1  A    between atoms: O1_2  and  C2_3 
REMARK    2  A    between atoms: C7_9  and  N1_10 
REMARK    3  A    between atoms: C8_11  and  N2_12 
REMARK    4  A    between atoms: C12_20  and  O2_21 
REMARK    5  A    between atoms: O2_21  and  C13_22 
REMARK    6  A    between atoms: C18_29  and  C19_30 
REMARK    7  A    between atoms: C19_30  and  C20_31 
REMARK    8  A    between atoms: C20_31  and  N5_32 
ROOT
HETATM    1  N1  UNL     1      44.293  13.353  -3.411  1.00  0.00    -0.143 N 
HETATM    2  C8  UNL     1      44.497  13.622  -4.711  1.00  0.00     0.684 A 
HETATM    3  N3  UNL     1      44.461  14.964  -4.811  1.00  0.00    -0.189 N 
ATOM      4  H3  UNL     1      44.584  15.489  -5.676  1.00  0.00     0.184 HD
HETATM    5  C9  UNL     1      44.238  15.511  -3.602  1.00  0.00     0.077 A 
HETATM    6  C10 UNL     1      44.107  16.801  -3.123  1.00  0.00     0.035 A 
HETATM    7  C11 UNL     1      43.876  17.068  -1.786  1.00  0.00     0.039 A 
HETATM    8  C12 UNL     1      43.766  16.043  -0.870  1.00  0.00     0.078 A 
HETATM    9  C25 UNL     1      43.895  14.759  -1.347  1.00  0.00     0.070 A 
HETATM   10  C26 UNL     1      44.129  14.478  -2.693  1.00  0.00     0.087 A 
ENDROOT
BRANCH   8  11
HETATM   11  O2  UNL     1      43.532  16.298   0.485  1.00  0.00    -0.311 OA
BRANCH  11  12
HETATM   12  C13 UNL     1      44.470  16.194   1.467  1.00  0.00     0.077 A 
HETATM   13  C14 UNL     1      44.879  17.284   2.192  1.00  0.00     0.039 A 
HETATM   14  C15 UNL     1      45.838  17.165   3.193  1.00  0.00     0.033 A 
HETATM   15  C16 UNL     1      46.399  15.932   3.471  1.00  0.00     0.043 A 
HETATM   16  N4  UNL     1      47.326  15.493   4.352  1.00  0.00    -0.365 N 
HETATM   17  C23 UNL     1      45.979  14.857   2.736  1.00  0.00     0.001 A 
HETATM   18  C17 UNL     1      47.516  14.169   4.208  1.00  0.00     0.096 A 
ATOM     19  H4  UNL     1      47.812  16.081   5.028  1.00  0.00     0.165 HD
HETATM   20  C18 UNL     1      46.679  13.762   3.199  1.00  0.00    -0.029 A 
HETATM   21  C24 UNL     1      45.029  14.971   1.745  1.00  0.00     0.051 A 
BRANCH  20  22
HETATM   22  C19 UNL     1      46.524  12.376   2.669  1.00  0.00     0.071 C 
BRANCH  22  23
HETATM   23  C20 UNL     1      47.358  12.193   1.415  1.00  0.00     0.276 C 
BRANCH  23  24
HETATM   24  N5  UNL     1      47.424  10.794   1.120  1.00  0.00     0.080 N 
HETATM   25  C21 UNL     1      48.520  10.486   0.240  1.00  0.00     0.309 C 
HETATM   26  C22 UNL     1      47.516  10.017   2.361  1.00  0.00     0.309 C 
ENDBRANCH  23  24
ENDBRANCH  22  23
ENDBRANCH  20  22
ENDBRANCH  11  12
ENDBRANCH   8  11
BRANCH   1  27
HETATM   27  C7  UNL     1      44.254  12.055  -2.854  1.00  0.00     0.093 A 
HETATM   28  C2  UNL     1      45.383  11.534  -2.263  1.00  0.00     0.096 A 
HETATM   29  C3  UNL     1      45.317  10.265  -1.728  1.00  0.00     0.042 A 
HETATM   30  C4  UNL     1      44.158   9.523  -1.773  1.00  0.00     0.045 A 
HETATM   31  C5  UNL     1      43.016  10.030  -2.363  1.00  0.00     0.118 A 
HETATM   32  F1  UNL     1      41.851   9.325  -2.427  1.00  0.00    -0.206 F 
HETATM   33  C6  UNL     1      43.105  11.299  -2.892  1.00  0.00     0.075 A 
BRANCH  28  34
HETATM   34  O1  UNL     1      46.590  12.223  -2.179  1.00  0.00    -0.354 OA
HETATM   35  C1  UNL     1      47.642  12.064  -3.075  1.00  0.00     0.210 C 
ENDBRANCH  28  34
ENDBRANCH   1  27
BRANCH   2  36
HETATM   36  N2  UNL     1      44.694  12.778  -5.687  1.00  0.00    -0.234 N 
ATOM     37  H22 UNL     1      44.434  11.792  -5.696  1.00  0.00     0.174 HD
ATOM     38  H21 UNL     1      45.129  12.954  -6.592  1.00  0.00     0.174 HD
ENDBRANCH   2  36
TORSDOF 8
ENDMDL
MODEL 3
REMARK VINA RESULT: -7.875435795      4.837      9.094
REMARK  8 active torsions:
REMARK  status: ('A' for Active; 'I' for Inactive)
REMARK    1  A    between atoms: O1_2  and  C2_3 
REMARK    2  A    between atoms: C7_9  and  N1_10 
REMARK    3  A    between atoms: C8_11  and  N2_12 
REMARK    4  A    between atoms: C12_20  and  O2_21 
REMARK    5  A    between atoms: O2_21  and  C13_22 
REMARK    6  A    between atoms: C18_29  and  C19_30 
REMARK    7  A    between atoms: C19_30  and  C20_31 
REMARK    8  A    between atoms: C20_31  and  N5_32 
ROOT
HETATM    1  N1  UNL     1      44.144  13.389  -3.612  1.00  0.00    -0.143 N 
HETATM    2  C8  UNL     1      44.468  13.693  -4.879  1.00  0.00     0.684 A 
HETATM    3  N3  UNL     1      44.613  15.031  -4.903  1.00  0.00    -0.189 N 
ATOM      4  H3  UNL     1      44.861  15.577  -5.728  1.00  0.00     0.184 HD
HETATM    5  C9  UNL     1      44.383  15.542  -3.680  1.00  0.00     0.077 A 
HETATM    6  C10 UNL     1      44.389  16.813  -3.136  1.00  0.00     0.035 A 
HETATM    7  C11 UNL     1      44.105  17.042  -1.801  1.00  0.00     0.039 A 
HETATM    8  C12 UNL     1      43.802  15.996  -0.955  1.00  0.00     0.078 A 
HETATM    9  C25 UNL     1      43.795  14.731  -1.497  1.00  0.00     0.070 A 
HETATM   10  C26 UNL     1      44.081  14.489  -2.841  1.00  0.00     0.087 A 
ENDROOT
BRANCH   8  11
HETATM   11  O2  UNL     1      43.513  16.212   0.397  1.00  0.00    -0.311 OA
BRANCH  11  12
HETATM   12  C13 UNL     1      44.425  16.146   1.404  1.00  0.00     0.077 A 
HETATM   13  C14 UNL     1      44.769  17.251   2.141  1.00  0.00     0.039 A 
HETATM   14  C15 UNL     1      45.703  17.170   3.169  1.00  0.00     0.033 A 
HETATM   15  C16 UNL     1      46.305  15.961   3.463  1.00  0.00     0.043 A 
HETATM   16  N4  UNL     1      47.224  15.559   4.371  1.00  0.00    -0.365 N 
HETATM   17  C23 UNL     1      45.951  14.870   2.717  1.00  0.00     0.001 A 
HETATM   18  C17 UNL     1      47.471  14.245   4.233  1.00  0.00     0.096 A 
ATOM     19  H4  UNL     1      47.666  16.167   5.061  1.00  0.00     0.165 HD
HETATM   20  C18 UNL     1      46.682  13.805   3.201  1.00  0.00    -0.029 A 
HETATM   21  C24 UNL     1      45.026  14.947   1.699  1.00  0.00     0.051 A 
BRANCH  20  22
HETATM   22  C19 UNL     1      46.599  12.414   2.667  1.00  0.00     0.071 C 
BRANCH  22  23
HETATM   23  C20 UNL     1      47.437  12.279   1.410  1.00  0.00     0.276 C 
BRANCH  23  24
HETATM   24  N5  UNL     1      47.410  10.909   0.997  1.00  0.00     0.080 N 
HETATM   25  C21 UNL     1      48.419  10.630   0.009  1.00  0.00     0.309 C 
HETATM   26  C22 UNL     1      47.558  10.025   2.159  1.00  0.00     0.309 C 
ENDBRANCH  23  24
ENDBRANCH  22  23
ENDBRANCH  20  22
ENDBRANCH  11  12
ENDBRANCH   8  11
BRANCH   1  27
HETATM   27  C7  UNL     1      43.901  12.082  -3.134  1.00  0.00     0.093 A 
HETATM   28  C2  UNL     1      42.662  11.510  -3.313  1.00  0.00     0.096 A 
HETATM   29  C3  UNL     1      42.453  10.234  -2.838  1.00  0.00     0.042 A 
HETATM   30  C4  UNL     1      43.449   9.531  -2.196  1.00  0.00     0.045 A 
HETATM   31  C5  UNL     1      44.699  10.090  -2.007  1.00  0.00     0.118 A 
HETATM   32  F1  UNL     1      45.709   9.426  -1.377  1.00  0.00    -0.206 F 
HETATM   33  C6  UNL     1      44.885  11.366  -2.490  1.00  0.00     0.075 A 
BRANCH  28  34
HETATM   34  O1  UNL     1      41.607  12.157  -3.951  1.00  0.00    -0.354 OA
HETATM   35  C1  UNL     1      40.265  11.879  -3.714  1.00  0.00     0.210 C 
ENDBRANCH  28  34
ENDBRANCH   1  27
BRANCH   2  36
HETATM   36  N2  UNL     1      44.619  12.880  -5.889  1.00  0.00    -0.234 N 
ATOM     37  H22 UNL     1      44.063  12.048  -6.084  1.00  0.00     0.174 HD
ATOM     38  H21 UNL     1      45.302  12.934  -6.644  1.00  0.00     0.174 HD
ENDBRANCH   2  36
TORSDOF 8
ENDMDL
MODEL 4
REMARK VINA RESULT: -7.862189960      1.670      3.388
REMARK  8 active torsions:
REMARK  status: ('A' for Active; 'I' for Inactive)
REMARK    1  A    between atoms: O1_2  and  C2_3 
REMARK    2  A    between atoms: C7_9  and  N1_10 
REMARK    3  A    between atoms: C8_11  and  N2_12 
REMARK    4  A    between atoms: C12_20  and  O2_21 
REMARK    5  A    between atoms: O2_21  and  C13_22 
REMARK    6  A    between atoms: C18_29  and  C19_30 
REMARK    7  A    between atoms: C19_30  and  C20_31 
REMARK    8  A    between atoms: C20_31  and  N5_32 
ROOT
HETATM    1  N1  UNL     1      49.518   8.175   1.105  1.00  0.00    -0.143 N 
HETATM    2  C8  UNL     1      50.214   7.973  -0.026  1.00  0.00     0.684 A 
HETATM    3  N3  UNL     1      49.960   9.044  -0.800  1.00  0.00    -0.189 N 
ATOM      4  H3  UNL     1      50.344   9.195  -1.733  1.00  0.00     0.184 HD
HETATM    5  C9  UNL     1      49.126   9.887  -0.164  1.00  0.00     0.077 A 
HETATM    6  C10 UNL     1      48.546  11.104  -0.471  1.00  0.00     0.035 A 
HETATM    7  C11 UNL     1      47.703  11.758   0.409  1.00  0.00     0.039 A 
HETATM    8  C12 UNL     1      47.407  11.213   1.641  1.00  0.00     0.078 A 
HETATM    9  C25 UNL     1      47.985  10.002   1.946  1.00  0.00     0.070 A 
HETATM   10  C26 UNL     1      48.836   9.333   1.066  1.00  0.00     0.087 A 
ENDROOT
BRANCH   8  11
HETATM   11  O2  UNL     1      46.557  11.864   2.541  1.00  0.00    -0.311 OA
BRANCH  11  12
HETATM   12  C13 UNL     1      46.577  13.200   2.798  1.00  0.00     0.077 A 
HETATM   13  C14 UNL     1      47.513  13.761   3.630  1.00  0.00     0.039 A 
HETATM   14  C15 UNL     1      47.524  15.128   3.885  1.00  0.00     0.033 A 
HETATM   15  C16 UNL     1      46.579  15.949   3.298  1.00  0.00     0.043 A 
HETATM   16  N4  UNL     1      46.324  17.277   3.340  1.00  0.00    -0.365 N 
HETATM   17  C23 UNL     1      45.653  15.373   2.472  1.00  0.00     0.001 A 
HETATM   18  C17 UNL     1      45.264  17.572   2.566  1.00  0.00     0.096 A 
ATOM     19  H4  UNL     1      46.859  17.957   3.881  1.00  0.00     0.165 HD
HETATM   20  C18 UNL     1      44.837  16.388   2.021  1.00  0.00    -0.029 A 
HETATM   21  C24 UNL     1      45.640  14.018   2.217  1.00  0.00     0.051 A 
BRANCH  20  22
HETATM   22  C19 UNL     1      43.688  16.195   1.088  1.00  0.00     0.071 C 
BRANCH  22  23
HETATM   23  C20 UNL     1      44.132  16.401  -0.347  1.00  0.00     0.276 C 
BRANCH  23  24
HETATM   24  N5  UNL     1      43.531  15.383  -1.154  1.00  0.00     0.080 N 
HETATM   25  C21 UNL     1      42.986  15.920  -2.373  1.00  0.00     0.309 C 
HETATM   26  C22 UNL     1      44.504  14.322  -1.440  1.00  0.00     0.309 C 
ENDBRANCH  23  24
ENDBRANCH  22  23
ENDBRANCH  20  22
ENDBRANCH  11  12
ENDBRANCH   8  11
BRANCH   1  27
HETATM   27  C7  UNL     1      49.497   7.289   2.206  1.00  0.00     0.093 A 
HETATM   28  C2  UNL     1      50.303   7.536   3.294  1.00  0.00     0.096 A 
HETATM   29  C3  UNL     1      50.262   6.656   4.354  1.00  0.00     0.042 A 
HETATM   30  C4  UNL     1      49.440   5.551   4.344  1.00  0.00     0.045 A 
HETATM   31  C5  UNL     1      48.624   5.288   3.259  1.00  0.00     0.118 A 
HETATM   32  F1  UNL     1      47.797   4.205   3.212  1.00  0.00    -0.206 F 
HETATM   33  C6  UNL     1      48.682   6.180   2.211  1.00  0.00     0.075 A 
BRANCH  28  34
HETATM   34  O1  UNL     1      51.160   8.630   3.378  1.00  0.00    -0.354 OA
HETATM   35  C1  UNL     1      51.673   9.128   4.571  1.00  0.00     0.210 C 
ENDBRANCH  28  34
ENDBRANCH   1  27
BRANCH   2  36
HETATM   36  N2  UNL     1      50.982   6.963  -0.329  1.00  0.00    -0.234 N 
ATOM     37  H22 UNL     1      51.247   6.664  -1.267  1.00  0.00     0.174 HD
ATOM     38  H21 UNL     1      51.443   6.311   0.306  1.00  0.00     0.174 HD
ENDBRANCH   2  36
TORSDOF 8
ENDMDL
MODEL 5
REMARK VINA RESULT: -7.822088025      2.494      3.724
REMARK  8 active torsions:
REMARK  status: ('A' for Active; 'I' for Inactive)
REMARK    1  A    between atoms: O1_2  and  C2_3 
REMARK    2  A    between atoms: C7_9  and  N1_10 
REMARK    3  A    between atoms: C8_11  and  N2_12 
REMARK    4  A    between atoms: C12_20  and  O2_21 
REMARK    5  A    between atoms: O2_21  and  C13_22 
REMARK    6  A    between atoms: C18_29  and  C19_30 
REMARK    7  A    between atoms: C19_30  and  C20_31 
REMARK    8  A    between atoms: C20_31  and  N5_32 
ROOT
HETATM    1  N1  UNL     1      51.577   4.702   5.242  1.00  0.00    -0.143 N 
HETATM    2  C8  UNL     1      52.913   4.842   5.255  1.00  0.00     0.684 A 
HETATM    3  N3  UNL     1      53.158   6.011   4.636  1.00  0.00    -0.189 N 
ATOM      4  H3  UNL     1      54.086   6.408   4.484  1.00  0.00     0.184 HD
HETATM    5  C9  UNL     1      52.003   6.580   4.248  1.00  0.00     0.077 A 
HETATM    6  C10 UNL     1      51.661   7.747   3.590  1.00  0.00     0.035 A 
HETATM    7  C11 UNL     1      50.346   8.081   3.321  1.00  0.00     0.039 A 
HETATM    8  C12 UNL     1      49.314   7.249   3.705  1.00  0.00     0.078 A 
HETATM    9  C25 UNL     1      49.655   6.087   4.359  1.00  0.00     0.070 A 
HETATM   10  C26 UNL     1      50.978   5.742   4.636  1.00  0.00     0.087 A 
ENDROOT
BRANCH   8  11
HETATM   11  O2  UNL     1      47.980   7.573   3.440  1.00  0.00    -0.311 OA
BRANCH  11  12
HETATM   12  C13 UNL     1      47.572   8.471   2.501  1.00  0.00     0.077 A 
HETATM   13  C14 UNL     1      47.239   8.084   1.228  1.00  0.00     0.039 A 
HETATM   14  C15 UNL     1      46.824   9.011   0.278  1.00  0.00     0.033 A 
HETATM   15  C16 UNL     1      46.741  10.351   0.608  1.00  0.00     0.043 A 
HETATM   16  N4  UNL     1      46.385  11.469  -0.063  1.00  0.00    -0.365 N 
HETATM   17  C23 UNL     1      47.078  10.719   1.882  1.00  0.00     0.001 A 
HETATM   18  C17 UNL     1      46.480  12.545   0.739  1.00  0.00     0.096 A 
ATOM     19  H4  UNL     1      46.086  11.494  -1.039  1.00  0.00     0.165 HD
HETATM   20  C18 UNL     1      46.914  12.086   1.956  1.00  0.00    -0.029 A 
HETATM   21  C24 UNL     1      47.489   9.803   2.826  1.00  0.00     0.051 A 
BRANCH  20  22
HETATM   22  C19 UNL     1      47.173  12.901   3.179  1.00  0.00     0.071 C 
BRANCH  22  23
HETATM   23  C20 UNL     1      46.755  14.342   2.953  1.00  0.00     0.276 C 
BRANCH  23  24
HETATM   24  N5  UNL     1      47.192  15.118   4.073  1.00  0.00     0.080 N 
HETATM   25  C21 UNL     1      47.911  16.294   3.659  1.00  0.00     0.309 C 
HETATM   26  C22 UNL     1      46.048  15.476   4.919  1.00  0.00     0.309 C 
ENDBRANCH  23  24
ENDBRANCH  22  23
ENDBRANCH  20  22
ENDBRANCH  11  12
ENDBRANCH   8  11
BRANCH   1  27
HETATM   27  C7  UNL     1      50.877   3.606   5.794  1.00  0.00     0.093 A 
HETATM   28  C2  UNL     1      50.854   3.429   7.159  1.00  0.00     0.096 A 
HETATM   29  C3  UNL     1      50.163   2.352   7.670  1.00  0.00     0.042 A 
HETATM   30  C4  UNL     1      49.505   1.463   6.850  1.00  0.00     0.045 A 
HETATM   31  C5  UNL     1      49.517   1.624   5.477  1.00  0.00     0.118 A 
HETATM   32  F1  UNL     1      48.878   0.765   4.634  1.00  0.00    -0.206 F 
HETATM   33  C6  UNL     1      50.215   2.707   4.989  1.00  0.00     0.075 A 
BRANCH  28  34
HETATM   34  O1  UNL     1      51.496   4.284   8.051  1.00  0.00    -0.354 OA
HETATM   35  C1  UNL     1      51.518   4.099   9.429  1.00  0.00     0.210 C 
ENDBRANCH  28  34
ENDBRANCH   1  27
BRANCH   2  36
HETATM   36  N2  UNL     1      53.803   4.030   5.758  1.00  0.00    -0.234 N 
ATOM     37  H22 UNL     1      54.516   3.518   5.241  1.00  0.00     0.174 HD
ATOM     38  H21 UNL     1      53.938   3.774   6.736  1.00  0.00     0.174 HD
ENDBRANCH   2  36
TORSDOF 8
ENDMDL
