MODEL 1
REMARK VINA RESULT: -8.209325507      0.000      0.000
REMARK  8 active torsions:
REMARK  status: ('A' for Active; 'I' for Inactive)
REMARK    1  A    between atoms: C4_4  and  C5_5 
REMARK    2  A    between atoms: C8_10  and  C9_11 
REMARK    3  A    between atoms: C9_11  and  N2_12 
REMARK    4  A    between atoms: C9_11  and  C21_33 
REMARK    5  A    between atoms: N2_12  and  C10_14 
REMARK    6  A    between atoms: C10_14  and  C11_15 
REMARK    7  A    between atoms: C15_20  and  C16_21 
REMARK    8  A    between atoms: C18_25  and  N4_26 
ROOT
HETATM    1  N2  UNL     1      48.094   8.711   2.628  1.00  0.00    -0.409 N 
ATOM      2  H2  UNL     1      48.346   9.572   3.113  1.00  0.00     0.154 HD
ENDROOT
BRANCH   1   3
HETATM    3  C9  UNL     1      47.468   8.743   1.364  1.00  0.00     0.114 C 
BRANCH   3   4
HETATM    4  C8  UNL     1      46.557   9.927   1.251  1.00  0.00    -0.019 A 
HETATM    5  C7  UNL     1      45.421   9.861   0.478  1.00  0.00     0.096 A 
HETATM    6  N1  UNL     1      44.630  10.936   0.401  1.00  0.00    -0.374 N 
HETATM    7  C6  UNL     1      44.942  12.062   1.069  1.00  0.00     0.100 A 
ATOM      8  H1  UNL     1      43.784  10.903  -0.168  1.00  0.00     0.164 HD
HETATM    9  C5  UNL     1      46.066  12.174   1.854  1.00  0.00    -0.009 A 
HETATM   10  C24 UNL     1      46.902  11.088   1.955  1.00  0.00     0.024 A 
BRANCH   9  11
HETATM   11  C4  UNL     1      46.395  13.433   2.588  1.00  0.00    -0.017 A 
HETATM   12  C3  UNL     1      45.818  14.622   2.287  1.00  0.00     0.027 A 
HETATM   13  C2  UNL     1      46.200  15.703   3.029  1.00  0.00    -0.021 A 
HETATM   14  C1  UNL     1      45.693  17.114   2.872  1.00  0.00     0.056 C 
HETATM   15  S1  UNL     1      47.336  15.057   4.115  1.00  0.00    -0.106 SA
HETATM   16  C25 UNL     1      47.307  13.433   3.610  1.00  0.00     0.062 A 
ENDBRANCH   9  11
ENDBRANCH   3   4
BRANCH   3  17
HETATM   17  C21 UNL     1      48.305   8.704   0.142  1.00  0.00     0.004 C 
HETATM   18  C22 UNL     1      49.669   9.315   0.359  1.00  0.00     0.012 C 
HETATM   19  C23 UNL     1      48.363   7.416  -0.602  1.00  0.00     0.012 C 
ENDBRANCH   3  17
ENDBRANCH   1   3
BRANCH   1  20
HETATM   20  C10 UNL     1      48.365   7.424   3.209  1.00  0.00     0.153 C 
BRANCH  20  21
HETATM   21  C11 UNL     1      49.747   7.448   3.836  1.00  0.00    -0.037 A 
HETATM   22  C12 UNL     1      50.317   8.692   4.008  1.00  0.00     0.051 A 
HETATM   23  C13 UNL     1      51.582   8.724   4.580  1.00  0.00     0.117 A 
HETATM   24  F1  UNL     1      52.141   9.948   4.749  1.00  0.00    -0.206 F 
HETATM   25  C14 UNL     1      52.233   7.564   4.958  1.00  0.00     0.054 A 
HETATM   26  C15 UNL     1      51.658   6.321   4.783  1.00  0.00    -0.020 A 
HETATM   27  C20 UNL     1      50.396   6.290   4.211  1.00  0.00     0.021 A 
BRANCH  26  28
HETATM   28  C16 UNL     1      52.314   5.077   5.168  1.00  0.00     0.006 A 
HETATM   29  C17 UNL     1      53.493   4.638   4.588  1.00  0.00     0.119 A 
HETATM   30  N3  UNL     1      54.048   3.479   4.990  1.00  0.00    -0.201 N 
HETATM   31  C18 UNL     1      53.495   2.705   5.957  1.00  0.00     0.675 A 
ATOM     32  H3  UNL     1      54.916   3.172   4.550  1.00  0.00     0.183 HD
HETATM   33  N5  UNL     1      52.352   3.104   6.539  1.00  0.00    -0.201 N 
HETATM   34  C19 UNL     1      51.790   4.250   6.150  1.00  0.00     0.119 A 
ATOM     35  H5  UNL     1      51.920   2.538   7.268  1.00  0.00     0.183 HD
BRANCH  31  36
HETATM   36  N4  UNL     1      54.032   1.604   6.329  1.00  0.00    -0.234 N 
ATOM     37  H42 UNL     1      54.995   1.610   6.667  1.00  0.00     0.174 HD
ATOM     38  H41 UNL     1      53.524   0.720   6.298  1.00  0.00     0.174 HD
ENDBRANCH  31  36
ENDBRANCH  26  28
ENDBRANCH  20  21
ENDBRANCH   1  20
TORSDOF 8
ENDMDL
MODEL 2
REMARK VINA RESULT: -8.026865426      1.864      2.315
REMARK  8 active torsions:
REMARK  status: ('A' for Active; 'I' for Inactive)
REMARK    1  A    between atoms: C4_4  and  C5_5 
REMARK    2  A    between atoms: C8_10  and  C9_11 
REMARK    3  A    between atoms: C9_11  and  N2_12 
REMARK    4  A    between atoms: C9_11  and  C21_33 
REMARK    5  A    between atoms: N2_12  and  C10_14 
REMARK    6  A    between atoms: C10_14  and  C11_15 
REMARK    7  A    between atoms: C15_20  and  C16_21 
REMARK    8  A    between atoms: C18_25  and  N4_26 
ROOT
HETATM    1  N2  UNL     1      49.412   8.948   2.551  1.00  0.00    -0.409 N 
ATOM      2  H2  UNL     1      49.928   9.628   1.993  1.00  0.00     0.154 HD
ENDROOT
BRANCH   1   3
HETATM    3  C9  UNL     1      48.242   8.337   2.057  1.00  0.00     0.114 C 
BRANCH   3   4
HETATM    4  C8  UNL     1      47.239   9.367   1.636  1.00  0.00    -0.019 A 
HETATM    5  C7  UNL     1      46.281   9.065   0.695  1.00  0.00     0.096 A 
HETATM    6  N1  UNL     1      45.403  10.009   0.345  1.00  0.00    -0.374 N 
HETATM    7  C6  UNL     1      45.455  11.233   0.904  1.00  0.00     0.100 A 
ATOM      8  H1  UNL     1      44.686   9.801  -0.351  1.00  0.00     0.164 HD
HETATM    9  C5  UNL     1      46.394  11.580   1.847  1.00  0.00    -0.009 A 
HETATM   10  C24 UNL     1      47.313  10.634   2.231  1.00  0.00     0.024 A 
BRANCH   9  11
HETATM   11  C4  UNL     1      46.435  12.944   2.455  1.00  0.00    -0.017 A 
HETATM   12  C3  UNL     1      45.650  13.958   2.021  1.00  0.00     0.027 A 
HETATM   13  C2  UNL     1      45.779  15.160   2.656  1.00  0.00    -0.021 A 
HETATM   14  C1  UNL     1      45.011  16.420   2.343  1.00  0.00     0.056 C 
HETATM   15  S1  UNL     1      46.971  14.862   3.829  1.00  0.00    -0.106 SA
HETATM   16  C25 UNL     1      47.284  13.224   3.494  1.00  0.00     0.062 A 
ENDBRANCH   9  11
ENDBRANCH   3   4
BRANCH   3  17
HETATM   17  C21 UNL     1      48.352   7.346   0.961  1.00  0.00     0.004 C 
HETATM   18  C22 UNL     1      49.478   7.666   0.007  1.00  0.00     0.012 C 
HETATM   19  C23 UNL     1      48.309   5.906   1.337  1.00  0.00     0.012 C 
ENDBRANCH   3  17
ENDBRANCH   1   3
BRANCH   1  20
HETATM   20  C10 UNL     1      49.854   8.582   3.870  1.00  0.00     0.153 C 
BRANCH  20  21
HETATM   21  C11 UNL     1      50.605   7.265   3.790  1.00  0.00    -0.037 A 
HETATM   22  C12 UNL     1      51.643   7.210   2.884  1.00  0.00     0.051 A 
HETATM   23  C13 UNL     1      52.336   6.009   2.804  1.00  0.00     0.117 A 
HETATM   24  F1  UNL     1      53.357   5.957   1.913  1.00  0.00    -0.206 F 
HETATM   25  C14 UNL     1      51.999   4.926   3.595  1.00  0.00     0.054 A 
HETATM   26  C15 UNL     1      50.958   4.987   4.499  1.00  0.00    -0.020 A 
HETATM   27  C20 UNL     1      50.266   6.186   4.579  1.00  0.00     0.021 A 
BRANCH  26  28
HETATM   28  C16 UNL     1      50.572   3.867   5.349  1.00  0.00     0.006 A 
HETATM   29  C17 UNL     1      49.525   3.014   5.040  1.00  0.00     0.119 A 
HETATM   30  N3  UNL     1      49.221   1.997   5.868  1.00  0.00    -0.201 N 
HETATM   31  C18 UNL     1      49.906   1.763   7.015  1.00  0.00     0.675 A 
ATOM     32  H3  UNL     1      48.446   1.380   5.623  1.00  0.00     0.183 HD
HETATM   33  N5  UNL     1      50.927   2.571   7.342  1.00  0.00    -0.201 N 
HETATM   34  C19 UNL     1      51.240   3.584   6.531  1.00  0.00     0.119 A 
ATOM     35  H5  UNL     1      51.457   2.413   8.199  1.00  0.00     0.183 HD
BRANCH  31  36
HETATM   36  N4  UNL     1      49.605   0.792   7.794  1.00  0.00    -0.234 N 
ATOM     37  H42 UNL     1      48.645   0.449   7.812  1.00  0.00     0.174 HD
ATOM     38  H41 UNL     1      50.300   0.352   8.397  1.00  0.00     0.174 HD
ENDBRANCH  31  36
ENDBRANCH  26  28
ENDBRANCH  20  21
ENDBRANCH   1  20
TORSDOF 8
ENDMDL
MODEL 3
REMARK VINA RESULT: -7.981376498      1.978      3.112
REMARK  8 active torsions:
REMARK  status: ('A' for Active; 'I' for Inactive)
REMARK    1  A    between atoms: C4_4  and  C5_5 
REMARK    2  A    between atoms: C8_10  and  C9_11 
REMARK    3  A    between atoms: C9_11  and  N2_12 
REMARK    4  A    between atoms: C9_11  and  C21_33 
REMARK    5  A    between atoms: N2_12  and  C10_14 
REMARK    6  A    between atoms: C10_14  and  C11_15 
REMARK    7  A    between atoms: C15_20  and  C16_21 
REMARK    8  A    between atoms: C18_25  and  N4_26 
ROOT
HETATM    1  N2  UNL     1      46.961  10.732   1.161  1.00  0.00    -0.409 N 
ATOM      2  H2  UNL     1      47.727  11.207   0.683  1.00  0.00     0.154 HD
ENDROOT
BRANCH   1   3
HETATM    3  C9  UNL     1      45.628  10.878   0.724  1.00  0.00     0.114 C 
BRANCH   3   4
HETATM    4  C8  UNL     1      45.252  12.325   0.635  1.00  0.00    -0.019 A 
HETATM    5  C7  UNL     1      44.597  12.809  -0.474  1.00  0.00     0.096 A 
HETATM    6  N1  UNL     1      44.276  14.105  -0.518  1.00  0.00    -0.374 N 
HETATM    7  C6  UNL     1      44.588  14.922   0.506  1.00  0.00     0.100 A 
ATOM      8  H1  UNL     1      43.790  14.479  -1.333  1.00  0.00     0.164 HD
HETATM    9  C5  UNL     1      45.242  14.483   1.634  1.00  0.00    -0.009 A 
HETATM   10  C24 UNL     1      45.587  13.156   1.713  1.00  0.00     0.024 A 
BRANCH   9  11
HETATM   11  C4  UNL     1      45.580  15.406   2.759  1.00  0.00    -0.017 A 
HETATM   12  C3  UNL     1      46.857  15.719   3.085  1.00  0.00     0.027 A 
HETATM   13  C2  UNL     1      47.039  16.574   4.134  1.00  0.00    -0.021 A 
HETATM   14  C1  UNL     1      48.364  17.058   4.668  1.00  0.00     0.056 C 
HETATM   15  S1  UNL     1      45.455  16.922   4.641  1.00  0.00    -0.106 SA
HETATM   16  C25 UNL     1      44.593  15.980   3.517  1.00  0.00     0.062 A 
ENDBRANCH   9  11
ENDBRANCH   3   4
BRANCH   3  17
HETATM   17  C21 UNL     1      45.206  10.227  -0.539  1.00  0.00     0.004 C 
HETATM   18  C22 UNL     1      46.377   9.873  -1.423  1.00  0.00     0.012 C 
HETATM   19  C23 UNL     1      44.208   9.127  -0.437  1.00  0.00     0.012 C 
ENDBRANCH   3  17
ENDBRANCH   1   3
BRANCH   1  20
HETATM   20  C10 UNL     1      47.204   9.891   2.301  1.00  0.00     0.153 C 
BRANCH  20  21
HETATM   21  C11 UNL     1      48.546   9.202   2.130  1.00  0.00    -0.037 A 
HETATM   22  C12 UNL     1      49.237   9.495   0.972  1.00  0.00     0.051 A 
HETATM   23  C13 UNL     1      50.465   8.870   0.805  1.00  0.00     0.117 A 
HETATM   24  F1  UNL     1      51.144   9.159  -0.333  1.00  0.00    -0.206 F 
HETATM   25  C14 UNL     1      50.967   7.998   1.754  1.00  0.00     0.054 A 
HETATM   26  C15 UNL     1      50.271   7.708   2.910  1.00  0.00    -0.020 A 
HETATM   27  C20 UNL     1      49.044   8.333   3.077  1.00  0.00     0.021 A 
BRANCH  26  28
HETATM   28  C16 UNL     1      50.766   6.795   3.933  1.00  0.00     0.006 A 
HETATM   29  C17 UNL     1      52.095   6.754   4.323  1.00  0.00     0.119 A 
HETATM   30  N3  UNL     1      52.488   5.886   5.275  1.00  0.00    -0.201 N 
HETATM   31  C18 UNL     1      51.626   5.033   5.883  1.00  0.00     0.675 A 
ATOM     32  H3  UNL     1      53.471   5.870   5.549  1.00  0.00     0.183 HD
HETATM   33  N5  UNL     1      50.331   5.050   5.528  1.00  0.00    -0.201 N 
HETATM   34  C19 UNL     1      49.927   5.904   4.585  1.00  0.00     0.119 A 
ATOM     35  H5  UNL     1      49.666   4.418   5.972  1.00  0.00     0.183 HD
BRANCH  31  36
HETATM   36  N4  UNL     1      52.013   4.213   6.787  1.00  0.00    -0.234 N 
ATOM     37  H42 UNL     1      52.483   3.351   6.507  1.00  0.00     0.174 HD
ATOM     38  H41 UNL     1      51.867   4.397   7.780  1.00  0.00     0.174 HD
ENDBRANCH  31  36
ENDBRANCH  26  28
ENDBRANCH  20  21
ENDBRANCH   1  20
TORSDOF 8
ENDMDL
MODEL 4
REMARK VINA RESULT: -7.955508144      3.796     10.163
REMARK  8 active torsions:
REMARK  status: ('A' for Active; 'I' for Inactive)
REMARK    1  A    between atoms: C4_4  and  C5_5 
REMARK    2  A    between atoms: C8_10  and  C9_11 
REMARK    3  A    between atoms: C9_11  and  N2_12 
REMARK    4  A    between atoms: C9_11  and  C21_33 
REMARK    5  A    between atoms: N2_12  and  C10_14 
REMARK    6  A    between atoms: C10_14  and  C11_15 
REMARK    7  A    between atoms: C15_20  and  C16_21 
REMARK    8  A    between atoms: C18_25  and  N4_26 
ROOT
HETATM    1  N2  UNL     1      49.416   9.416   1.887  1.00  0.00    -0.409 N 
ATOM      2  H2  UNL     1      49.524  10.017   2.703  1.00  0.00     0.154 HD
ENDROOT
BRANCH   1   3
HETATM    3  C9  UNL     1      49.776   8.053   1.932  1.00  0.00     0.114 C 
BRANCH   3   4
HETATM    4  C8  UNL     1      50.783   7.804   3.013  1.00  0.00    -0.019 A 
HETATM    5  C7  UNL     1      51.100   8.795   3.913  1.00  0.00     0.096 A 
HETATM    6  N1  UNL     1      52.002   8.536   4.865  1.00  0.00    -0.374 N 
HETATM    7  C6  UNL     1      52.588   7.327   4.940  1.00  0.00     0.100 A 
ATOM      8  H1  UNL     1      52.248   9.261   5.539  1.00  0.00     0.164 HD
HETATM    9  C5  UNL     1      52.302   6.306   4.063  1.00  0.00    -0.009 A 
HETATM   10  C24 UNL     1      51.380   6.538   3.072  1.00  0.00     0.024 A 
BRANCH   9  11
HETATM   11  C4  UNL     1      52.964   4.971   4.164  1.00  0.00    -0.017 A 
HETATM   12  C3  UNL     1      52.780   4.146   5.223  1.00  0.00     0.027 A 
HETATM   13  C2  UNL     1      53.439   2.950   5.201  1.00  0.00    -0.021 A 
HETATM   14  C1  UNL     1      53.382   1.882   6.265  1.00  0.00     0.056 C 
HETATM   15  S1  UNL     1      54.289   2.993   3.730  1.00  0.00    -0.106 SA
HETATM   16  C25 UNL     1      53.795   4.522   3.172  1.00  0.00     0.062 A 
ENDBRANCH   9  11
ENDBRANCH   3   4
BRANCH   3  17
HETATM   17  C21 UNL     1      48.714   7.029   2.065  1.00  0.00     0.004 C 
HETATM   18  C22 UNL     1      47.623   7.452   3.020  1.00  0.00     0.012 C 
HETATM   19  C23 UNL     1      48.180   6.435   0.809  1.00  0.00     0.012 C 
ENDBRANCH   3  17
ENDBRANCH   1   3
BRANCH   1  20
HETATM   20  C10 UNL     1      48.892   9.930   0.651  1.00  0.00     0.153 C 
BRANCH  20  21
HETATM   21  C11 UNL     1      47.578  10.638   0.929  1.00  0.00    -0.037 A 
HETATM   22  C12 UNL     1      46.438  10.000   0.486  1.00  0.00     0.051 A 
HETATM   23  C13 UNL     1      45.230  10.640   0.735  1.00  0.00     0.117 A 
HETATM   24  F1  UNL     1      44.110  10.012   0.300  1.00  0.00    -0.206 F 
HETATM   25  C14 UNL     1      45.179  11.854   1.394  1.00  0.00     0.054 A 
HETATM   26  C15 UNL     1      46.323  12.488   1.834  1.00  0.00    -0.020 A 
HETATM   27  C20 UNL     1      47.528  11.849   1.586  1.00  0.00     0.021 A 
BRANCH  26  28
HETATM   28  C16 UNL     1      46.309  13.768   2.532  1.00  0.00     0.006 A 
HETATM   29  C17 UNL     1      45.394  14.769   2.248  1.00  0.00     0.119 A 
HETATM   30  N3  UNL     1      45.435  15.929   2.931  1.00  0.00    -0.201 N 
HETATM   31  C18 UNL     1      46.348  16.168   3.904  1.00  0.00     0.675 A 
ATOM     32  H3  UNL     1      44.753  16.654   2.707  1.00  0.00     0.183 HD
HETATM   33  N5  UNL     1      47.249  15.218   4.203  1.00  0.00    -0.201 N 
HETATM   34  C19 UNL     1      47.221  14.063   3.534  1.00  0.00     0.119 A 
ATOM     35  H5  UNL     1      47.944  15.376   4.932  1.00  0.00     0.183 HD
BRANCH  31  36
HETATM   36  N4  UNL     1      46.377  17.277   4.545  1.00  0.00    -0.234 N 
ATOM     37  H42 UNL     1      47.101  17.426   5.247  1.00  0.00     0.174 HD
ATOM     38  H41 UNL     1      45.695  18.015   4.372  1.00  0.00     0.174 HD
ENDBRANCH  31  36
ENDBRANCH  26  28
ENDBRANCH  20  21
ENDBRANCH   1  20
TORSDOF 8
ENDMDL
MODEL 5
REMARK VINA RESULT: -7.867918051      1.146      1.283
REMARK  8 active torsions:
REMARK  status: ('A' for Active; 'I' for Inactive)
REMARK    1  A    between atoms: C4_4  and  C5_5 
REMARK    2  A    between atoms: C8_10  and  C9_11 
REMARK    3  A    between atoms: C9_11  and  N2_12 
REMARK    4  A    between atoms: C9_11  and  C21_33 
REMARK    5  A    between atoms: N2_12  and  C10_14 
REMARK    6  A    between atoms: C10_14  and  C11_15 
REMARK    7  A    between atoms: C15_20  and  C16_21 
REMARK    8  A    between atoms: C18_25  and  N4_26 
ROOT
HETATM    1  N2  UNL     1      48.039   9.009   2.501  1.00  0.00    -0.409 N 
ATOM      2  H2  UNL     1      48.578   9.765   2.921  1.00  0.00     0.154 HD
ENDROOT
BRANCH   1   3
HETATM    3  C9  UNL     1      47.423   9.166   1.242  1.00  0.00     0.114 C 
BRANCH   3   4
HETATM    4  C8  UNL     1      46.511  10.356   1.239  1.00  0.00    -0.019 A 
HETATM    5  C7  UNL     1      45.314  10.315   0.563  1.00  0.00     0.096 A 
HETATM    6  N1  UNL     1      44.526  11.395   0.584  1.00  0.00    -0.374 N 
HETATM    7  C6  UNL     1      44.899  12.500   1.256  1.00  0.00     0.100 A 
ATOM      8  H1  UNL     1      43.635  11.381   0.088  1.00  0.00     0.164 HD
HETATM    9  C5  UNL     1      46.086  12.586   1.945  1.00  0.00    -0.009 A 
HETATM   10  C24 UNL     1      46.921  11.495   1.945  1.00  0.00     0.024 A 
BRANCH   9  11
HETATM   11  C4  UNL     1      46.481  13.822   2.685  1.00  0.00    -0.017 A 
HETATM   12  C3  UNL     1      45.972  15.042   2.388  1.00  0.00     0.027 A 
HETATM   13  C2  UNL     1      46.411  16.098   3.134  1.00  0.00    -0.021 A 
HETATM   14  C1  UNL     1      45.983  17.536   2.982  1.00  0.00     0.056 C 
HETATM   15  S1  UNL     1      47.507  15.386   4.220  1.00  0.00    -0.106 SA
HETATM   16  C25 UNL     1      47.390  13.768   3.709  1.00  0.00     0.062 A 
ENDBRANCH   9  11
ENDBRANCH   3   4
BRANCH   3  17
HETATM   17  C21 UNL     1      48.269   9.249   0.028  1.00  0.00     0.004 C 
HETATM   18  C22 UNL     1      49.740   9.336   0.358  1.00  0.00     0.012 C 
HETATM   19  C23 UNL     1      47.982   8.286  -1.069  1.00  0.00     0.012 C 
ENDBRANCH   3  17
ENDBRANCH   1   3
BRANCH   1  20
HETATM   20  C10 UNL     1      47.880   7.747   3.171  1.00  0.00     0.153 C 
BRANCH  20  21
HETATM   21  C11 UNL     1      49.200   7.358   3.810  1.00  0.00    -0.037 A 
HETATM   22  C12 UNL     1      50.155   8.351   3.886  1.00  0.00     0.051 A 
HETATM   23  C13 UNL     1      51.368   8.005   4.468  1.00  0.00     0.117 A 
HETATM   24  F1  UNL     1      52.306   8.981   4.543  1.00  0.00    -0.206 F 
HETATM   25  C14 UNL     1      51.601   6.729   4.947  1.00  0.00     0.054 A 
HETATM   26  C15 UNL     1      50.642   5.739   4.868  1.00  0.00    -0.020 A 
HETATM   27  C20 UNL     1      49.432   6.085   4.286  1.00  0.00     0.021 A 
BRANCH  26  28
HETATM   28  C16 UNL     1      50.851   4.383   5.361  1.00  0.00     0.006 A 
HETATM   29  C17 UNL     1      50.345   3.264   4.719  1.00  0.00     0.119 A 
HETATM   30  N3  UNL     1      50.575   2.038   5.226  1.00  0.00    -0.201 N 
HETATM   31  C18 UNL     1      51.294   1.843   6.360  1.00  0.00     0.675 A 
ATOM     32  H3  UNL     1      50.195   1.226   4.740  1.00  0.00     0.183 HD
HETATM   33  N5  UNL     1      51.798   2.908   7.005  1.00  0.00    -0.201 N 
HETATM   34  C19 UNL     1      51.577   4.130   6.514  1.00  0.00     0.119 A 
ATOM     35  H5  UNL     1      52.342   2.785   7.859  1.00  0.00     0.183 HD
BRANCH  31  36
HETATM   36  N4  UNL     1      51.504   0.672   6.833  1.00  0.00    -0.234 N 
ATOM     37  H42 UNL     1      52.288   0.526   7.469  1.00  0.00     0.174 HD
ATOM     38  H41 UNL     1      50.909  -0.120   6.592  1.00  0.00     0.174 HD
ENDBRANCH  31  36
ENDBRANCH  26  28
ENDBRANCH  20  21
ENDBRANCH   1  20
TORSDOF 8
ENDMDL
