MODEL 1
REMARK VINA RESULT: -7.071600597      0.000      0.000
REMARK  10 active torsions:
REMARK  status: ('A' for Active; 'I' for Inactive)
REMARK    1  A    between atoms: O1_2  and  C2_3 
REMARK    2  A    between atoms: C3_4  and  C5_6 
REMARK    3  A    between atoms: C5_6  and  C6_7 
REMARK    4  A    between atoms: C6_7  and  N1_8 
REMARK    5  A    between atoms: N1_8  and  C7_10 
REMARK    6  A    between atoms: C12_18  and  C13_19 
REMARK    7  A    between atoms: C13_19  and  O3_21 
REMARK    8  A    between atoms: C15_23  and  O4_24 
REMARK    9  A    between atoms: C15_23  and  C16_26 
REMARK       I    between atoms: C16_26  and  N3_28 
REMARK   10  A    between atoms: N3_28  and  N4_30 
ROOT
HETATM    1  C7  UNL     1     -18.767  41.291   1.684  1.00  0.00     0.119 A 
HETATM    2  C8  UNL     1     -17.760  40.873   0.927  1.00  0.00     0.077 A 
HETATM    3  S1  UNL     1     -16.467  41.623   0.056  1.00  0.00    -0.071 SA
HETATM    4  C9  UNL     1     -15.750  40.214  -0.585  1.00  0.00     0.048 A 
HETATM    5  C10 UNL     1     -14.537  40.102  -1.472  1.00  0.00     0.076 C 
HETATM    6  N2  UNL     1     -16.519  39.263  -0.112  1.00  0.00    -0.352 N 
ATOM      7  H2  UNL     1     -16.316  38.290  -0.343  1.00  0.00     0.166 HD
HETATM    8  C11 UNL     1     -17.544  39.545   0.654  1.00  0.00     0.071 A 
HETATM    9  C12 UNL     1     -18.398  38.641   1.182  1.00  0.00     0.110 A 
HETATM   10  C15 UNL     1     -19.545  38.997   2.001  1.00  0.00     0.255 A 
HETATM   11  N5  UNL     1     -19.681  40.405   2.290  1.00  0.00    -0.332 N 
ATOM     12  H5  UNL     1     -20.413  40.747   2.912  1.00  0.00     0.165 HD
ENDROOT
BRANCH   1  13
HETATM   13  N1  UNL     1     -18.867  42.716   1.868  1.00  0.00    -0.375 N 
ATOM     14  H1  UNL     1     -19.578  43.259   1.376  1.00  0.00     0.161 HD
BRANCH  13  15
HETATM   15  C6  UNL     1     -17.943  43.350   2.759  1.00  0.00     0.125 C 
BRANCH  15  16
HETATM   16  C5  UNL     1     -18.064  43.091   4.200  1.00  0.00     0.055 C 
BRANCH  16  17
HETATM   17  C3  UNL     1     -17.446  41.837   4.714  1.00  0.00    -0.060 C 
HETATM   18  C2  UNL     1     -16.126  41.676   4.540  1.00  0.00     0.136 C 
HETATM   19  C4  UNL     1     -18.194  40.759   5.373  1.00  0.00     0.045 C 
BRANCH  18  20
HETATM   20  O1  UNL     1     -15.440  40.615   4.921  1.00  0.00    -0.368 OA
HETATM   21  C1  UNL     1     -14.359  39.864   4.654  1.00  0.00     0.208 C 
ENDBRANCH  18  20
ENDBRANCH  16  17
ENDBRANCH  15  16
ENDBRANCH  13  15
ENDBRANCH   1  13
BRANCH  10  22
HETATM   22  O4  UNL     1     -19.553  38.269   3.203  1.00  0.00    -0.359 OA
ATOM     23  H4  UNL     1     -20.401  37.868   3.355  1.00  0.00     0.213 HD
ENDBRANCH  10  22
BRANCH  10  24
HETATM   24  C16 UNL     1     -20.768  38.549   1.225  1.00  0.00     0.297 C 
HETATM   25  O5  UNL     1     -20.949  38.982   0.050  1.00  0.00    -0.266 OA
HETATM   26  N3  UNL     1     -21.683  37.670   1.804  1.00  0.00    -0.272 N 
ATOM     27  H3  UNL     1     -21.492  37.350   2.753  1.00  0.00     0.189 HD
BRANCH  26  28
HETATM   28  N4  UNL     1     -22.835  37.197   1.187  1.00  0.00    -0.342 N 
ATOM     29  H42 UNL     1     -22.984  36.188   1.218  1.00  0.00     0.176 HD
ATOM     30  H41 UNL     1     -23.527  37.779   0.716  1.00  0.00     0.176 HD
ENDBRANCH  26  28
ENDBRANCH  10  24
BRANCH   9  31
HETATM   31  C13 UNL     1     -18.182  37.197   0.903  1.00  0.00     0.296 C 
HETATM   32  O2  UNL     1     -18.231  36.743  -0.249  1.00  0.00    -0.259 OA
BRANCH  31  33
HETATM   33  O3  UNL     1     -17.919  36.307   1.929  1.00  0.00    -0.323 OA
HETATM   34  C14 UNL     1     -17.235  35.069   1.692  1.00  0.00     0.213 C 
ENDBRANCH  31  33
ENDBRANCH   9  31
TORSDOF 10
ENDMDL
MODEL 2
REMARK VINA RESULT: -6.934544159      2.868      4.228
REMARK  10 active torsions:
REMARK  status: ('A' for Active; 'I' for Inactive)
REMARK    1  A    between atoms: O1_2  and  C2_3 
REMARK    2  A    between atoms: C3_4  and  C5_6 
REMARK    3  A    between atoms: C5_6  and  C6_7 
REMARK    4  A    between atoms: C6_7  and  N1_8 
REMARK    5  A    between atoms: N1_8  and  C7_10 
REMARK    6  A    between atoms: C12_18  and  C13_19 
REMARK    7  A    between atoms: C13_19  and  O3_21 
REMARK    8  A    between atoms: C15_23  and  O4_24 
REMARK    9  A    between atoms: C15_23  and  C16_26 
REMARK       I    between atoms: C16_26  and  N3_28 
REMARK   10  A    between atoms: N3_28  and  N4_30 
ROOT
HETATM    1  C7  UNL     1     -20.975  38.451   1.518  1.00  0.00     0.119 A 
HETATM    2  C8  UNL     1     -20.287  39.227   0.689  1.00  0.00     0.077 A 
HETATM    3  S1  UNL     1     -19.176  40.543   0.853  1.00  0.00    -0.071 SA
HETATM    4  C9  UNL     1     -18.887  40.831  -0.802  1.00  0.00     0.048 A 
HETATM    5  C10 UNL     1     -17.990  41.868  -1.429  1.00  0.00     0.076 C 
HETATM    6  N2  UNL     1     -19.637  39.927  -1.384  1.00  0.00    -0.352 N 
ATOM      7  H2  UNL     1     -19.658  39.869  -2.403  1.00  0.00     0.166 HD
HETATM    8  C11 UNL     1     -20.362  39.096  -0.676  1.00  0.00     0.071 A 
HETATM    9  C12 UNL     1     -21.171  38.139  -1.179  1.00  0.00     0.110 A 
HETATM   10  C15 UNL     1     -21.985  37.257  -0.359  1.00  0.00     0.255 A 
HETATM   11  N5  UNL     1     -21.818  37.416   1.066  1.00  0.00    -0.332 N 
ATOM     12  H5  UNL     1     -22.293  36.798   1.725  1.00  0.00     0.165 HD
ENDROOT
BRANCH   1  13
HETATM   13  N1  UNL     1     -20.800  38.720   2.922  1.00  0.00    -0.375 N 
ATOM     14  H1  UNL     1     -21.598  38.945   3.516  1.00  0.00     0.161 HD
BRANCH  13  15
HETATM   15  C6  UNL     1     -19.474  38.663   3.462  1.00  0.00     0.125 C 
BRANCH  15  16
HETATM   16  C5  UNL     1     -19.219  39.291   4.766  1.00  0.00     0.055 C 
BRANCH  16  17
HETATM   17  C3  UNL     1     -18.310  40.470   4.781  1.00  0.00    -0.060 C 
HETATM   18  C2  UNL     1     -18.837  41.667   4.482  1.00  0.00     0.136 C 
HETATM   19  C4  UNL     1     -16.873  40.401   5.076  1.00  0.00     0.045 C 
BRANCH  18  20
HETATM   20  O1  UNL     1     -18.158  42.798   4.433  1.00  0.00    -0.368 OA
HETATM   21  C1  UNL     1     -17.748  43.853   5.156  1.00  0.00     0.208 C 
ENDBRANCH  18  20
ENDBRANCH  16  17
ENDBRANCH  15  16
ENDBRANCH  13  15
ENDBRANCH   1  13
BRANCH  10  22
HETATM   22  O4  UNL     1     -21.782  35.911  -0.708  1.00  0.00    -0.359 OA
ATOM     23  H4  UNL     1     -22.551  35.388  -0.515  1.00  0.00     0.213 HD
ENDBRANCH  10  22
BRANCH  10  24
HETATM   24  C16 UNL     1     -23.426  37.574  -0.708  1.00  0.00     0.297 C 
HETATM   25  O5  UNL     1     -23.791  38.782  -0.799  1.00  0.00    -0.266 OA
HETATM   26  N3  UNL     1     -24.338  36.541  -0.925  1.00  0.00    -0.272 N 
ATOM     27  H3  UNL     1     -23.994  35.584  -0.840  1.00  0.00     0.189 HD
BRANCH  26  28
HETATM   28  N4  UNL     1     -25.678  36.715  -1.247  1.00  0.00    -0.342 N 
ATOM     29  H42 UNL     1     -26.281  35.898  -1.138  1.00  0.00     0.176 HD
ATOM     30  H41 UNL     1     -26.092  37.586  -1.578  1.00  0.00     0.176 HD
ENDBRANCH  26  28
ENDBRANCH  10  24
BRANCH   9  31
HETATM   31  C13 UNL     1     -21.265  37.976  -2.654  1.00  0.00     0.296 C 
HETATM   32  O2  UNL     1     -20.795  36.984  -3.230  1.00  0.00    -0.259 OA
BRANCH  31  33
HETATM   33  O3  UNL     1     -21.886  38.933  -3.436  1.00  0.00    -0.323 OA
HETATM   34  C14 UNL     1     -22.991  38.605  -4.289  1.00  0.00     0.213 C 
ENDBRANCH  31  33
ENDBRANCH   9  31
TORSDOF 10
ENDMDL
MODEL 3
REMARK VINA RESULT: -6.892358294      4.608      8.177
REMARK  10 active torsions:
REMARK  status: ('A' for Active; 'I' for Inactive)
REMARK    1  A    between atoms: O1_2  and  C2_3 
REMARK    2  A    between atoms: C3_4  and  C5_6 
REMARK    3  A    between atoms: C5_6  and  C6_7 
REMARK    4  A    between atoms: C6_7  and  N1_8 
REMARK    5  A    between atoms: N1_8  and  C7_10 
REMARK    6  A    between atoms: C12_18  and  C13_19 
REMARK    7  A    between atoms: C13_19  and  O3_21 
REMARK    8  A    between atoms: C15_23  and  O4_24 
REMARK    9  A    between atoms: C15_23  and  C16_26 
REMARK       I    between atoms: C16_26  and  N3_28 
REMARK   10  A    between atoms: N3_28  and  N4_30 
ROOT
HETATM    1  C7  UNL     1     -20.582  36.926  -1.732  1.00  0.00     0.119 A 
HETATM    2  C8  UNL     1     -21.736  37.021  -1.082  1.00  0.00     0.077 A 
HETATM    3  S1  UNL     1     -23.393  36.668  -1.435  1.00  0.00    -0.071 SA
HETATM    4  C9  UNL     1     -24.072  37.156   0.051  1.00  0.00     0.048 A 
HETATM    5  C10 UNL     1     -25.519  37.130   0.472  1.00  0.00     0.076 C 
HETATM    6  N2  UNL     1     -23.021  37.556   0.726  1.00  0.00    -0.352 N 
ATOM      7  H2  UNL     1     -23.138  37.909   1.677  1.00  0.00     0.166 HD
HETATM    8  C11 UNL     1     -21.823  37.508   0.198  1.00  0.00     0.071 A 
HETATM    9  C12 UNL     1     -20.683  37.902   0.806  1.00  0.00     0.110 A 
HETATM   10  C15 UNL     1     -19.376  37.864   0.174  1.00  0.00     0.255 A 
HETATM   11  N5  UNL     1     -19.351  37.293  -1.153  1.00  0.00    -0.332 N 
ATOM     12  H5  UNL     1     -18.473  37.159  -1.653  1.00  0.00     0.165 HD
ENDROOT
BRANCH   1  13
HETATM   13  N1  UNL     1     -20.657  36.407  -3.074  1.00  0.00    -0.375 N 
ATOM     14  H1  UNL     1     -20.567  35.407  -3.255  1.00  0.00     0.161 HD
BRANCH  13  15
HETATM   15  C6  UNL     1     -20.861  37.333  -4.148  1.00  0.00     0.125 C 
BRANCH  15  16
HETATM   16  C5  UNL     1     -22.067  37.195  -4.975  1.00  0.00     0.055 C 
BRANCH  16  17
HETATM   17  C3  UNL     1     -22.929  38.401  -5.118  1.00  0.00    -0.060 C 
HETATM   18  C2  UNL     1     -23.359  38.718  -6.349  1.00  0.00     0.136 C 
HETATM   19  C4  UNL     1     -23.314  39.277  -4.004  1.00  0.00     0.045 C 
BRANCH  18  20
HETATM   20  O1  UNL     1     -24.109  39.765  -6.638  1.00  0.00    -0.368 OA
HETATM   21  C1  UNL     1     -25.120  40.200  -7.409  1.00  0.00     0.208 C 
ENDBRANCH  18  20
ENDBRANCH  16  17
ENDBRANCH  15  16
ENDBRANCH  13  15
ENDBRANCH   1  13
BRANCH  10  22
HETATM   22  O4  UNL     1     -18.439  37.201   0.986  1.00  0.00    -0.359 OA
ATOM     23  H4  UNL     1     -18.576  37.407   1.903  1.00  0.00     0.213 HD
ENDBRANCH  10  22
BRANCH  10  24
HETATM   24  C16 UNL     1     -18.913  39.305   0.081  1.00  0.00     0.297 C 
HETATM   25  O5  UNL     1     -19.266  40.006  -0.912  1.00  0.00    -0.266 OA
HETATM   26  N3  UNL     1     -18.106  39.848   1.080  1.00  0.00    -0.272 N 
ATOM     27  H3  UNL     1     -17.850  39.242   1.859  1.00  0.00     0.189 HD
BRANCH  26  28
HETATM   28  N4  UNL     1     -17.625  41.152   1.096  1.00  0.00    -0.342 N 
ATOM     29  H42 UNL     1     -16.617  41.264   0.989  1.00  0.00     0.176 HD
ATOM     30  H41 UNL     1     -18.200  41.987   1.205  1.00  0.00     0.176 HD
ENDBRANCH  26  28
ENDBRANCH  10  24
BRANCH   9  31
HETATM   31  C13 UNL     1     -20.752  38.429   2.195  1.00  0.00     0.296 C 
HETATM   32  O2  UNL     1     -21.676  39.169   2.564  1.00  0.00    -0.259 OA
BRANCH  31  33
HETATM   33  O3  UNL     1     -19.780  38.109   3.126  1.00  0.00    -0.323 OA
HETATM   34  C14 UNL     1     -19.435  39.006   4.190  1.00  0.00     0.213 C 
ENDBRANCH  31  33
ENDBRANCH   9  31
TORSDOF 10
ENDMDL
MODEL 4
REMARK VINA RESULT: -6.846199791      5.245      7.467
REMARK  10 active torsions:
REMARK  status: ('A' for Active; 'I' for Inactive)
REMARK    1  A    between atoms: O1_2  and  C2_3 
REMARK    2  A    between atoms: C3_4  and  C5_6 
REMARK    3  A    between atoms: C5_6  and  C6_7 
REMARK    4  A    between atoms: C6_7  and  N1_8 
REMARK    5  A    between atoms: N1_8  and  C7_10 
REMARK    6  A    between atoms: C12_18  and  C13_19 
REMARK    7  A    between atoms: C13_19  and  O3_21 
REMARK    8  A    between atoms: C15_23  and  O4_24 
REMARK    9  A    between atoms: C15_23  and  C16_26 
REMARK       I    between atoms: C16_26  and  N3_28 
REMARK   10  A    between atoms: N3_28  and  N4_30 
ROOT
HETATM    1  C7  UNL     1     -20.360  36.490  -2.479  1.00  0.00     0.119 A 
HETATM    2  C8  UNL     1     -21.152  37.062  -3.379  1.00  0.00     0.077 A 
HETATM    3  S1  UNL     1     -21.042  37.452  -5.061  1.00  0.00    -0.071 SA
HETATM    4  C9  UNL     1     -22.578  38.169  -5.249  1.00  0.00     0.048 A 
HETATM    5  C10 UNL     1     -23.189  38.758  -6.495  1.00  0.00     0.076 C 
HETATM    6  N2  UNL     1     -23.085  38.077  -4.044  1.00  0.00    -0.352 N 
ATOM      7  H2  UNL     1     -24.022  38.437  -3.863  1.00  0.00     0.166 HD
HETATM    8  C11 UNL     1     -22.405  37.528  -3.068  1.00  0.00     0.071 A 
HETATM    9  C12 UNL     1     -22.834  37.393  -1.794  1.00  0.00     0.110 A 
HETATM   10  C15 UNL     1     -22.036  36.807  -0.731  1.00  0.00     0.255 A 
HETATM   11  N5  UNL     1     -20.750  36.292  -1.140  1.00  0.00    -0.332 N 
ATOM     12  H5  UNL     1     -20.145  35.802  -0.482  1.00  0.00     0.165 HD
ENDROOT
BRANCH   1  13
HETATM   13  N1  UNL     1     -19.069  36.065  -2.958  1.00  0.00    -0.375 N 
ATOM     14  H1  UNL     1     -18.874  36.007  -3.957  1.00  0.00     0.161 HD
BRANCH  13  15
HETATM   15  C6  UNL     1     -18.067  35.726  -1.992  1.00  0.00     0.125 C 
BRANCH  15  16
HETATM   16  C5  UNL     1     -17.188  34.581  -2.264  1.00  0.00     0.055 C 
BRANCH  16  17
HETATM   17  C3  UNL     1     -17.258  33.435  -1.315  1.00  0.00    -0.060 C 
HETATM   18  C2  UNL     1     -17.595  33.698  -0.043  1.00  0.00     0.136 C 
HETATM   19  C4  UNL     1     -16.956  32.044  -1.676  1.00  0.00     0.045 C 
BRANCH  18  20
HETATM   20  O1  UNL     1     -17.679  32.796   0.916  1.00  0.00    -0.368 OA
HETATM   21  C1  UNL     1     -17.609  32.609   2.244  1.00  0.00     0.208 C 
ENDBRANCH  18  20
ENDBRANCH  16  17
ENDBRANCH  15  16
ENDBRANCH  13  15
ENDBRANCH   1  13
BRANCH  10  22
HETATM   22  O4  UNL     1     -22.750  35.801  -0.057  1.00  0.00    -0.359 OA
ATOM     23  H4  UNL     1     -22.167  35.122   0.260  1.00  0.00     0.213 HD
ENDBRANCH  10  22
BRANCH  10  24
HETATM   24  C16 UNL     1     -21.806  37.915   0.279  1.00  0.00     0.297 C 
HETATM   25  O5  UNL     1     -21.403  39.045  -0.122  1.00  0.00    -0.266 OA
HETATM   26  N3  UNL     1     -22.037  37.686   1.635  1.00  0.00    -0.272 N 
ATOM     27  H3  UNL     1     -22.362  36.758   1.907  1.00  0.00     0.189 HD
BRANCH  26  28
HETATM   28  N4  UNL     1     -21.859  38.624   2.645  1.00  0.00    -0.342 N 
ATOM     29  H42 UNL     1     -21.159  39.346   2.474  1.00  0.00     0.176 HD
ATOM     30  H41 UNL     1     -22.371  38.639   3.527  1.00  0.00     0.176 HD
ENDBRANCH  26  28
ENDBRANCH  10  24
BRANCH   9  31
HETATM   31  C13 UNL     1     -24.190  37.887  -1.434  1.00  0.00     0.296 C 
HETATM   32  O2  UNL     1     -24.477  39.092  -1.484  1.00  0.00    -0.259 OA
BRANCH  31  33
HETATM   33  O3  UNL     1     -25.181  37.011  -1.029  1.00  0.00    -0.323 OA
HETATM   34  C14 UNL     1     -25.766  37.091   0.278  1.00  0.00     0.213 C 
ENDBRANCH  31  33
ENDBRANCH   9  31
TORSDOF 10
ENDMDL
MODEL 5
REMARK VINA RESULT: -6.755842056      3.197      6.523
REMARK  10 active torsions:
REMARK  status: ('A' for Active; 'I' for Inactive)
REMARK    1  A    between atoms: O1_2  and  C2_3 
REMARK    2  A    between atoms: C3_4  and  C5_6 
REMARK    3  A    between atoms: C5_6  and  C6_7 
REMARK    4  A    between atoms: C6_7  and  N1_8 
REMARK    5  A    between atoms: N1_8  and  C7_10 
REMARK    6  A    between atoms: C12_18  and  C13_19 
REMARK    7  A    between atoms: C13_19  and  O3_21 
REMARK    8  A    between atoms: C15_23  and  O4_24 
REMARK    9  A    between atoms: C15_23  and  C16_26 
REMARK       I    between atoms: C16_26  and  N3_28 
REMARK   10  A    between atoms: N3_28  and  N4_30 
ROOT
HETATM    1  C7  UNL     1     -19.534  36.974  -1.049  1.00  0.00     0.119 A 
HETATM    2  C8  UNL     1     -18.508  36.514  -0.342  1.00  0.00     0.077 A 
HETATM    3  S1  UNL     1     -17.381  35.210  -0.491  1.00  0.00    -0.071 SA
HETATM    4  C9  UNL     1     -16.489  35.490   0.935  1.00  0.00     0.048 A 
HETATM    5  C10 UNL     1     -15.312  34.715   1.470  1.00  0.00     0.076 C 
HETATM    6  N2  UNL     1     -17.085  36.542   1.443  1.00  0.00    -0.352 N 
ATOM      7  H2  UNL     1     -16.749  36.937   2.321  1.00  0.00     0.166 HD
HETATM    8  C11 UNL     1     -18.107  37.094   0.837  1.00  0.00     0.071 A 
HETATM    9  C12 UNL     1     -18.792  38.170   1.280  1.00  0.00     0.110 A 
HETATM   10  C15 UNL     1     -19.943  38.733   0.594  1.00  0.00     0.255 A 
HETATM   11  N5  UNL     1     -20.277  38.107  -0.663  1.00  0.00    -0.332 N 
ATOM     12  H5  UNL     1     -21.025  38.472  -1.252  1.00  0.00     0.165 HD
ENDROOT
BRANCH   1  13
HETATM   13  N1  UNL     1     -19.839  36.249  -2.257  1.00  0.00    -0.375 N 
ATOM     14  H1  UNL     1     -19.549  35.278  -2.373  1.00  0.00     0.161 HD
BRANCH  13  15
HETATM   15  C6  UNL     1     -20.561  36.930  -3.290  1.00  0.00     0.125 C 
BRANCH  15  16
HETATM   16  C5  UNL     1     -21.985  36.620  -3.473  1.00  0.00     0.055 C 
BRANCH  16  17
HETATM   17  C3  UNL     1     -22.956  37.395  -2.652  1.00  0.00    -0.060 C 
HETATM   18  C2  UNL     1     -23.490  36.789  -1.581  1.00  0.00     0.136 C 
HETATM   19  C4  UNL     1     -23.385  38.766  -2.957  1.00  0.00     0.045 C 
BRANCH  18  20
HETATM   20  O1  UNL     1     -24.377  37.336  -0.771  1.00  0.00    -0.368 OA
HETATM   21  C1  UNL     1     -25.683  37.383  -0.458  1.00  0.00     0.208 C 
ENDBRANCH  18  20
ENDBRANCH  16  17
ENDBRANCH  15  16
ENDBRANCH  13  15
ENDBRANCH   1  13
BRANCH  10  22
HETATM   22  O4  UNL     1     -19.790  40.118   0.402  1.00  0.00    -0.359 OA
ATOM     23  H4  UNL     1     -19.903  40.591   1.218  1.00  0.00     0.213 HD
ENDBRANCH  10  22
BRANCH  10  24
HETATM   24  C16 UNL     1     -21.117  38.563   1.538  1.00  0.00     0.297 C 
HETATM   25  O5  UNL     1     -21.259  39.369   2.503  1.00  0.00    -0.266 OA
HETATM   26  N3  UNL     1     -22.030  37.526   1.342  1.00  0.00    -0.272 N 
ATOM     27  H3  UNL     1     -21.872  36.904   0.550  1.00  0.00     0.189 HD
BRANCH  26  28
HETATM   28  N4  UNL     1     -23.137  37.276   2.143  1.00  0.00    -0.342 N 
ATOM     29  H42 UNL     1     -23.261  36.314   2.457  1.00  0.00     0.176 HD
ATOM     30  H41 UNL     1     -23.820  37.976   2.433  1.00  0.00     0.176 HD
ENDBRANCH  26  28
ENDBRANCH  10  24
BRANCH   9  31
HETATM   31  C13 UNL     1     -18.374  38.817   2.552  1.00  0.00     0.296 C 
HETATM   32  O2  UNL     1     -18.401  38.207   3.631  1.00  0.00    -0.259 OA
BRANCH  31  33
HETATM   33  O3  UNL     1     -17.939  40.130   2.572  1.00  0.00    -0.323 OA
HETATM   34  C14 UNL     1     -18.367  41.048   3.587  1.00  0.00     0.213 C 
ENDBRANCH  31  33
ENDBRANCH   9  31
TORSDOF 10
ENDMDL
