MODEL 1
REMARK VINA RESULT: -7.850924755      0.000      0.000
REMARK  11 active torsions:
REMARK  status: ('A' for Active; 'I' for Inactive)
REMARK    1  A    between atoms: C2_2  and  C3_3 
REMARK    2  A    between atoms: C3_3  and  C4_4 
REMARK    3  A    between atoms: C4_4  and  C5_5 
REMARK    4  A    between atoms: C5_5  and  C6_6 
REMARK    5  A    between atoms: C6_6  and  N1_7 
REMARK    6  A    between atoms: N1_7  and  C7_9 
REMARK    7  A    between atoms: C7_9  and  O1_15 
REMARK    8  A    between atoms: N2_10  and  N3_12 
REMARK    9  A    between atoms: O1_15  and  N4_16 
REMARK   10  A    between atoms: S1_21  and  N7_23 
REMARK   11  A    between atoms: N7_23  and  N8_25 
ROOT
HETATM    1  N4  UNL     1     -23.436  37.133  -2.873  1.00  0.00    -0.060 N 
HETATM    2  C8  UNL     1     -24.123  36.973  -1.729  1.00  0.00     0.407 A 
HETATM    3  O2  UNL     1     -25.369  36.737  -1.537  1.00  0.00    -0.240 OA
HETATM    4  N5  UNL     1     -23.016  37.157  -0.974  1.00  0.00     0.006 N 
HETATM    5  N6  UNL     1     -22.357  37.312  -2.086  1.00  0.00    -0.057 N 
HETATM    6  S1  UNL     1     -20.714  37.606  -1.657  1.00  0.00     0.268 S 
HETATM    7  O3  UNL     1     -20.226  38.928  -2.116  1.00  0.00    -0.200 OA
HETATM    8  N10 UNL     1     -20.920  37.512   0.049  1.00  0.00    -0.111 N 
ATOM      9  H10 UNL     1     -20.209  37.619   0.773  1.00  0.00     0.197 HD
HETATM   10  C11 UNL     1     -22.301  37.254   0.218  1.00  0.00     0.713 A 
HETATM   11  N11 UNL     1     -22.811  37.125   1.426  1.00  0.00    -0.232 N 
ATOM     12 1H11 UNL     1     -22.288  37.196   2.298  1.00  0.00     0.174 HD
ATOM     13 2H11 UNL     1     -23.806  36.939   1.548  1.00  0.00     0.174 HD
ENDROOT
BRANCH   1  14
HETATM   14  O1  UNL     1     -23.659  37.127  -4.235  1.00  0.00    -0.170 OA
BRANCH  14  15
HETATM   15  C7  UNL     1     -23.287  38.153  -5.090  1.00  0.00     0.260 C 
HETATM   16  N2  UNL     1     -23.055  37.820  -6.309  1.00  0.00    -0.270 N 
ATOM     17  H2  UNL     1     -22.781  38.559  -6.957  1.00  0.00     0.190 HD
BRANCH  15  18
HETATM   18  N1  UNL     1     -23.149  39.510  -4.727  1.00  0.00    -0.354 N 
ATOM     19  H1  UNL     1     -22.345  40.029  -5.078  1.00  0.00     0.163 HD
BRANCH  18  20
HETATM   20  C6  UNL     1     -24.090  40.186  -3.889  1.00  0.00     0.123 C 
BRANCH  20  21
HETATM   21  C5  UNL     1     -24.402  41.550  -4.357  1.00  0.00     0.020 C 
BRANCH  21  22
HETATM   22  C4  UNL     1     -25.551  41.738  -5.279  1.00  0.00     0.002 C 
BRANCH  22  23
HETATM   23  C3  UNL     1     -24.947  42.366  -6.560  1.00  0.00    -0.000 C 
BRANCH  23  24
HETATM   24  C2  UNL     1     -25.406  41.606  -7.762  1.00  0.00    -0.005 C 
HETATM   25  C1  UNL     1     -25.248  40.116  -7.527  1.00  0.00     0.005 C 
ENDBRANCH  23  24
ENDBRANCH  22  23
ENDBRANCH  21  22
ENDBRANCH  20  21
ENDBRANCH  18  20
ENDBRANCH  15  18
BRANCH  16  26
HETATM   26  N3  UNL     1     -23.148  36.529  -6.812  1.00  0.00    -0.342 N 
ATOM     27  H32 UNL     1     -24.009  36.022  -6.605  1.00  0.00     0.176 HD
ATOM     28  H31 UNL     1     -22.427  36.063  -7.363  1.00  0.00     0.176 HD
ENDBRANCH  16  26
ENDBRANCH  14  15
ENDBRANCH   1  14
BRANCH   6  29
HETATM   29  N7  UNL     1     -19.849  36.423  -2.218  1.00  0.00    -0.223 N 
ATOM     30  H7  UNL     1     -19.679  36.294  -3.215  1.00  0.00     0.200 HD
BRANCH  29  31
HETATM   31  N8  UNL     1     -19.328  35.555  -1.242  1.00  0.00    -0.282 N 
HETATM   32  C9  UNL     1     -18.117  35.149  -1.392  1.00  0.00     0.104 C 
HETATM   33  C10 UNL     1     -17.589  34.232  -0.347  1.00  0.00     0.086 C 
HETATM   34  N9  UNL     1     -17.288  35.516  -2.470  1.00  0.00    -0.087 NA
ATOM     35  H8  UNL     1     -19.890  35.258  -0.444  1.00  0.00     0.188 HD
ENDBRANCH  29  31
ENDBRANCH   6  29
TORSDOF 11
ENDMDL
MODEL 2
REMARK VINA RESULT: -7.789266709      1.068      1.719
REMARK  11 active torsions:
REMARK  status: ('A' for Active; 'I' for Inactive)
REMARK    1  A    between atoms: C2_2  and  C3_3 
REMARK    2  A    between atoms: C3_3  and  C4_4 
REMARK    3  A    between atoms: C4_4  and  C5_5 
REMARK    4  A    between atoms: C5_5  and  C6_6 
REMARK    5  A    between atoms: C6_6  and  N1_7 
REMARK    6  A    between atoms: N1_7  and  C7_9 
REMARK    7  A    between atoms: C7_9  and  O1_15 
REMARK    8  A    between atoms: N2_10  and  N3_12 
REMARK    9  A    between atoms: O1_15  and  N4_16 
REMARK   10  A    between atoms: S1_21  and  N7_23 
REMARK   11  A    between atoms: N7_23  and  N8_25 
ROOT
HETATM    1  N4  UNL     1     -23.205  36.977  -2.578  1.00  0.00    -0.060 N 
HETATM    2  C8  UNL     1     -24.051  36.881  -1.539  1.00  0.00     0.407 A 
HETATM    3  O2  UNL     1     -25.310  36.637  -1.514  1.00  0.00    -0.240 OA
HETATM    4  N5  UNL     1     -23.068  37.134  -0.644  1.00  0.00     0.006 N 
HETATM    5  N6  UNL     1     -22.254  37.226  -1.656  1.00  0.00    -0.057 N 
HETATM    6  S1  UNL     1     -20.694  37.576  -1.013  1.00  0.00     0.268 S 
HETATM    7  O3  UNL     1     -20.154  38.873  -1.486  1.00  0.00    -0.200 OA
HETATM    8  N10 UNL     1     -21.147  37.592   0.646  1.00  0.00    -0.111 N 
ATOM      9  H10 UNL     1     -20.550  37.759   1.457  1.00  0.00     0.197 HD
HETATM   10  C11 UNL     1     -22.536  37.322   0.630  1.00  0.00     0.713 A 
HETATM   11  N11 UNL     1     -23.216  37.265   1.756  1.00  0.00    -0.232 N 
ATOM     12 1H11 UNL     1     -22.827  37.402   2.689  1.00  0.00     0.174 HD
ATOM     13 2H11 UNL     1     -24.217  37.070   1.744  1.00  0.00     0.174 HD
ENDROOT
BRANCH   1  14
HETATM   14  O1  UNL     1     -23.226  36.876  -3.955  1.00  0.00    -0.170 OA
BRANCH  14  15
HETATM   15  C7  UNL     1     -22.927  37.921  -4.816  1.00  0.00     0.260 C 
HETATM   16  N2  UNL     1     -21.693  38.043  -5.152  1.00  0.00    -0.270 N 
ATOM     17  H2  UNL     1     -21.450  38.804  -5.787  1.00  0.00     0.190 HD
BRANCH  15  18
HETATM   18  N1  UNL     1     -23.861  38.838  -5.344  1.00  0.00    -0.354 N 
ATOM     19  H1  UNL     1     -24.599  39.188  -4.733  1.00  0.00     0.163 HD
BRANCH  18  20
HETATM   20  C6  UNL     1     -23.815  39.298  -6.696  1.00  0.00     0.123 C 
BRANCH  20  21
HETATM   21  C5  UNL     1     -25.118  39.791  -7.182  1.00  0.00     0.020 C 
BRANCH  21  22
HETATM   22  C4  UNL     1     -25.266  41.241  -7.466  1.00  0.00     0.002 C 
BRANCH  22  23
HETATM   23  C3  UNL     1     -25.927  41.838  -6.197  1.00  0.00    -0.000 C 
BRANCH  23  24
HETATM   24  C2  UNL     1     -24.903  42.567  -5.388  1.00  0.00    -0.005 C 
HETATM   25  C1  UNL     1     -24.685  41.857  -4.065  1.00  0.00     0.005 C 
ENDBRANCH  23  24
ENDBRANCH  22  23
ENDBRANCH  21  22
ENDBRANCH  20  21
ENDBRANCH  18  20
ENDBRANCH  15  18
BRANCH  16  26
HETATM   26  N3  UNL     1     -20.665  37.219  -4.715  1.00  0.00    -0.342 N 
ATOM     27  H32 UNL     1     -20.513  36.361  -5.245  1.00  0.00     0.176 HD
ATOM     28  H31 UNL     1     -20.063  37.411  -3.914  1.00  0.00     0.176 HD
ENDBRANCH  16  26
ENDBRANCH  14  15
ENDBRANCH   1  14
BRANCH   6  29
HETATM   29  N7  UNL     1     -19.748  36.374  -1.361  1.00  0.00    -0.223 N 
ATOM     30  H7  UNL     1     -19.982  35.678  -2.069  1.00  0.00     0.200 HD
BRANCH  29  31
HETATM   31  N8  UNL     1     -18.552  36.328  -0.622  1.00  0.00    -0.282 N 
HETATM   32  C9  UNL     1     -17.881  35.232  -0.644  1.00  0.00     0.104 C 
HETATM   33  C10 UNL     1     -16.620  35.209   0.146  1.00  0.00     0.086 C 
HETATM   34  N9  UNL     1     -18.269  34.080  -1.356  1.00  0.00    -0.087 NA
ATOM     35  H8  UNL     1     -18.229  37.135  -0.088  1.00  0.00     0.188 HD
ENDBRANCH  29  31
ENDBRANCH   6  29
TORSDOF 11
ENDMDL
MODEL 3
REMARK VINA RESULT: -7.765447515      5.513      8.267
REMARK  11 active torsions:
REMARK  status: ('A' for Active; 'I' for Inactive)
REMARK    1  A    between atoms: C2_2  and  C3_3 
REMARK    2  A    between atoms: C3_3  and  C4_4 
REMARK    3  A    between atoms: C4_4  and  C5_5 
REMARK    4  A    between atoms: C5_5  and  C6_6 
REMARK    5  A    between atoms: C6_6  and  N1_7 
REMARK    6  A    between atoms: N1_7  and  C7_9 
REMARK    7  A    between atoms: C7_9  and  O1_15 
REMARK    8  A    between atoms: N2_10  and  N3_12 
REMARK    9  A    between atoms: O1_15  and  N4_16 
REMARK   10  A    between atoms: S1_21  and  N7_23 
REMARK   11  A    between atoms: N7_23  and  N8_25 
ROOT
HETATM    1  N4  UNL     1     -17.270  39.026   2.863  1.00  0.00    -0.060 N 
HETATM    2  C8  UNL     1     -16.048  39.295   2.372  1.00  0.00     0.407 A 
HETATM    3  O2  UNL     1     -15.226  38.544   1.735  1.00  0.00    -0.240 OA
HETATM    4  N5  UNL     1     -16.092  40.573   2.813  1.00  0.00     0.006 N 
HETATM    5  N6  UNL     1     -17.275  40.305   3.287  1.00  0.00    -0.057 N 
HETATM    6  S1  UNL     1     -17.853  41.745   4.036  1.00  0.00     0.268 S 
HETATM    7  O3  UNL     1     -18.111  41.577   5.486  1.00  0.00    -0.200 OA
HETATM    8  N10 UNL     1     -16.479  42.725   3.700  1.00  0.00    -0.111 N 
ATOM      9  H10 UNL     1     -16.332  43.704   3.947  1.00  0.00     0.197 HD
HETATM   10  C11 UNL     1     -15.600  41.863   3.002  1.00  0.00     0.713 A 
HETATM   11  N11 UNL     1     -14.428  42.299   2.590  1.00  0.00    -0.232 N 
ATOM     12 1H11 UNL     1     -14.067  43.243   2.728  1.00  0.00     0.174 HD
ATOM     13 2H11 UNL     1     -13.794  41.678   2.088  1.00  0.00     0.174 HD
ENDROOT
BRANCH   1  14
HETATM   14  O1  UNL     1     -18.158  37.972   2.933  1.00  0.00    -0.170 OA
BRANCH  14  15
HETATM   15  C7  UNL     1     -18.765  37.390   1.830  1.00  0.00     0.260 C 
HETATM   16  N2  UNL     1     -18.190  36.345   1.352  1.00  0.00    -0.270 N 
ATOM     17  H2  UNL     1     -18.621  35.899   0.541  1.00  0.00     0.190 HD
BRANCH  15  18
HETATM   18  N1  UNL     1     -19.945  37.852   1.208  1.00  0.00    -0.354 N 
ATOM     19  H1  UNL     1     -20.842  37.496   1.540  1.00  0.00     0.163 HD
BRANCH  18  20
HETATM   20  C6  UNL     1     -19.936  38.796   0.135  1.00  0.00     0.123 C 
BRANCH  20  21
HETATM   21  C5  UNL     1     -20.981  38.533  -0.872  1.00  0.00     0.020 C 
BRANCH  21  22
HETATM   22  C4  UNL     1     -22.325  38.105  -0.405  1.00  0.00     0.002 C 
BRANCH  22  23
HETATM   23  C3  UNL     1     -23.251  38.261  -1.637  1.00  0.00    -0.000 C 
BRANCH  23  24
HETATM   24  C2  UNL     1     -24.600  38.735  -1.201  1.00  0.00    -0.005 C 
HETATM   25  C1  UNL     1     -25.330  37.623  -0.470  1.00  0.00     0.005 C 
ENDBRANCH  23  24
ENDBRANCH  22  23
ENDBRANCH  21  22
ENDBRANCH  20  21
ENDBRANCH  18  20
ENDBRANCH  15  18
BRANCH  16  26
HETATM   26  N3  UNL     1     -17.028  35.777   1.855  1.00  0.00    -0.342 N 
ATOM     27  H32 UNL     1     -16.253  36.414   2.037  1.00  0.00     0.176 HD
ATOM     28  H31 UNL     1     -16.901  34.784   2.049  1.00  0.00     0.176 HD
ENDBRANCH  16  26
ENDBRANCH  14  15
ENDBRANCH   1  14
BRANCH   6  29
HETATM   29  N7  UNL     1     -19.128  42.218   3.254  1.00  0.00    -0.223 N 
ATOM     30  H7  UNL     1     -19.886  42.733   3.701  1.00  0.00     0.200 HD
BRANCH  29  31
HETATM   31  N8  UNL     1     -19.146  41.877   1.889  1.00  0.00    -0.282 N 
HETATM   32  C9  UNL     1     -18.798  42.781   1.045  1.00  0.00     0.104 C 
HETATM   33  C10 UNL     1     -18.826  42.396  -0.392  1.00  0.00     0.086 C 
HETATM   34  N9  UNL     1     -18.405  44.086   1.401  1.00  0.00    -0.087 NA
ATOM     35  H8  UNL     1     -19.426  40.946   1.581  1.00  0.00     0.188 HD
ENDBRANCH  29  31
ENDBRANCH   6  29
TORSDOF 11
ENDMDL
MODEL 4
REMARK VINA RESULT: -7.716466677      3.762      7.748
REMARK  11 active torsions:
REMARK  status: ('A' for Active; 'I' for Inactive)
REMARK    1  A    between atoms: C2_2  and  C3_3 
REMARK    2  A    between atoms: C3_3  and  C4_4 
REMARK    3  A    between atoms: C4_4  and  C5_5 
REMARK    4  A    between atoms: C5_5  and  C6_6 
REMARK    5  A    between atoms: C6_6  and  N1_7 
REMARK    6  A    between atoms: N1_7  and  C7_9 
REMARK    7  A    between atoms: C7_9  and  O1_15 
REMARK    8  A    between atoms: N2_10  and  N3_12 
REMARK    9  A    between atoms: O1_15  and  N4_16 
REMARK   10  A    between atoms: S1_21  and  N7_23 
REMARK   11  A    between atoms: N7_23  and  N8_25 
ROOT
HETATM    1  N4  UNL     1     -21.016  38.591  -0.729  1.00  0.00    -0.060 N 
HETATM    2  C8  UNL     1     -21.704  38.315   0.392  1.00  0.00     0.407 A 
HETATM    3  O2  UNL     1     -21.359  38.416   1.623  1.00  0.00    -0.240 OA
HETATM    4  N5  UNL     1     -22.795  37.929  -0.308  1.00  0.00     0.006 N 
HETATM    5  N6  UNL     1     -22.122  38.197  -1.390  1.00  0.00    -0.057 N 
HETATM    6  S1  UNL     1     -23.155  37.844  -2.723  1.00  0.00     0.268 S 
HETATM    7  O3  UNL     1     -22.612  36.785  -3.608  1.00  0.00    -0.200 OA
HETATM    8  N10 UNL     1     -24.517  37.331  -1.806  1.00  0.00    -0.111 N 
ATOM      9  H10 UNL     1     -25.421  37.011  -2.153  1.00  0.00     0.197 HD
HETATM   10  C11 UNL     1     -24.097  37.455  -0.461  1.00  0.00     0.713 A 
HETATM   11  N11 UNL     1     -24.912  37.135   0.523  1.00  0.00    -0.232 N 
ATOM     12 1H11 UNL     1     -25.864  36.788   0.412  1.00  0.00     0.174 HD
ATOM     13 2H11 UNL     1     -24.609  37.224   1.493  1.00  0.00     0.174 HD
ENDROOT
BRANCH   1  14
HETATM   14  O1  UNL     1     -19.772  39.060  -1.102  1.00  0.00    -0.170 OA
BRANCH  14  15
HETATM   15  C7  UNL     1     -18.893  39.703  -0.244  1.00  0.00     0.260 C 
HETATM   16  N2  UNL     1     -17.877  39.019   0.145  1.00  0.00    -0.270 N 
ATOM     17  H2  UNL     1     -17.216  39.474   0.776  1.00  0.00     0.190 HD
BRANCH  15  18
HETATM   18  N1  UNL     1     -19.029  41.028   0.222  1.00  0.00    -0.354 N 
ATOM     19  H1  UNL     1     -19.667  41.655  -0.268  1.00  0.00     0.163 HD
BRANCH  18  20
HETATM   20  C6  UNL     1     -18.311  41.529   1.352  1.00  0.00     0.123 C 
BRANCH  20  21
HETATM   21  C5  UNL     1     -19.136  42.384   2.227  1.00  0.00     0.020 C 
BRANCH  21  22
HETATM   22  C4  UNL     1     -19.164  42.091   3.683  1.00  0.00     0.002 C 
BRANCH  22  23
HETATM   23  C3  UNL     1     -19.173  40.544   3.785  1.00  0.00    -0.000 C 
BRANCH  23  24
HETATM   24  C2  UNL     1     -18.506  40.116   5.052  1.00  0.00    -0.005 C 
HETATM   25  C1  UNL     1     -17.072  40.612   5.078  1.00  0.00     0.005 C 
ENDBRANCH  23  24
ENDBRANCH  22  23
ENDBRANCH  21  22
ENDBRANCH  20  21
ENDBRANCH  18  20
ENDBRANCH  15  18
BRANCH  16  26
HETATM   26  N3  UNL     1     -17.611  37.709  -0.228  1.00  0.00    -0.342 N 
ATOM     27  H32 UNL     1     -16.796  37.563  -0.825  1.00  0.00     0.176 HD
ATOM     28  H31 UNL     1     -18.166  36.899   0.050  1.00  0.00     0.176 HD
ENDBRANCH  16  26
ENDBRANCH  14  15
ENDBRANCH   1  14
BRANCH   6  29
HETATM   29  N7  UNL     1     -23.424  39.184  -3.493  1.00  0.00    -0.223 N 
ATOM     30  H7  UNL     1     -23.393  40.095  -3.036  1.00  0.00     0.200 HD
BRANCH  29  31
HETATM   31  N8  UNL     1     -23.712  39.033  -4.862  1.00  0.00    -0.282 N 
HETATM   32  C9  UNL     1     -24.191  40.050  -5.485  1.00  0.00     0.104 C 
HETATM   33  C10 UNL     1     -24.487  39.865  -6.931  1.00  0.00     0.086 C 
HETATM   34  N9  UNL     1     -24.446  41.298  -4.883  1.00  0.00    -0.087 NA
ATOM     35  H8  UNL     1     -23.547  38.149  -5.342  1.00  0.00     0.188 HD
ENDBRANCH  29  31
ENDBRANCH   6  29
TORSDOF 11
ENDMDL
MODEL 5
REMARK VINA RESULT: -7.672123762      3.570      5.487
REMARK  11 active torsions:
REMARK  status: ('A' for Active; 'I' for Inactive)
REMARK    1  A    between atoms: C2_2  and  C3_3 
REMARK    2  A    between atoms: C3_3  and  C4_4 
REMARK    3  A    between atoms: C4_4  and  C5_5 
REMARK    4  A    between atoms: C5_5  and  C6_6 
REMARK    5  A    between atoms: C6_6  and  N1_7 
REMARK    6  A    between atoms: N1_7  and  C7_9 
REMARK    7  A    between atoms: C7_9  and  O1_15 
REMARK    8  A    between atoms: N2_10  and  N3_12 
REMARK    9  A    between atoms: O1_15  and  N4_16 
REMARK   10  A    between atoms: S1_21  and  N7_23 
REMARK   11  A    between atoms: N7_23  and  N8_25 
ROOT
HETATM    1  N4  UNL     1     -20.729  37.998  -0.113  1.00  0.00    -0.060 N 
HETATM    2  C8  UNL     1     -20.124  38.805  -1.000  1.00  0.00     0.407 A 
HETATM    3  O2  UNL     1     -20.462  39.124  -2.196  1.00  0.00    -0.240 OA
HETATM    4  N5  UNL     1     -19.117  39.084  -0.142  1.00  0.00     0.006 N 
HETATM    5  N6  UNL     1     -19.708  38.300   0.713  1.00  0.00    -0.057 N 
HETATM    6  S1  UNL     1     -18.741  38.293   2.139  1.00  0.00     0.268 S 
HETATM    7  O3  UNL     1     -18.222  36.946   2.476  1.00  0.00    -0.200 OA
HETATM    8  N10 UNL     1     -17.523  39.369   1.575  1.00  0.00    -0.111 N 
ATOM      9  H10 UNL     1     -16.696  39.697   2.074  1.00  0.00     0.197 HD
HETATM   10  C11 UNL     1     -17.930  39.694   0.259  1.00  0.00     0.713 A 
HETATM   11  N11 UNL     1     -17.206  40.511  -0.479  1.00  0.00    -0.232 N 
ATOM     12 1H11 UNL     1     -16.337  40.958  -0.186  1.00  0.00     0.174 HD
ATOM     13 2H11 UNL     1     -17.499  40.746  -1.427  1.00  0.00     0.174 HD
ENDROOT
BRANCH   1  14
HETATM   14  O1  UNL     1     -21.858  37.208  -0.019  1.00  0.00    -0.170 OA
BRANCH  14  15
HETATM   15  C7  UNL     1     -23.105  37.573  -0.504  1.00  0.00     0.260 C 
HETATM   16  N2  UNL     1     -24.080  37.504   0.330  1.00  0.00    -0.270 N 
ATOM     17  H2  UNL     1     -25.007  37.769  -0.005  1.00  0.00     0.190 HD
BRANCH  15  18
HETATM   18  N1  UNL     1     -23.375  38.008  -1.819  1.00  0.00    -0.354 N 
ATOM     19  H1  UNL     1     -23.726  38.955  -1.957  1.00  0.00     0.163 HD
BRANCH  18  20
HETATM   20  C6  UNL     1     -23.177  37.177  -2.965  1.00  0.00     0.123 C 
BRANCH  20  21
HETATM   21  C5  UNL     1     -23.059  37.944  -4.220  1.00  0.00     0.020 C 
BRANCH  21  22
HETATM   22  C4  UNL     1     -23.482  39.368  -4.222  1.00  0.00     0.002 C 
BRANCH  22  23
HETATM   23  C3  UNL     1     -23.876  39.671  -5.690  1.00  0.00    -0.000 C 
BRANCH  23  24
HETATM   24  C2  UNL     1     -24.594  40.980  -5.761  1.00  0.00    -0.005 C 
HETATM   25  C1  UNL     1     -24.536  41.679  -4.415  1.00  0.00     0.005 C 
ENDBRANCH  23  24
ENDBRANCH  22  23
ENDBRANCH  21  22
ENDBRANCH  20  21
ENDBRANCH  18  20
ENDBRANCH  15  18
BRANCH  16  26
HETATM   26  N3  UNL     1     -23.968  37.095   1.652  1.00  0.00    -0.342 N 
ATOM     27  H32 UNL     1     -23.599  37.782   2.310  1.00  0.00     0.176 HD
ATOM     28  H31 UNL     1     -24.224  36.172   2.001  1.00  0.00     0.176 HD
ENDBRANCH  16  26
ENDBRANCH  14  15
ENDBRANCH   1  14
BRANCH   6  29
HETATM   29  N7  UNL     1     -19.591  38.913   3.302  1.00  0.00    -0.223 N 
ATOM     30  H7  UNL     1     -20.610  38.866   3.322  1.00  0.00     0.200 HD
BRANCH  29  31
HETATM   31  N8  UNL     1     -18.842  39.538   4.316  1.00  0.00    -0.282 N 
HETATM   32  C9  UNL     1     -18.795  40.822   4.314  1.00  0.00     0.104 C 
HETATM   33  C10 UNL     1     -17.996  41.460   5.396  1.00  0.00     0.086 C 
HETATM   34  N9  UNL     1     -19.440  41.637   3.363  1.00  0.00    -0.087 NA
ATOM     35  H8  UNL     1     -18.355  38.992   5.026  1.00  0.00     0.188 HD
ENDBRANCH  29  31
ENDBRANCH   6  29
TORSDOF 11
ENDMDL
