MODEL 1
REMARK VINA RESULT: -8.722126816      0.000      0.000
REMARK  8 active torsions:
REMARK  status: ('A' for Active; 'I' for Inactive)
REMARK    1  A    between atoms: C2_3  and  C3_5 
REMARK    2  A    between atoms: C5_11  and  N4_12 
REMARK    3  A    between atoms: N4_12  and  N5_14 
REMARK       I    between atoms: N5_14  and  C6_16 
REMARK    4  A    between atoms: C6_16  and  O3_18 
REMARK    5  A    between atoms: O3_18  and  C7_19 
REMARK    6  A    between atoms: C7_19  and  C8_20 
REMARK    7  A    between atoms: C8_20  and  C9_21 
REMARK    8  A    between atoms: C9_21  and  N6_22 
ROOT
HETATM    1  C1  UNL     1     -25.366  41.021  -7.537  1.00  0.00     0.233 C 
HETATM    2  N1  UNL     1     -24.734  40.451  -6.567  1.00  0.00    -0.390 NA
HETATM    3  C2  UNL     1     -24.030  39.816  -5.487  1.00  0.00     0.345 C 
HETATM    4  O1  UNL     1     -23.855  40.251  -4.356  1.00  0.00    -0.249 OA
ENDROOT
BRANCH   3   5
HETATM    5  C3  UNL     1     -23.483  38.479  -5.866  1.00  0.00     0.160 A 
HETATM    6  N2  UNL     1     -23.107  38.075  -7.094  1.00  0.00    -0.293 N 
HETATM    7  N3  UNL     1     -22.670  36.831  -7.039  1.00  0.00    -0.309 N 
ATOM      8  H2  UNL     1     -23.153  38.645  -7.939  1.00  0.00     0.187 HD
HETATM    9  C4  UNL     1     -22.743  36.375  -5.780  1.00  0.00     0.140 A 
ATOM     10  H3  UNL     1     -22.328  36.294  -7.837  1.00  0.00     0.186 HD
HETATM   11  C5  UNL     1     -23.266  37.434  -5.019  1.00  0.00     0.100 A 
BRANCH  11  12
HETATM   12  N4  UNL     1     -23.509  37.380  -3.628  1.00  0.00    -0.293 N 
ATOM     13  H4  UNL     1     -24.392  37.014  -3.271  1.00  0.00     0.187 HD
BRANCH  12  14
HETATM   14  N5  UNL     1     -22.537  37.827  -2.760  1.00  0.00    -0.245 N 
HETATM   15  C6  UNL     1     -22.903  38.314  -1.454  1.00  0.00     0.379 C 
HETATM   16  O2  UNL     1     -24.115  38.338  -1.109  1.00  0.00    -0.237 OA
ATOM     17  H5  UNL     1     -21.557  37.812  -3.042  1.00  0.00     0.192 HD
BRANCH  15  18
HETATM   18  O3  UNL     1     -21.963  38.752  -0.568  1.00  0.00    -0.303 OA
BRANCH  18  19
HETATM   19  C7  UNL     1     -21.421  37.975   0.451  1.00  0.00     0.182 C 
BRANCH  19  20
HETATM   20  C8  UNL     1     -21.162  38.644   1.757  1.00  0.00     0.047 C 
BRANCH  20  21
HETATM   21  C9  UNL     1     -19.738  38.693   2.173  1.00  0.00     0.141 C 
BRANCH  21  22
HETATM   22  N6  UNL     1     -19.299  39.888   2.825  1.00  0.00    -0.251 N 
HETATM   23  C10 UNL     1     -19.205  39.831   4.190  1.00  0.00     0.334 A 
HETATM   24  O4  UNL     1     -19.472  38.772   4.812  1.00  0.00    -0.246 OA
HETATM   25  N7  UNL     1     -18.820  40.950   4.813  1.00  0.00    -0.260 N 
HETATM   26  C11 UNL     1     -18.536  42.086   4.137  1.00  0.00     0.334 A 
ATOM     27  H7  UNL     1     -18.737  40.946   5.829  1.00  0.00     0.175 HD
HETATM   28  O5  UNL     1     -18.172  43.129   4.756  1.00  0.00    -0.246 OA
HETATM   29  N8  UNL     1     -18.635  42.117   2.819  1.00  0.00    -0.255 N 
HETATM   30  C12 UNL     1     -18.330  43.326   2.087  1.00  0.00     0.166 C 
HETATM   31  C13 UNL     1     -19.026  40.999   2.148  1.00  0.00     0.336 A 
HETATM   32  O6  UNL     1     -19.096  41.130   0.900  1.00  0.00    -0.246 OA
ENDBRANCH  21  22
ENDBRANCH  20  21
ENDBRANCH  19  20
ENDBRANCH  18  19
ENDBRANCH  15  18
ENDBRANCH  12  14
ENDBRANCH  11  12
ENDBRANCH   3   5
TORSDOF 7
ENDMDL
MODEL 2
REMARK VINA RESULT: -8.629596954      1.259      1.578
REMARK  8 active torsions:
REMARK  status: ('A' for Active; 'I' for Inactive)
REMARK    1  A    between atoms: C2_3  and  C3_5 
REMARK    2  A    between atoms: C5_11  and  N4_12 
REMARK    3  A    between atoms: N4_12  and  N5_14 
REMARK       I    between atoms: N5_14  and  C6_16 
REMARK    4  A    between atoms: C6_16  and  O3_18 
REMARK    5  A    between atoms: O3_18  and  C7_19 
REMARK    6  A    between atoms: C7_19  and  C8_20 
REMARK    7  A    between atoms: C8_20  and  C9_21 
REMARK    8  A    between atoms: C9_21  and  N6_22 
ROOT
HETATM    1  C1  UNL     1     -25.345  41.022  -7.524  1.00  0.00     0.233 C 
HETATM    2  N1  UNL     1     -24.707  40.443  -6.564  1.00  0.00    -0.390 NA
HETATM    3  C2  UNL     1     -23.997  39.798  -5.494  1.00  0.00     0.345 C 
HETATM    4  O1  UNL     1     -23.807  40.227  -4.363  1.00  0.00    -0.249 OA
ENDROOT
BRANCH   3   5
HETATM    5  C3  UNL     1     -23.462  38.459  -5.884  1.00  0.00     0.160 A 
HETATM    6  N2  UNL     1     -23.078  38.067  -7.113  1.00  0.00    -0.293 N 
HETATM    7  N3  UNL     1     -22.657  36.816  -7.070  1.00  0.00    -0.309 N 
ATOM      8  H2  UNL     1     -23.108  38.648  -7.951  1.00  0.00     0.187 HD
HETATM    9  C4  UNL     1     -22.749  36.346  -5.817  1.00  0.00     0.140 A 
ATOM     10  H3  UNL     1     -22.313  36.286  -7.871  1.00  0.00     0.186 HD
HETATM   11  C5  UNL     1     -23.268  37.401  -5.048  1.00  0.00     0.100 A 
BRANCH  11  12
HETATM   12  N4  UNL     1     -23.526  37.332  -3.661  1.00  0.00    -0.293 N 
ATOM     13  H4  UNL     1     -24.443  37.042  -3.319  1.00  0.00     0.187 HD
BRANCH  12  14
HETATM   14  N5  UNL     1     -22.524  37.662  -2.775  1.00  0.00    -0.245 N 
HETATM   15  C6  UNL     1     -22.848  38.271  -1.510  1.00  0.00     0.379 C 
HETATM   16  O2  UNL     1     -24.051  38.509  -1.217  1.00  0.00    -0.237 OA
ATOM     17  H5  UNL     1     -21.550  37.474  -3.015  1.00  0.00     0.192 HD
BRANCH  15  18
HETATM   18  O3  UNL     1     -21.880  38.598  -0.607  1.00  0.00    -0.303 OA
BRANCH  18  19
HETATM   19  C7  UNL     1     -21.625  37.891   0.564  1.00  0.00     0.182 C 
BRANCH  19  20
HETATM   20  C8  UNL     1     -21.192  38.673   1.755  1.00  0.00     0.047 C 
BRANCH  20  21
HETATM   21  C9  UNL     1     -19.737  38.959   1.830  1.00  0.00     0.141 C 
BRANCH  21  22
HETATM   22  N6  UNL     1     -19.334  40.310   1.590  1.00  0.00    -0.251 N 
HETATM   23  C10 UNL     1     -19.374  41.153   2.668  1.00  0.00     0.334 A 
HETATM   24  O4  UNL     1     -19.727  40.737   3.800  1.00  0.00    -0.246 OA
HETATM   25  N7  UNL     1     -19.023  42.425   2.450  1.00  0.00    -0.260 N 
HETATM   26  C11 UNL     1     -18.646  42.866   1.229  1.00  0.00     0.334 A 
ATOM     27  H7  UNL     1     -19.040  43.082   3.229  1.00  0.00     0.175 HD
HETATM   28  O5  UNL     1     -18.317  44.076   1.055  1.00  0.00    -0.246 OA
HETATM   29  N8  UNL     1     -18.615  42.033   0.202  1.00  0.00    -0.255 N 
HETATM   30  C12 UNL     1     -18.209  42.494  -1.106  1.00  0.00     0.166 C 
HETATM   31  C13 UNL     1     -18.967  40.730   0.383  1.00  0.00     0.336 A 
HETATM   32  O6  UNL     1     -18.912  40.020  -0.652  1.00  0.00    -0.246 OA
ENDBRANCH  21  22
ENDBRANCH  20  21
ENDBRANCH  19  20
ENDBRANCH  18  19
ENDBRANCH  15  18
ENDBRANCH  12  14
ENDBRANCH  11  12
ENDBRANCH   3   5
TORSDOF 7
ENDMDL
MODEL 3
REMARK VINA RESULT: -8.447673034      0.963      1.077
REMARK  8 active torsions:
REMARK  status: ('A' for Active; 'I' for Inactive)
REMARK    1  A    between atoms: C2_3  and  C3_5 
REMARK    2  A    between atoms: C5_11  and  N4_12 
REMARK    3  A    between atoms: N4_12  and  N5_14 
REMARK       I    between atoms: N5_14  and  C6_16 
REMARK    4  A    between atoms: C6_16  and  O3_18 
REMARK    5  A    between atoms: O3_18  and  C7_19 
REMARK    6  A    between atoms: C7_19  and  C8_20 
REMARK    7  A    between atoms: C8_20  and  C9_21 
REMARK    8  A    between atoms: C9_21  and  N6_22 
ROOT
HETATM    1  C1  UNL     1     -24.276  41.540  -4.552  1.00  0.00     0.233 C 
HETATM    2  N1  UNL     1     -24.303  40.633  -5.469  1.00  0.00    -0.390 NA
HETATM    3  C2  UNL     1     -24.332  39.623  -6.491  1.00  0.00     0.345 C 
HETATM    4  O1  UNL     1     -25.015  39.612  -7.507  1.00  0.00    -0.249 OA
ENDROOT
BRANCH   3   5
HETATM    5  C3  UNL     1     -23.396  38.493  -6.208  1.00  0.00     0.160 A 
HETATM    6  N2  UNL     1     -22.732  37.747  -7.109  1.00  0.00    -0.293 N 
HETATM    7  N3  UNL     1     -21.996  36.845  -6.485  1.00  0.00    -0.309 N 
ATOM      8  H2  UNL     1     -22.788  37.860  -8.121  1.00  0.00     0.187 HD
HETATM    9  C4  UNL     1     -22.151  36.968  -5.158  1.00  0.00     0.140 A 
ATOM     10  H3  UNL     1     -21.398  36.157  -6.943  1.00  0.00     0.186 HD
HETATM   11  C5  UNL     1     -23.053  38.029  -4.974  1.00  0.00     0.100 A 
BRANCH  11  12
HETATM   12  N4  UNL     1     -23.497  38.496  -3.716  1.00  0.00    -0.293 N 
ATOM     13  H4  UNL     1     -24.327  39.086  -3.647  1.00  0.00     0.187 HD
BRANCH  12  14
HETATM   14  N5  UNL     1     -22.795  38.145  -2.584  1.00  0.00    -0.245 N 
HETATM   15  C6  UNL     1     -23.351  38.400  -1.280  1.00  0.00     0.379 C 
HETATM   16  O2  UNL     1     -24.479  38.953  -1.175  1.00  0.00    -0.237 OA
ATOM     17  H5  UNL     1     -21.879  37.703  -2.670  1.00  0.00     0.192 HD
BRANCH  15  18
HETATM   18  O3  UNL     1     -22.685  38.053  -0.141  1.00  0.00    -0.303 OA
BRANCH  18  19
HETATM   19  C7  UNL     1     -21.506  38.651   0.293  1.00  0.00     0.182 C 
BRANCH  19  20
HETATM   20  C8  UNL     1     -21.160  38.514   1.735  1.00  0.00     0.047 C 
BRANCH  20  21
HETATM   21  C9  UNL     1     -19.718  38.655   2.057  1.00  0.00     0.141 C 
BRANCH  21  22
HETATM   22  N6  UNL     1     -19.323  39.858   2.723  1.00  0.00    -0.251 N 
HETATM   23  C10 UNL     1     -19.274  39.803   4.090  1.00  0.00     0.334 A 
HETATM   24  O4  UNL     1     -19.544  38.740   4.704  1.00  0.00    -0.246 OA
HETATM   25  N7  UNL     1     -18.930  40.929   4.725  1.00  0.00    -0.260 N 
HETATM   26  C11 UNL     1     -18.643  42.070   4.058  1.00  0.00     0.334 A 
ATOM     27  H7  UNL     1     -18.882  40.927   5.743  1.00  0.00     0.175 HD
HETATM   28  O5  UNL     1     -18.318  43.119   4.687  1.00  0.00    -0.246 OA
HETATM   29  N8  UNL     1     -18.697  42.099   2.737  1.00  0.00    -0.255 N 
HETATM   30  C12 UNL     1     -18.389  43.312   2.015  1.00  0.00     0.166 C 
HETATM   31  C13 UNL     1     -19.046  40.973   2.054  1.00  0.00     0.336 A 
HETATM   32  O6  UNL     1     -19.075  41.102   0.805  1.00  0.00    -0.246 OA
ENDBRANCH  21  22
ENDBRANCH  20  21
ENDBRANCH  19  20
ENDBRANCH  18  19
ENDBRANCH  15  18
ENDBRANCH  12  14
ENDBRANCH  11  12
ENDBRANCH   3   5
TORSDOF 7
ENDMDL
MODEL 4
REMARK VINA RESULT: -8.417490371      1.586      1.675
REMARK  8 active torsions:
REMARK  status: ('A' for Active; 'I' for Inactive)
REMARK    1  A    between atoms: C2_3  and  C3_5 
REMARK    2  A    between atoms: C5_11  and  N4_12 
REMARK    3  A    between atoms: N4_12  and  N5_14 
REMARK       I    between atoms: N5_14  and  C6_16 
REMARK    4  A    between atoms: C6_16  and  O3_18 
REMARK    5  A    between atoms: O3_18  and  C7_19 
REMARK    6  A    between atoms: C7_19  and  C8_20 
REMARK    7  A    between atoms: C8_20  and  C9_21 
REMARK    8  A    between atoms: C9_21  and  N6_22 
ROOT
HETATM    1  C1  UNL     1     -25.342  41.023  -7.779  1.00  0.00     0.233 C 
HETATM    2  N1  UNL     1     -24.750  40.488  -6.766  1.00  0.00    -0.390 NA
HETATM    3  C2  UNL     1     -24.090  39.892  -5.636  1.00  0.00     0.345 C 
HETATM    4  O1  UNL     1     -23.957  40.368  -4.516  1.00  0.00    -0.249 OA
ENDROOT
BRANCH   3   5
HETATM    5  C3  UNL     1     -23.533  38.541  -5.944  1.00  0.00     0.160 A 
HETATM    6  N2  UNL     1     -23.260  38.034  -7.161  1.00  0.00    -0.293 N 
HETATM    7  N3  UNL     1     -22.775  36.813  -7.036  1.00  0.00    -0.309 N 
ATOM      8  H2  UNL     1     -23.405  38.521  -8.045  1.00  0.00     0.187 HD
HETATM    9  C4  UNL     1     -22.714  36.475  -5.739  1.00  0.00     0.140 A 
ATOM     10  H3  UNL     1     -22.490  36.214  -7.812  1.00  0.00     0.186 HD
HETATM   11  C5  UNL     1     -23.201  37.586  -5.031  1.00  0.00     0.100 A 
BRANCH  11  12
HETATM   12  N4  UNL     1     -23.310  37.655  -3.623  1.00  0.00    -0.293 N 
ATOM     13  H4  UNL     1     -24.113  37.244  -3.146  1.00  0.00     0.187 HD
BRANCH  12  14
HETATM   14  N5  UNL     1     -22.318  38.286  -2.904  1.00  0.00    -0.245 N 
HETATM   15  C6  UNL     1     -21.244  37.518  -2.326  1.00  0.00     0.379 C 
HETATM   16  O2  UNL     1     -21.217  36.266  -2.473  1.00  0.00    -0.237 OA
ATOM     17  H5  UNL     1     -22.345  39.298  -2.781  1.00  0.00     0.192 HD
BRANCH  15  18
HETATM   18  O3  UNL     1     -20.243  38.114  -1.619  1.00  0.00    -0.303 OA
BRANCH  18  19
HETATM   19  C7  UNL     1     -20.127  38.073  -0.233  1.00  0.00     0.182 C 
BRANCH  19  20
HETATM   20  C8  UNL     1     -20.122  39.374   0.492  1.00  0.00     0.047 C 
BRANCH  20  21
HETATM   21  C9  UNL     1     -20.073  39.275   1.972  1.00  0.00     0.141 C 
BRANCH  21  22
HETATM   22  N6  UNL     1     -18.919  39.824   2.615  1.00  0.00    -0.251 N 
HETATM   23  C10 UNL     1     -17.911  38.944   2.902  1.00  0.00     0.334 A 
HETATM   24  O4  UNL     1     -18.005  37.730   2.589  1.00  0.00    -0.246 OA
HETATM   25  N7  UNL     1     -16.837  39.441   3.525  1.00  0.00    -0.260 N 
HETATM   26  C11 UNL     1     -16.743  40.748   3.860  1.00  0.00     0.334 A 
ATOM     27  H7  UNL     1     -16.066  38.816   3.755  1.00  0.00     0.175 HD
HETATM   28  O5  UNL     1     -15.713  41.189   4.448  1.00  0.00    -0.246 OA
HETATM   29  N8  UNL     1     -17.731  41.580   3.573  1.00  0.00    -0.255 N 
HETATM   30  C12 UNL     1     -17.638  42.979   3.923  1.00  0.00     0.166 C 
HETATM   31  C13 UNL     1     -18.842  41.111   2.940  1.00  0.00     0.336 A 
HETATM   32  O6  UNL     1     -19.725  41.976   2.717  1.00  0.00    -0.246 OA
ENDBRANCH  21  22
ENDBRANCH  20  21
ENDBRANCH  19  20
ENDBRANCH  18  19
ENDBRANCH  15  18
ENDBRANCH  12  14
ENDBRANCH  11  12
ENDBRANCH   3   5
TORSDOF 7
ENDMDL
MODEL 5
REMARK VINA RESULT: -8.351223758      4.420      8.571
REMARK  8 active torsions:
REMARK  status: ('A' for Active; 'I' for Inactive)
REMARK    1  A    between atoms: C2_3  and  C3_5 
REMARK    2  A    between atoms: C5_11  and  N4_12 
REMARK    3  A    between atoms: N4_12  and  N5_14 
REMARK       I    between atoms: N5_14  and  C6_16 
REMARK    4  A    between atoms: C6_16  and  O3_18 
REMARK    5  A    between atoms: O3_18  and  C7_19 
REMARK    6  A    between atoms: C7_19  and  C8_20 
REMARK    7  A    between atoms: C8_20  and  C9_21 
REMARK    8  A    between atoms: C9_21  and  N6_22 
ROOT
HETATM    1  C1  UNL     1     -26.444  35.360  -2.005  1.00  0.00     0.233 C 
HETATM    2  N1  UNL     1     -26.073  36.453  -1.430  1.00  0.00    -0.390 NA
HETATM    3  C2  UNL     1     -25.659  37.672  -0.789  1.00  0.00     0.345 C 
HETATM    4  O1  UNL     1     -26.260  38.738  -0.760  1.00  0.00    -0.249 OA
ENDROOT
BRANCH   3   5
HETATM    5  C3  UNL     1     -24.339  37.540  -0.103  1.00  0.00     0.160 A 
HETATM    6  N2  UNL     1     -24.117  37.104   1.151  1.00  0.00    -0.293 N 
HETATM    7  N3  UNL     1     -22.822  37.122   1.406  1.00  0.00    -0.309 N 
ATOM      8  H2  UNL     1     -24.840  36.805   1.805  1.00  0.00     0.187 HD
HETATM    9  C4  UNL     1     -22.151  37.568   0.333  1.00  0.00     0.140 A 
ATOM     10  H3  UNL     1     -22.395  36.839   2.288  1.00  0.00     0.186 HD
HETATM   11  C5  UNL     1     -23.124  37.839  -0.642  1.00  0.00     0.100 A 
BRANCH  11  12
HETATM   12  N4  UNL     1     -22.847  38.333  -1.937  1.00  0.00    -0.293 N 
ATOM     13  H4  UNL     1     -22.564  39.304  -2.070  1.00  0.00     0.187 HD
BRANCH  12  14
HETATM   14  N5  UNL     1     -22.965  37.486  -3.018  1.00  0.00    -0.245 N 
HETATM   15  C6  UNL     1     -21.802  37.140  -3.795  1.00  0.00     0.379 C 
HETATM   16  O2  UNL     1     -20.677  37.619  -3.491  1.00  0.00    -0.237 OA
ATOM     17  H5  UNL     1     -23.877  37.103  -3.267  1.00  0.00     0.192 HD
BRANCH  15  18
HETATM   18  O3  UNL     1     -21.885  36.295  -4.863  1.00  0.00    -0.303 OA
BRANCH  18  19
HETATM   19  C7  UNL     1     -21.860  36.705  -6.192  1.00  0.00     0.182 C 
BRANCH  19  20
HETATM   20  C8  UNL     1     -22.329  38.087  -6.491  1.00  0.00     0.047 C 
BRANCH  20  21
HETATM   21  C9  UNL     1     -23.802  38.269  -6.493  1.00  0.00     0.141 C 
BRANCH  21  22
HETATM   22  N6  UNL     1     -24.283  39.614  -6.417  1.00  0.00    -0.251 N 
HETATM   23  C10 UNL     1     -24.844  40.120  -7.559  1.00  0.00     0.334 A 
HETATM   24  O4  UNL     1     -24.940  39.418  -8.597  1.00  0.00    -0.246 OA
HETATM   25  N7  UNL     1     -25.275  41.385  -7.508  1.00  0.00    -0.260 N 
HETATM   26  C11 UNL     1     -25.166  42.135  -6.388  1.00  0.00     0.334 A 
ATOM     27  H7  UNL     1     -25.698  41.796  -8.339  1.00  0.00     0.175 HD
HETATM   28  O5  UNL     1     -25.586  43.330  -6.371  1.00  0.00    -0.246 OA
HETATM   29  N8  UNL     1     -24.620  41.625  -5.297  1.00  0.00    -0.255 N 
HETATM   30  C12 UNL     1     -24.504  42.418  -4.094  1.00  0.00     0.166 C 
HETATM   31  C13 UNL     1     -24.168  40.341  -5.310  1.00  0.00     0.336 A 
HETATM   32  O6  UNL     1     -23.661  39.950  -4.229  1.00  0.00    -0.246 OA
ENDBRANCH  21  22
ENDBRANCH  20  21
ENDBRANCH  19  20
ENDBRANCH  18  19
ENDBRANCH  15  18
ENDBRANCH  12  14
ENDBRANCH  11  12
ENDBRANCH   3   5
TORSDOF 7
ENDMDL
