MODEL 1
REMARK VINA RESULT: -8.638248296      0.000      0.000
REMARK  8 active torsions:
REMARK  status: ('A' for Active; 'I' for Inactive)
REMARK    1  A    between atoms: C3_5  and  C4_6 
REMARK    2  A    between atoms: N2_7  and  N3_9 
REMARK       I    between atoms: N3_9  and  C5_11 
REMARK    3  A    between atoms: C5_11  and  C6_13 
REMARK    4  A    between atoms: C6_13  and  C7_14 
REMARK    5  A    between atoms: C7_14  and  C8_15 
REMARK    6  A    between atoms: C8_15  and  C9_17 
REMARK    7  A    between atoms: C10_18  and  O4_19 
REMARK    8  A    between atoms: N6_30  and  C14_31 
ROOT
HETATM    1  N3  UNL     1     -19.265  36.613  -0.296  1.00  0.00    -0.270 N 
ATOM      2  H3  UNL     1     -19.917  37.328   0.025  1.00  0.00     0.190 HD
HETATM    3  C5  UNL     1     -19.552  35.972  -1.545  1.00  0.00     0.236 C 
HETATM    4  O2  UNL     1     -18.745  35.096  -1.928  1.00  0.00    -0.272 OA
ENDROOT
BRANCH   3   5
HETATM    5  C6  UNL     1     -20.719  36.276  -2.387  1.00  0.00     0.112 C 
BRANCH   5   6
HETATM    6  C7  UNL     1     -20.917  37.749  -2.606  1.00  0.00     0.093 C 
BRANCH   6   7
HETATM    7  C8  UNL     1     -21.547  38.327  -1.397  1.00  0.00     0.169 C 
HETATM    8  O3  UNL     1     -20.847  39.192  -0.749  1.00  0.00    -0.292 OA
BRANCH   7   9
HETATM    9  C9  UNL     1     -22.855  38.002  -0.899  1.00  0.00     0.129 A 
HETATM   10  C10 UNL     1     -23.038  37.376   0.304  1.00  0.00     0.163 A 
HETATM   11  N4  UNL     1     -24.279  37.071   0.771  1.00  0.00    -0.288 N 
HETATM   12  C11 UNL     1     -25.355  37.382   0.053  1.00  0.00     0.329 A 
ATOM     13  H4  UNL     1     -24.384  36.604   1.672  1.00  0.00     0.172 HD
HETATM   14  O5  UNL     1     -26.529  37.110   0.465  1.00  0.00    -0.247 OA
HETATM   15  N5  UNL     1     -25.214  37.999  -1.136  1.00  0.00    -0.275 N 
HETATM   16  C12 UNL     1     -23.990  38.310  -1.620  1.00  0.00     0.267 A 
ATOM     17  H5  UNL     1     -26.043  38.235  -1.681  1.00  0.00     0.173 HD
HETATM   18  O6  UNL     1     -23.896  38.891  -2.743  1.00  0.00    -0.267 OA
BRANCH  10  19
HETATM   19  O4  UNL     1     -21.993  37.020   1.106  1.00  0.00    -0.345 OA
ATOM     20  H4  UNL     1     -22.121  36.592   1.944  1.00  0.00     0.219 HD
ENDBRANCH  10  19
ENDBRANCH   7   9
ENDBRANCH   6   7
ENDBRANCH   5   6
ENDBRANCH   3   5
BRANCH   1  21
HETATM   21  N2  UNL     1     -18.205  36.347   0.485  1.00  0.00    -0.308 N 
HETATM   22  C4  UNL     1     -17.550  36.859   1.396  1.00  0.00     0.125 C 
ATOM     23  H2  UNL     1     -17.820  35.431   0.251  1.00  0.00     0.186 HD
BRANCH  22  24
HETATM   24  C3  UNL     1     -17.679  38.126   2.083  1.00  0.00     0.067 A 
HETATM   25  C2  UNL     1     -18.782  38.837   2.498  1.00  0.00     0.274 A 
HETATM   26  N1  UNL     1     -18.416  39.979   3.102  1.00  0.00    -0.259 N 
HETATM   27  O1  UNL     1     -19.974  38.478   2.338  1.00  0.00    -0.266 OA
HETATM   28  C1  UNL     1     -19.292  40.981   3.668  1.00  0.00     0.181 C 
HETATM   29  N6  UNL     1     -17.115  40.027   3.091  1.00  0.00    -0.293 N 
HETATM   30  C13 UNL     1     -16.608  38.939   2.490  1.00  0.00     0.129 A 
BRANCH  29  31
HETATM   31  C14 UNL     1     -16.272  41.076   3.632  1.00  0.00     0.108 A 
HETATM   32  C15 UNL     1     -15.862  40.854   5.081  1.00  0.00     0.029 A 
HETATM   33  C16 UNL     1     -14.864  40.801   4.002  1.00  0.00     0.029 A 
ENDBRANCH  29  31
ENDBRANCH  22  24
ENDBRANCH   1  21
TORSDOF 8
ENDMDL
MODEL 2
REMARK VINA RESULT: -8.454631989      2.551      3.974
REMARK  8 active torsions:
REMARK  status: ('A' for Active; 'I' for Inactive)
REMARK    1  A    between atoms: C3_5  and  C4_6 
REMARK    2  A    between atoms: N2_7  and  N3_9 
REMARK       I    between atoms: N3_9  and  C5_11 
REMARK    3  A    between atoms: C5_11  and  C6_13 
REMARK    4  A    between atoms: C6_13  and  C7_14 
REMARK    5  A    between atoms: C7_14  and  C8_15 
REMARK    6  A    between atoms: C8_15  and  C9_17 
REMARK    7  A    between atoms: C10_18  and  O4_19 
REMARK    8  A    between atoms: N6_30  and  C14_31 
ROOT
HETATM    1  N3  UNL     1     -21.592  37.327   0.610  1.00  0.00    -0.270 N 
ATOM      2  H3  UNL     1     -20.644  36.978   0.475  1.00  0.00     0.190 HD
HETATM    3  C5  UNL     1     -22.577  36.953  -0.360  1.00  0.00     0.236 C 
HETATM    4  O2  UNL     1     -23.737  37.387  -0.183  1.00  0.00    -0.272 OA
ENDROOT
BRANCH   3   5
HETATM    5  C6  UNL     1     -22.309  36.104  -1.531  1.00  0.00     0.112 C 
BRANCH   5   6
HETATM    6  C7  UNL     1     -21.012  36.435  -2.214  1.00  0.00     0.093 C 
BRANCH   6   7
HETATM    7  C8  UNL     1     -21.137  37.771  -2.840  1.00  0.00     0.169 C 
HETATM    8  O3  UNL     1     -20.529  38.738  -2.244  1.00  0.00    -0.292 OA
BRANCH   7   9
HETATM    9  C9  UNL     1     -21.870  38.068  -4.040  1.00  0.00     0.129 A 
HETATM   10  C10 UNL     1     -23.108  38.650  -4.008  1.00  0.00     0.163 A 
HETATM   11  N4  UNL     1     -23.798  38.929  -5.147  1.00  0.00    -0.288 N 
HETATM   12  C11 UNL     1     -23.270  38.634  -6.333  1.00  0.00     0.329 A 
ATOM     13  H4  UNL     1     -24.719  39.363  -5.092  1.00  0.00     0.172 HD
HETATM   14  O5  UNL     1     -23.892  38.884  -7.416  1.00  0.00    -0.247 OA
HETATM   15  N5  UNL     1     -22.054  38.061  -6.403  1.00  0.00    -0.275 N 
HETATM   16  C12 UNL     1     -21.352  37.774  -5.284  1.00  0.00     0.267 A 
ATOM     17  H5  UNL     1     -21.656  37.839  -7.316  1.00  0.00     0.173 HD
HETATM   18  O6  UNL     1     -20.210  37.234  -5.390  1.00  0.00    -0.267 OA
BRANCH  10  19
HETATM   19  O4  UNL     1     -23.724  38.985  -2.838  1.00  0.00    -0.345 OA
ATOM     20  H4  UNL     1     -24.586  38.657  -2.607  1.00  0.00     0.219 HD
ENDBRANCH  10  19
ENDBRANCH   7   9
ENDBRANCH   6   7
ENDBRANCH   5   6
ENDBRANCH   3   5
BRANCH   1  21
HETATM   21  N2  UNL     1     -21.819  38.102   1.684  1.00  0.00    -0.308 N 
HETATM   22  C4  UNL     1     -21.198  38.758   2.525  1.00  0.00     0.125 C 
ATOM     23  H2  UNL     1     -22.822  38.169   1.861  1.00  0.00     0.186 HD
BRANCH  22  24
HETATM   24  C3  UNL     1     -19.782  38.987   2.716  1.00  0.00     0.067 A 
HETATM   25  C2  UNL     1     -18.685  38.632   1.966  1.00  0.00     0.274 A 
HETATM   26  N1  UNL     1     -17.551  39.065   2.540  1.00  0.00    -0.259 N 
HETATM   27  O1  UNL     1     -18.725  37.988   0.888  1.00  0.00    -0.266 OA
HETATM   28  C1  UNL     1     -16.204  38.882   2.048  1.00  0.00     0.181 C 
HETATM   29  N6  UNL     1     -17.882  39.688   3.635  1.00  0.00    -0.293 N 
HETATM   30  C13 UNL     1     -19.213  39.677   3.799  1.00  0.00     0.129 A 
BRANCH  29  31
HETATM   31  C14 UNL     1     -16.989  40.324   4.584  1.00  0.00     0.108 A 
HETATM   32  C15 UNL     1     -16.696  41.786   4.273  1.00  0.00     0.029 A 
HETATM   33  C16 UNL     1     -17.472  41.413   5.465  1.00  0.00     0.029 A 
ENDBRANCH  29  31
ENDBRANCH  22  24
ENDBRANCH   1  21
TORSDOF 8
ENDMDL
MODEL 3
REMARK VINA RESULT: -8.404147463      2.886      4.444
REMARK  8 active torsions:
REMARK  status: ('A' for Active; 'I' for Inactive)
REMARK    1  A    between atoms: C3_5  and  C4_6 
REMARK    2  A    between atoms: N2_7  and  N3_9 
REMARK       I    between atoms: N3_9  and  C5_11 
REMARK    3  A    between atoms: C5_11  and  C6_13 
REMARK    4  A    between atoms: C6_13  and  C7_14 
REMARK    5  A    between atoms: C7_14  and  C8_15 
REMARK    6  A    between atoms: C8_15  and  C9_17 
REMARK    7  A    between atoms: C10_18  and  O4_19 
REMARK    8  A    between atoms: N6_30  and  C14_31 
ROOT
HETATM    1  N3  UNL     1     -22.569  36.482  -0.032  1.00  0.00    -0.270 N 
ATOM      2  H3  UNL     1     -21.815  35.797  -0.079  1.00  0.00     0.190 HD
HETATM    3  C5  UNL     1     -23.256  36.789  -1.251  1.00  0.00     0.236 C 
HETATM    4  O2  UNL     1     -24.180  37.631  -1.180  1.00  0.00    -0.272 OA
ENDROOT
BRANCH   3   5
HETATM    5  C6  UNL     1     -22.946  36.186  -2.555  1.00  0.00     0.112 C 
BRANCH   5   6
HETATM    6  C7  UNL     1     -21.510  36.363  -2.959  1.00  0.00     0.093 C 
BRANCH   6   7
HETATM    7  C8  UNL     1     -21.381  37.640  -3.697  1.00  0.00     0.169 C 
HETATM    8  O3  UNL     1     -20.419  38.414  -3.330  1.00  0.00    -0.292 OA
BRANCH   7   9
HETATM    9  C9  UNL     1     -22.230  38.075  -4.771  1.00  0.00     0.129 A 
HETATM   10  C10 UNL     1     -23.230  38.990  -4.580  1.00  0.00     0.163 A 
HETATM   11  N4  UNL     1     -24.031  39.399  -5.600  1.00  0.00    -0.288 N 
HETATM   12  C11 UNL     1     -23.853  38.906  -6.824  1.00  0.00     0.329 A 
ATOM     13  H4  UNL     1     -24.768  40.083  -5.427  1.00  0.00     0.172 HD
HETATM   14  O5  UNL     1     -24.588  39.271  -7.799  1.00  0.00    -0.247 OA
HETATM   15  N5  UNL     1     -22.880  38.004  -7.050  1.00  0.00    -0.275 N 
HETATM   16  C12 UNL     1     -22.073  37.583  -6.050  1.00  0.00     0.267 A 
ATOM     17  H5  UNL     1     -22.749  37.631  -7.990  1.00  0.00     0.173 HD
HETATM   18  O6  UNL     1     -21.167  36.732  -6.300  1.00  0.00    -0.267 OA
BRANCH  10  19
HETATM   19  O4  UNL     1     -23.484  39.547  -3.361  1.00  0.00    -0.345 OA
ATOM     20  H4  UNL     1     -23.402  40.480  -3.202  1.00  0.00     0.219 HD
ENDBRANCH  10  19
ENDBRANCH   7   9
ENDBRANCH   6   7
ENDBRANCH   5   6
ENDBRANCH   3   5
BRANCH   1  21
HETATM   21  N2  UNL     1     -22.838  37.024   1.167  1.00  0.00    -0.308 N 
HETATM   22  C4  UNL     1     -22.349  37.813   1.980  1.00  0.00     0.125 C 
ATOM     23  H2  UNL     1     -23.730  36.672   1.517  1.00  0.00     0.186 HD
BRANCH  22  24
HETATM   24  C3  UNL     1     -21.119  38.574   1.964  1.00  0.00     0.067 A 
HETATM   25  C2  UNL     1     -20.370  39.087   0.929  1.00  0.00     0.274 A 
HETATM   26  N1  UNL     1     -19.289  39.734   1.395  1.00  0.00    -0.259 N 
HETATM   27  O1  UNL     1     -20.647  38.971  -0.290  1.00  0.00    -0.266 OA
HETATM   28  C1  UNL     1     -18.271  40.400   0.612  1.00  0.00     0.181 C 
HETATM   29  N6  UNL     1     -19.317  39.656   2.695  1.00  0.00    -0.293 N 
HETATM   30  C13 UNL     1     -20.396  38.969   3.102  1.00  0.00     0.129 A 
BRANCH  29  31
HETATM   31  C14 UNL     1     -18.354  40.208   3.627  1.00  0.00     0.108 A 
HETATM   32  C15 UNL     1     -18.767  41.548   4.221  1.00  0.00     0.029 A 
HETATM   33  C16 UNL     1     -18.683  40.345   5.064  1.00  0.00     0.029 A 
ENDBRANCH  29  31
ENDBRANCH  22  24
ENDBRANCH   1  21
TORSDOF 8
ENDMDL
MODEL 4
REMARK VINA RESULT: -8.378159295      1.080      1.307
REMARK  8 active torsions:
REMARK  status: ('A' for Active; 'I' for Inactive)
REMARK    1  A    between atoms: C3_5  and  C4_6 
REMARK    2  A    between atoms: N2_7  and  N3_9 
REMARK       I    between atoms: N3_9  and  C5_11 
REMARK    3  A    between atoms: C5_11  and  C6_13 
REMARK    4  A    between atoms: C6_13  and  C7_14 
REMARK    5  A    between atoms: C7_14  and  C8_15 
REMARK    6  A    between atoms: C8_15  and  C9_17 
REMARK    7  A    between atoms: C10_18  and  O4_19 
REMARK    8  A    between atoms: N6_30  and  C14_31 
ROOT
HETATM    1  N3  UNL     1     -19.227  36.911  -0.338  1.00  0.00    -0.270 N 
ATOM      2  H3  UNL     1     -19.754  37.774  -0.205  1.00  0.00     0.190 HD
HETATM    3  C5  UNL     1     -19.600  36.076  -1.441  1.00  0.00     0.236 C 
HETATM    4  O2  UNL     1     -18.946  35.020  -1.594  1.00  0.00    -0.272 OA
ENDROOT
BRANCH   3   5
HETATM    5  C6  UNL     1     -20.686  36.380  -2.385  1.00  0.00     0.112 C 
BRANCH   5   6
HETATM    6  C7  UNL     1     -20.907  37.854  -2.571  1.00  0.00     0.093 C 
BRANCH   6   7
HETATM    7  C8  UNL     1     -21.551  38.393  -1.352  1.00  0.00     0.169 C 
HETATM    8  O3  UNL     1     -20.871  39.259  -0.685  1.00  0.00    -0.292 OA
BRANCH   7   9
HETATM    9  C9  UNL     1     -22.853  38.031  -0.864  1.00  0.00     0.129 A 
HETATM   10  C10 UNL     1     -23.025  37.378   0.327  1.00  0.00     0.163 A 
HETATM   11  N4  UNL     1     -24.260  37.037   0.784  1.00  0.00    -0.288 N 
HETATM   12  C11 UNL     1     -25.341  37.338   0.068  1.00  0.00     0.329 A 
ATOM     13  H4  UNL     1     -24.357  36.551   1.676  1.00  0.00     0.172 HD
HETATM   14  O5  UNL     1     -26.510  37.032   0.472  1.00  0.00    -0.247 OA
HETATM   15  N5  UNL     1     -25.211  37.980  -1.108  1.00  0.00    -0.275 N 
HETATM   16  C12 UNL     1     -23.992  38.327  -1.582  1.00  0.00     0.267 A 
ATOM     17  H5  UNL     1     -26.044  38.208  -1.650  1.00  0.00     0.173 HD
HETATM   18  O6  UNL     1     -23.909  38.931  -2.694  1.00  0.00    -0.267 OA
BRANCH  10  19
HETATM   19  O4  UNL     1     -21.975  37.030   1.124  1.00  0.00    -0.345 OA
ATOM     20  H4  UNL     1     -21.997  36.264   1.686  1.00  0.00     0.219 HD
ENDBRANCH  10  19
ENDBRANCH   7   9
ENDBRANCH   6   7
ENDBRANCH   5   6
ENDBRANCH   3   5
BRANCH   1  21
HETATM   21  N2  UNL     1     -18.239  36.648   0.533  1.00  0.00    -0.308 N 
HETATM   22  C4  UNL     1     -17.461  37.239   1.286  1.00  0.00     0.125 C 
ATOM     23  H2  UNL     1     -18.083  35.642   0.591  1.00  0.00     0.186 HD
BRANCH  22  24
HETATM   24  C3  UNL     1     -17.275  38.646   1.570  1.00  0.00     0.067 A 
HETATM   25  C2  UNL     1     -17.396  39.766   0.780  1.00  0.00     0.274 A 
HETATM   26  N1  UNL     1     -17.123  40.879   1.481  1.00  0.00    -0.259 N 
HETATM   27  O1  UNL     1     -17.716  39.762  -0.434  1.00  0.00    -0.266 OA
HETATM   28  C1  UNL     1     -17.144  42.240   0.993  1.00  0.00     0.181 C 
HETATM   29  N6  UNL     1     -16.831  40.512   2.696  1.00  0.00    -0.293 N 
HETATM   30  C13 UNL     1     -16.904  39.178   2.816  1.00  0.00     0.129 A 
BRANCH  29  31
HETATM   31  C14 UNL     1     -16.469  41.371   3.807  1.00  0.00     0.108 A 
HETATM   32  C15 UNL     1     -17.575  41.545   4.839  1.00  0.00     0.029 A 
HETATM   33  C16 UNL     1     -16.339  40.823   5.177  1.00  0.00     0.029 A 
ENDBRANCH  29  31
ENDBRANCH  22  24
ENDBRANCH   1  21
TORSDOF 8
ENDMDL
MODEL 5
REMARK VINA RESULT: -8.368489146      3.312      4.686
REMARK  8 active torsions:
REMARK  status: ('A' for Active; 'I' for Inactive)
REMARK    1  A    between atoms: C3_5  and  C4_6 
REMARK    2  A    between atoms: N2_7  and  N3_9 
REMARK       I    between atoms: N3_9  and  C5_11 
REMARK    3  A    between atoms: C5_11  and  C6_13 
REMARK    4  A    between atoms: C6_13  and  C7_14 
REMARK    5  A    between atoms: C7_14  and  C8_15 
REMARK    6  A    between atoms: C8_15  and  C9_17 
REMARK    7  A    between atoms: C10_18  and  O4_19 
REMARK    8  A    between atoms: N6_30  and  C14_31 
ROOT
HETATM    1  N3  UNL     1     -21.383  37.511   0.037  1.00  0.00    -0.270 N 
ATOM      2  H3  UNL     1     -20.581  36.901  -0.119  1.00  0.00     0.190 HD
HETATM    3  C5  UNL     1     -22.133  37.920  -1.113  1.00  0.00     0.236 C 
HETATM    4  O2  UNL     1     -23.114  38.669  -0.909  1.00  0.00    -0.272 OA
ENDROOT
BRANCH   3   5
HETATM    5  C6  UNL     1     -21.822  37.519  -2.494  1.00  0.00     0.112 C 
BRANCH   5   6
HETATM    6  C7  UNL     1     -21.977  38.641  -3.481  1.00  0.00     0.093 C 
BRANCH   6   7
HETATM    7  C8  UNL     1     -23.108  38.325  -4.382  1.00  0.00     0.169 C 
HETATM    8  O3  UNL     1     -23.572  37.125  -4.314  1.00  0.00    -0.292 OA
BRANCH   7   9
HETATM    9  C9  UNL     1     -23.718  39.236  -5.311  1.00  0.00     0.129 A 
HETATM   10  C10 UNL     1     -23.767  38.977  -6.655  1.00  0.00     0.163 A 
HETATM   11  N4  UNL     1     -24.345  39.843  -7.530  1.00  0.00    -0.288 N 
HETATM   12  C11 UNL     1     -24.883  40.977  -7.086  1.00  0.00     0.329 A 
ATOM     13  H4  UNL     1     -24.367  39.623  -8.526  1.00  0.00     0.172 HD
HETATM   14  O5  UNL     1     -25.432  41.806  -7.882  1.00  0.00    -0.247 OA
HETATM   15  N5  UNL     1     -24.854  41.265  -5.772  1.00  0.00    -0.275 N 
HETATM   16  C12 UNL     1     -24.283  40.419  -4.884  1.00  0.00     0.267 A 
ATOM     17  H5  UNL     1     -25.269  42.136  -5.440  1.00  0.00     0.173 HD
HETATM   18  O6  UNL     1     -24.274  40.725  -3.654  1.00  0.00    -0.267 OA
BRANCH  10  19
HETATM   19  O4  UNL     1     -23.241  37.841  -7.196  1.00  0.00    -0.345 OA
ATOM     20  H4  UNL     1     -23.766  37.066  -7.357  1.00  0.00     0.219 HD
ENDBRANCH  10  19
ENDBRANCH   7   9
ENDBRANCH   6   7
ENDBRANCH   5   6
ENDBRANCH   3   5
BRANCH   1  21
HETATM   21  N2  UNL     1     -21.652  37.868   1.304  1.00  0.00    -0.308 N 
HETATM   22  C4  UNL     1     -21.203  38.590   2.198  1.00  0.00     0.125 C 
ATOM     23  H2  UNL     1     -22.494  37.393   1.629  1.00  0.00     0.186 HD
BRANCH  22  24
HETATM   24  C3  UNL     1     -20.048  39.460   2.248  1.00  0.00     0.067 A 
HETATM   25  C2  UNL     1     -19.362  40.131   1.262  1.00  0.00     0.274 A 
HETATM   26  N1  UNL     1     -18.339  40.830   1.781  1.00  0.00    -0.259 N 
HETATM   27  O1  UNL     1     -19.644  40.103   0.038  1.00  0.00    -0.266 OA
HETATM   28  C1  UNL     1     -17.397  41.655   1.059  1.00  0.00     0.181 C 
HETATM   29  N6  UNL     1     -18.344  40.630   3.067  1.00  0.00    -0.293 N 
HETATM   30  C13 UNL     1     -19.350  39.813   3.414  1.00  0.00     0.129 A 
BRANCH  29  31
HETATM   31  C14 UNL     1     -17.422  41.181   4.043  1.00  0.00     0.108 A 
HETATM   32  C15 UNL     1     -17.864  42.517   4.623  1.00  0.00     0.029 A 
HETATM   33  C16 UNL     1     -17.814  41.312   5.465  1.00  0.00     0.029 A 
ENDBRANCH  29  31
ENDBRANCH  22  24
ENDBRANCH   1  21
TORSDOF 8
ENDMDL
