MODEL 1
REMARK VINA RESULT: -8.849391536      0.000      0.000
REMARK  13 active torsions:
REMARK  status: ('A' for Active; 'I' for Inactive)
REMARK    1  A    between atoms: S1_2  and  C2_3 
REMARK    2  A    between atoms: C2_3  and  C3_4 
REMARK    3  A    between atoms: C3_4  and  C4_5 
REMARK    4  A    between atoms: C4_5  and  N1_6 
REMARK    5  A    between atoms: C4_5  and  C10_15 
REMARK       I    between atoms: N1_6  and  C5_8 
REMARK    6  A    between atoms: C5_8  and  O2_10 
REMARK    7  A    between atoms: O2_10  and  C6_11 
REMARK       I    between atoms: C10_15  and  N2_17 
REMARK    8  A    between atoms: N2_17  and  C11_19 
REMARK    9  A    between atoms: C11_19  and  C12_20 
REMARK   10  A    between atoms: C12_20  and  N3_21 
REMARK   11  A    between atoms: N5_26  and  C16_27 
REMARK   12  A    between atoms: C16_27  and  C17_28 
REMARK   13  A    between atoms: C17_28  and  C18_29 
ROOT
HETATM    1  N3  UNL     1      17.553  23.044  18.810  1.00  0.00     0.092 N 
HETATM    2  C13 UNL     1      18.354  22.521  17.761  1.00  0.00     0.288 C 
HETATM    3  C14 UNL     1      17.685  22.154  16.493  1.00  0.00     0.138 C 
HETATM    4  N4  UNL     1      16.711  23.051  15.969  1.00  0.00    -0.252 NA
HETATM    5  C15 UNL     1      17.104  24.438  16.071  1.00  0.00     0.130 C 
HETATM    6  N5  UNL     1      15.417  22.794  16.465  1.00  0.00    -0.248 NA
HETATM    7  C26 UNL     1      15.371  23.432  17.812  1.00  0.00     0.138 C 
HETATM    8  C27 UNL     1      16.218  22.585  18.767  1.00  0.00     0.288 C 
ENDROOT
BRANCH   1   9
HETATM    9  C12 UNL     1      18.245  22.863  20.043  1.00  0.00     0.292 C 
BRANCH   9  10
HETATM   10  C11 UNL     1      18.289  24.016  20.981  1.00  0.00     0.152 C 
BRANCH  10  11
HETATM   11  N2  UNL     1      19.108  25.103  20.462  1.00  0.00    -0.358 N 
HETATM   12  C10 UNL     1      20.504  25.041  20.270  1.00  0.00     0.240 C 
HETATM   13  O3  UNL     1      21.152  24.002  20.535  1.00  0.00    -0.271 OA
ATOM     14  H2  UNL     1      18.637  25.975  20.220  1.00  0.00     0.162 HD
BRANCH  12  15
HETATM   15  C4  UNL     1      21.281  26.217  19.740  1.00  0.00     0.179 C 
BRANCH  15  16
HETATM   16  C3  UNL     1      21.350  27.245  20.831  1.00  0.00     0.045 C 
BRANCH  16  17
HETATM   17  C2  UNL     1      22.006  26.775  22.092  1.00  0.00     0.076 C 
BRANCH  17  18
HETATM   18  S1  UNL     1      23.675  26.173  21.907  1.00  0.00    -0.173 SA
HETATM   19  C1  UNL     1      23.938  24.529  22.622  1.00  0.00     0.089 C 
ENDBRANCH  17  18
ENDBRANCH  16  17
ENDBRANCH  15  16
BRANCH  15  20
HETATM   20  N1  UNL     1      20.694  26.711  18.538  1.00  0.00    -0.324 N 
HETATM   21  C5  UNL     1      21.369  27.420  17.513  1.00  0.00     0.362 C 
HETATM   22  O1  UNL     1      22.578  27.680  17.581  1.00  0.00    -0.238 OA
ATOM     23  H1  UNL     1      19.698  26.538  18.402  1.00  0.00     0.165 HD
BRANCH  21  24
HETATM   24  O2  UNL     1      20.667  27.838  16.405  1.00  0.00    -0.294 OA
BRANCH  24  25
HETATM   25  C6  UNL     1      20.668  27.198  15.163  1.00  0.00     0.061 C 
HETATM   26  C7  UNL     1      21.313  25.844  15.160  1.00  0.00     0.046 C 
HETATM   27  C8  UNL     1      21.531  28.072  14.237  1.00  0.00     0.046 C 
HETATM   28  C9  UNL     1      19.287  27.190  14.539  1.00  0.00     0.046 C 
ENDBRANCH  24  25
ENDBRANCH  21  24
ENDBRANCH  15  20
ENDBRANCH  12  15
ENDBRANCH  10  11
ENDBRANCH   9  10
ENDBRANCH   1   9
BRANCH   6  29
HETATM   29  C16 UNL     1      14.348  23.290  15.673  1.00  0.00     0.114 C 
BRANCH  29  30
HETATM   30  C17 UNL     1      13.510  22.309  15.022  1.00  0.00     0.080 C 
BRANCH  30  31
HETATM   31  C18 UNL     1      12.951  21.171  15.771  1.00  0.00     0.052 A 
HETATM   32  N6  UNL     1      13.279  20.955  17.091  1.00  0.00    -0.356 N 
HETATM   33  C19 UNL     1      12.755  19.975  17.704  1.00  0.00     0.023 A 
ATOM     34  H6  UNL     1      13.934  21.574  17.569  1.00  0.00     0.166 HD
HETATM   35  C20 UNL     1      11.877  19.157  17.034  1.00  0.00     0.007 A 
HETATM   36  C25 UNL     1      13.095  19.716  19.174  1.00  0.00     0.058 C 
HETATM   37  S2  UNL     1      11.871  19.897  15.504  1.00  0.00    -0.079 SA
HETATM   38  C21 UNL     1      11.121  17.942  17.484  1.00  0.00     0.048 C 
HETATM   39  C22 UNL     1      11.957  17.205  18.539  1.00  0.00     0.005 C 
HETATM   40  C23 UNL     1      13.427  17.403  18.341  1.00  0.00     0.001 C 
HETATM   41  C24 UNL     1      13.964  18.483  19.248  1.00  0.00     0.006 C 
ENDBRANCH  30  31
ENDBRANCH  29  30
ENDBRANCH   6  29
TORSDOF 13
ENDMDL
MODEL 2
REMARK VINA RESULT: -8.795728818      0.995      1.093
REMARK  13 active torsions:
REMARK  status: ('A' for Active; 'I' for Inactive)
REMARK    1  A    between atoms: S1_2  and  C2_3 
REMARK    2  A    between atoms: C2_3  and  C3_4 
REMARK    3  A    between atoms: C3_4  and  C4_5 
REMARK    4  A    between atoms: C4_5  and  N1_6 
REMARK    5  A    between atoms: C4_5  and  C10_15 
REMARK       I    between atoms: N1_6  and  C5_8 
REMARK    6  A    between atoms: C5_8  and  O2_10 
REMARK    7  A    between atoms: O2_10  and  C6_11 
REMARK       I    between atoms: C10_15  and  N2_17 
REMARK    8  A    between atoms: N2_17  and  C11_19 
REMARK    9  A    between atoms: C11_19  and  C12_20 
REMARK   10  A    between atoms: C12_20  and  N3_21 
REMARK   11  A    between atoms: N5_26  and  C16_27 
REMARK   12  A    between atoms: C16_27  and  C17_28 
REMARK   13  A    between atoms: C17_28  and  C18_29 
ROOT
HETATM    1  N3  UNL     1      17.339  22.806  19.124  1.00  0.00     0.092 N 
HETATM    2  C13 UNL     1      17.875  21.496  19.008  1.00  0.00     0.288 C 
HETATM    3  C14 UNL     1      17.452  20.672  17.853  1.00  0.00     0.138 C 
HETATM    4  N4  UNL     1      17.392  21.296  16.575  1.00  0.00    -0.252 NA
HETATM    5  C15 UNL     1      18.512  22.174  16.319  1.00  0.00     0.130 C 
HETATM    6  N5  UNL     1      16.140  21.893  16.322  1.00  0.00    -0.248 NA
HETATM    7  C26 UNL     1      16.172  23.205  17.029  1.00  0.00     0.138 C 
HETATM    8  C27 UNL     1      16.062  22.935  18.534  1.00  0.00     0.288 C 
ENDROOT
BRANCH   1   9
HETATM    9  C12 UNL     1      17.453  23.225  20.482  1.00  0.00     0.292 C 
BRANCH   9  10
HETATM   10  C11 UNL     1      18.821  23.343  21.051  1.00  0.00     0.152 C 
BRANCH  10  11
HETATM   11  N2  UNL     1      19.487  24.561  20.609  1.00  0.00    -0.358 N 
HETATM   12  C10 UNL     1      20.567  24.607  19.704  1.00  0.00     0.240 C 
HETATM   13  O3  UNL     1      21.035  23.563  19.195  1.00  0.00    -0.271 OA
ATOM     14  H2  UNL     1      19.145  25.448  20.982  1.00  0.00     0.162 HD
BRANCH  12  15
HETATM   15  C4  UNL     1      21.209  25.910  19.307  1.00  0.00     0.179 C 
BRANCH  15  16
HETATM   16  C3  UNL     1      21.151  26.826  20.494  1.00  0.00     0.045 C 
BRANCH  16  17
HETATM   17  C2  UNL     1      22.471  27.083  21.151  1.00  0.00     0.076 C 
BRANCH  17  18
HETATM   18  S1  UNL     1      22.804  26.107  22.606  1.00  0.00    -0.173 SA
HETATM   19  C1  UNL     1      23.426  24.445  22.240  1.00  0.00     0.089 C 
ENDBRANCH  17  18
ENDBRANCH  16  17
ENDBRANCH  15  16
BRANCH  15  20
HETATM   20  N1  UNL     1      20.580  26.452  18.147  1.00  0.00    -0.324 N 
HETATM   21  C5  UNL     1      21.163  27.366  17.235  1.00  0.00     0.362 C 
HETATM   22  O1  UNL     1      22.319  27.789  17.376  1.00  0.00    -0.238 OA
ATOM     23  H1  UNL     1      19.623  26.154  17.956  1.00  0.00     0.165 HD
BRANCH  21  24
HETATM   24  O2  UNL     1      20.430  27.805  16.155  1.00  0.00    -0.294 OA
BRANCH  24  25
HETATM   25  C6  UNL     1      20.429  27.215  14.889  1.00  0.00     0.061 C 
HETATM   26  C7  UNL     1      21.164  25.910  14.810  1.00  0.00     0.046 C 
HETATM   27  C8  UNL     1      21.197  28.181  13.971  1.00  0.00     0.046 C 
HETATM   28  C9  UNL     1      19.031  27.136  14.312  1.00  0.00     0.046 C 
ENDBRANCH  24  25
ENDBRANCH  21  24
ENDBRANCH  15  20
ENDBRANCH  12  15
ENDBRANCH  10  11
ENDBRANCH   9  10
ENDBRANCH   1   9
BRANCH   6  29
HETATM   29  C16 UNL     1      15.828  22.104  14.952  1.00  0.00     0.114 C 
BRANCH  29  30
HETATM   30  C17 UNL     1      14.722  21.348  14.412  1.00  0.00     0.080 C 
BRANCH  30  31
HETATM   31  C18 UNL     1      13.736  20.707  15.299  1.00  0.00     0.052 A 
HETATM   32  N6  UNL     1      14.065  20.338  16.584  1.00  0.00    -0.356 N 
HETATM   33  C19 UNL     1      13.176  19.810  17.320  1.00  0.00     0.023 A 
ATOM     34  H6  UNL     1      15.009  20.487  16.938  1.00  0.00     0.166 HD
HETATM   35  C20 UNL     1      11.913  19.620  16.815  1.00  0.00     0.007 A 
HETATM   36  C25 UNL     1      13.512  19.398  18.756  1.00  0.00     0.058 C 
HETATM   37  S2  UNL     1      12.109  20.248  15.247  1.00  0.00    -0.079 SA
HETATM   38  C21 UNL     1      10.681  19.025  17.432  1.00  0.00     0.048 C 
HETATM   39  C22 UNL     1      11.107  17.943  18.433  1.00  0.00     0.005 C 
HETATM   40  C23 UNL     1      12.401  17.294  18.055  1.00  0.00     0.001 C 
HETATM   41  C24 UNL     1      13.560  17.889  18.816  1.00  0.00     0.006 C 
ENDBRANCH  30  31
ENDBRANCH  29  30
ENDBRANCH   6  29
TORSDOF 13
ENDMDL
MODEL 3
REMARK VINA RESULT: -8.654192931      3.792     10.492
REMARK  13 active torsions:
REMARK  status: ('A' for Active; 'I' for Inactive)
REMARK    1  A    between atoms: S1_2  and  C2_3 
REMARK    2  A    between atoms: C2_3  and  C3_4 
REMARK    3  A    between atoms: C3_4  and  C4_5 
REMARK    4  A    between atoms: C4_5  and  N1_6 
REMARK    5  A    between atoms: C4_5  and  C10_15 
REMARK       I    between atoms: N1_6  and  C5_8 
REMARK    6  A    between atoms: C5_8  and  O2_10 
REMARK    7  A    between atoms: O2_10  and  C6_11 
REMARK       I    between atoms: C10_15  and  N2_17 
REMARK    8  A    between atoms: N2_17  and  C11_19 
REMARK    9  A    between atoms: C11_19  and  C12_20 
REMARK   10  A    between atoms: C12_20  and  N3_21 
REMARK   11  A    between atoms: N5_26  and  C16_27 
REMARK   12  A    between atoms: C16_27  and  C17_28 
REMARK   13  A    between atoms: C17_28  and  C18_29 
ROOT
HETATM    1  N3  UNL     1      16.315  22.189  19.318  1.00  0.00     0.092 N 
HETATM    2  C13 UNL     1      17.061  21.128  18.739  1.00  0.00     0.288 C 
HETATM    3  C14 UNL     1      18.528  21.291  18.629  1.00  0.00     0.138 C 
HETATM    4  N4  UNL     1      19.225  21.832  19.746  1.00  0.00    -0.252 NA
HETATM    5  C15 UNL     1      18.764  21.306  21.012  1.00  0.00     0.130 C 
HETATM    6  N5  UNL     1      19.292  23.240  19.713  1.00  0.00    -0.248 NA
HETATM    7  C26 UNL     1      17.975  23.716  20.225  1.00  0.00     0.138 C 
HETATM    8  C27 UNL     1      16.922  23.452  19.142  1.00  0.00     0.288 C 
ENDROOT
BRANCH   1   9
HETATM    9  C12 UNL     1      14.959  22.075  18.893  1.00  0.00     0.292 C 
BRANCH   9  10
HETATM   10  C11 UNL     1      14.197  20.880  19.341  1.00  0.00     0.152 C 
BRANCH  10  11
HETATM   11  N2  UNL     1      13.411  20.303  18.259  1.00  0.00    -0.358 N 
HETATM   12  C10 UNL     1      12.310  19.441  18.432  1.00  0.00     0.240 C 
HETATM   13  O3  UNL     1      11.915  19.111  19.575  1.00  0.00    -0.271 OA
ATOM     14  H2  UNL     1      13.678  20.541  17.303  1.00  0.00     0.162 HD
BRANCH  12  15
HETATM   15  C4  UNL     1      11.556  18.875  17.257  1.00  0.00     0.179 C 
BRANCH  15  16
HETATM   16  C3  UNL     1      11.472  17.388  17.445  1.00  0.00     0.045 C 
BRANCH  16  17
HETATM   17  C2  UNL     1      10.305  16.738  16.770  1.00  0.00     0.076 C 
BRANCH  17  18
HETATM   18  S1  UNL     1      10.695  15.795  15.308  1.00  0.00    -0.173 SA
HETATM   19  C1  UNL     1      10.671  16.773  13.784  1.00  0.00     0.089 C 
ENDBRANCH  17  18
ENDBRANCH  16  17
ENDBRANCH  15  16
BRANCH  15  20
HETATM   20  N1  UNL     1      12.176  19.253  16.030  1.00  0.00    -0.324 N 
HETATM   21  C5  UNL     1      11.765  20.313  15.184  1.00  0.00     0.362 C 
HETATM   22  O1  UNL     1      10.793  21.031  15.453  1.00  0.00    -0.238 OA
ATOM     23  H1  UNL     1      12.988  18.712  15.733  1.00  0.00     0.165 HD
BRANCH  21  24
HETATM   24  O2  UNL     1      12.464  20.561  14.023  1.00  0.00    -0.294 OA
BRANCH  24  25
HETATM   25  C6  UNL     1      13.478  21.512  13.881  1.00  0.00     0.061 C 
HETATM   26  C7  UNL     1      13.019  22.934  14.000  1.00  0.00     0.046 C 
HETATM   27  C8  UNL     1      14.000  21.362  12.441  1.00  0.00     0.046 C 
HETATM   28  C9  UNL     1      14.662  21.200  14.773  1.00  0.00     0.046 C 
ENDBRANCH  24  25
ENDBRANCH  21  24
ENDBRANCH  15  20
ENDBRANCH  12  15
ENDBRANCH  10  11
ENDBRANCH   9  10
ENDBRANCH   1   9
BRANCH   6  29
HETATM   29  C16 UNL     1      20.334  23.822  20.482  1.00  0.00     0.114 C 
BRANCH  29  30
HETATM   30  C17 UNL     1      20.406  25.265  20.495  1.00  0.00     0.080 C 
BRANCH  30  31
HETATM   31  C18 UNL     1      20.784  26.017  19.286  1.00  0.00     0.052 A 
HETATM   32  N6  UNL     1      20.036  25.939  18.134  1.00  0.00    -0.356 N 
HETATM   33  C19 UNL     1      20.386  26.622  17.123  1.00  0.00     0.023 A 
ATOM     34  H6  UNL     1      19.211  25.340  18.093  1.00  0.00     0.166 HD
HETATM   35  C20 UNL     1      21.501  27.420  17.207  1.00  0.00     0.007 A 
HETATM   36  C25 UNL     1      19.566  26.561  15.831  1.00  0.00     0.058 C 
HETATM   37  S2  UNL     1      21.982  27.112  18.809  1.00  0.00    -0.079 SA
HETATM   38  C21 UNL     1      22.152  28.318  16.197  1.00  0.00     0.048 C 
HETATM   39  C22 UNL     1      21.928  27.727  14.798  1.00  0.00     0.005 C 
HETATM   40  C23 UNL     1      21.809  26.236  14.822  1.00  0.00     0.001 C 
HETATM   41  C24 UNL     1      20.365  25.798  14.801  1.00  0.00     0.006 C 
ENDBRANCH  30  31
ENDBRANCH  29  30
ENDBRANCH   6  29
TORSDOF 13
ENDMDL
MODEL 4
REMARK VINA RESULT: -8.594440057      4.458     10.906
REMARK  13 active torsions:
REMARK  status: ('A' for Active; 'I' for Inactive)
REMARK    1  A    between atoms: S1_2  and  C2_3 
REMARK    2  A    between atoms: C2_3  and  C3_4 
REMARK    3  A    between atoms: C3_4  and  C4_5 
REMARK    4  A    between atoms: C4_5  and  N1_6 
REMARK    5  A    between atoms: C4_5  and  C10_15 
REMARK       I    between atoms: N1_6  and  C5_8 
REMARK    6  A    between atoms: C5_8  and  O2_10 
REMARK    7  A    between atoms: O2_10  and  C6_11 
REMARK       I    between atoms: C10_15  and  N2_17 
REMARK    8  A    between atoms: N2_17  and  C11_19 
REMARK    9  A    between atoms: C11_19  and  C12_20 
REMARK   10  A    between atoms: C12_20  and  N3_21 
REMARK   11  A    between atoms: N5_26  and  C16_27 
REMARK   12  A    between atoms: C16_27  and  C17_28 
REMARK   13  A    between atoms: C17_28  and  C18_29 
ROOT
HETATM    1  N3  UNL     1      15.998  22.941  16.399  1.00  0.00     0.092 N 
HETATM    2  C13 UNL     1      16.866  21.928  15.912  1.00  0.00     0.288 C 
HETATM    3  C14 UNL     1      18.178  21.761  16.574  1.00  0.00     0.138 C 
HETATM    4  N4  UNL     1      18.217  21.800  17.997  1.00  0.00    -0.252 NA
HETATM    5  C15 UNL     1      17.126  21.080  18.614  1.00  0.00     0.130 C 
HETATM    6  N5  UNL     1      18.383  23.107  18.498  1.00  0.00    -0.248 NA
HETATM    7  C26 UNL     1      17.028  23.728  18.456  1.00  0.00     0.138 C 
HETATM    8  C27 UNL     1      16.687  24.022  16.990  1.00  0.00     0.288 C 
ENDROOT
BRANCH   1   9
HETATM    9  C12 UNL     1      15.064  23.271  15.374  1.00  0.00     0.292 C 
BRANCH   9  10
HETATM   10  C11 UNL     1      13.618  23.219  15.719  1.00  0.00     0.152 C 
BRANCH  10  11
HETATM   11  N2  UNL     1      13.127  21.850  15.781  1.00  0.00    -0.358 N 
HETATM   12  C10 UNL     1      12.067  21.337  15.006  1.00  0.00     0.240 C 
HETATM   13  O3  UNL     1      11.464  22.053  14.174  1.00  0.00    -0.271 OA
ATOM     14  H2  UNL     1      13.585  21.213  16.435  1.00  0.00     0.162 HD
BRANCH  12  15
HETATM   15  C4  UNL     1      11.610  19.908  15.140  1.00  0.00     0.179 C 
BRANCH  15  16
HETATM   16  C3  UNL     1      11.932  19.457  16.535  1.00  0.00     0.045 C 
BRANCH  16  17
HETATM   17  C2  UNL     1      11.006  18.416  17.085  1.00  0.00     0.076 C 
BRANCH  17  18
HETATM   18  S1  UNL     1      11.796  17.074  17.953  1.00  0.00    -0.173 SA
HETATM   19  C1  UNL     1      13.367  17.534  18.728  1.00  0.00     0.089 C 
ENDBRANCH  17  18
ENDBRANCH  16  17
ENDBRANCH  15  16
BRANCH  15  20
HETATM   20  N1  UNL     1      12.203  19.090  14.133  1.00  0.00    -0.324 N 
HETATM   21  C5  UNL     1      11.564  18.621  12.959  1.00  0.00     0.362 C 
HETATM   22  O1  UNL     1      10.385  18.897  12.698  1.00  0.00    -0.238 OA
ATOM     23  H1  UNL     1      13.177  18.817  14.271  1.00  0.00     0.165 HD
BRANCH  21  24
HETATM   24  O2  UNL     1      12.267  17.834  12.074  1.00  0.00    -0.294 OA
BRANCH  24  25
HETATM   25  C6  UNL     1      12.075  16.463  11.889  1.00  0.00     0.061 C 
HETATM   26  C7  UNL     1      11.588  15.732  13.104  1.00  0.00     0.046 C 
HETATM   27  C8  UNL     1      13.464  15.879  11.580  1.00  0.00     0.046 C 
HETATM   28  C9  UNL     1      11.236  16.180  10.660  1.00  0.00     0.046 C 
ENDBRANCH  24  25
ENDBRANCH  21  24
ENDBRANCH  15  20
ENDBRANCH  12  15
ENDBRANCH  10  11
ENDBRANCH   9  10
ENDBRANCH   1   9
BRANCH   6  29
HETATM   29  C16 UNL     1      18.900  23.197  19.818  1.00  0.00     0.114 C 
BRANCH  29  30
HETATM   30  C17 UNL     1      19.536  24.441  20.186  1.00  0.00     0.080 C 
BRANCH  30  31
HETATM   31  C18 UNL     1      20.347  25.195  19.214  1.00  0.00     0.052 A 
HETATM   32  N6  UNL     1      19.781  25.748  18.088  1.00  0.00    -0.356 N 
HETATM   33  C19 UNL     1      20.514  26.409  17.291  1.00  0.00     0.023 A 
ATOM     34  H6  UNL     1      18.786  25.628  17.898  1.00  0.00     0.166 HD
HETATM   35  C20 UNL     1      21.851  26.554  17.572  1.00  0.00     0.007 A 
HETATM   36  C25 UNL     1      19.908  27.043  16.035  1.00  0.00     0.058 C 
HETATM   37  S2  UNL     1      21.955  25.688  19.032  1.00  0.00    -0.079 SA
HETATM   38  C21 UNL     1      22.946  27.259  16.828  1.00  0.00     0.048 C 
HETATM   39  C22 UNL     1      22.643  27.190  15.325  1.00  0.00     0.005 C 
HETATM   40  C23 UNL     1      21.865  25.966  14.957  1.00  0.00     0.001 C 
HETATM   41  C24 UNL     1      20.392  26.266  14.833  1.00  0.00     0.006 C 
ENDBRANCH  30  31
ENDBRANCH  29  30
ENDBRANCH   6  29
TORSDOF 13
ENDMDL
MODEL 5
REMARK VINA RESULT: -8.535827886      1.376      1.600
REMARK  13 active torsions:
REMARK  status: ('A' for Active; 'I' for Inactive)
REMARK    1  A    between atoms: S1_2  and  C2_3 
REMARK    2  A    between atoms: C2_3  and  C3_4 
REMARK    3  A    between atoms: C3_4  and  C4_5 
REMARK    4  A    between atoms: C4_5  and  N1_6 
REMARK    5  A    between atoms: C4_5  and  C10_15 
REMARK       I    between atoms: N1_6  and  C5_8 
REMARK    6  A    between atoms: C5_8  and  O2_10 
REMARK    7  A    between atoms: O2_10  and  C6_11 
REMARK       I    between atoms: C10_15  and  N2_17 
REMARK    8  A    between atoms: N2_17  and  C11_19 
REMARK    9  A    between atoms: C11_19  and  C12_20 
REMARK   10  A    between atoms: C12_20  and  N3_21 
REMARK   11  A    between atoms: N5_26  and  C16_27 
REMARK   12  A    between atoms: C16_27  and  C17_28 
REMARK   13  A    between atoms: C17_28  and  C18_29 
ROOT
HETATM    1  N3  UNL     1      17.572  22.942  19.105  1.00  0.00     0.092 N 
HETATM    2  C13 UNL     1      17.772  21.536  19.129  1.00  0.00     0.288 C 
HETATM    3  C14 UNL     1      17.138  20.726  18.066  1.00  0.00     0.138 C 
HETATM    4  N4  UNL     1      17.204  21.210  16.729  1.00  0.00    -0.252 NA
HETATM    5  C15 UNL     1      18.498  21.757  16.387  1.00  0.00     0.130 C 
HETATM    6  N5  UNL     1      16.129  22.064  16.408  1.00  0.00    -0.248 NA
HETATM    7  C26 UNL     1      16.493  23.394  16.974  1.00  0.00     0.138 C 
HETATM    8  C27 UNL     1      16.353  23.316  18.499  1.00  0.00     0.288 C 
ENDROOT
BRANCH   1   9
HETATM    9  C12 UNL     1      17.813  23.458  20.412  1.00  0.00     0.292 C 
BRANCH   9  10
HETATM   10  C11 UNL     1      19.138  23.181  21.026  1.00  0.00     0.152 C 
BRANCH  10  11
HETATM   11  N2  UNL     1      20.233  23.594  20.158  1.00  0.00    -0.358 N 
HETATM   12  C10 UNL     1      20.853  24.859  20.189  1.00  0.00     0.240 C 
HETATM   13  O3  UNL     1      20.495  25.740  21.005  1.00  0.00    -0.271 OA
ATOM     14  H2  UNL     1      20.576  22.917  19.476  1.00  0.00     0.162 HD
BRANCH  12  15
HETATM   15  C4  UNL     1      21.973  25.213  19.246  1.00  0.00     0.179 C 
BRANCH  15  16
HETATM   16  C3  UNL     1      23.114  25.735  20.071  1.00  0.00     0.045 C 
BRANCH  16  17
HETATM   17  C2  UNL     1      23.932  24.678  20.744  1.00  0.00     0.076 C 
BRANCH  17  18
HETATM   18  S1  UNL     1      23.899  24.706  22.527  1.00  0.00    -0.173 SA
HETATM   19  C1  UNL     1      23.218  26.237  23.217  1.00  0.00     0.089 C 
ENDBRANCH  17  18
ENDBRANCH  16  17
ENDBRANCH  15  16
BRANCH  15  20
HETATM   20  N1  UNL     1      21.527  26.137  18.255  1.00  0.00    -0.324 N 
HETATM   21  C5  UNL     1      20.422  25.954  17.386  1.00  0.00     0.362 C 
HETATM   22  O1  UNL     1      19.722  24.934  17.418  1.00  0.00    -0.238 OA
ATOM     23  H1  UNL     1      22.050  27.008  18.163  1.00  0.00     0.165 HD
BRANCH  21  24
HETATM   24  O2  UNL     1      20.110  26.938  16.474  1.00  0.00    -0.294 OA
BRANCH  24  25
HETATM   25  C6  UNL     1      20.252  26.825  15.088  1.00  0.00     0.061 C 
HETATM   26  C7  UNL     1      21.273  25.820  14.646  1.00  0.00     0.046 C 
HETATM   27  C8  UNL     1      20.773  28.189  14.604  1.00  0.00     0.046 C 
HETATM   28  C9  UNL     1      18.912  26.639  14.405  1.00  0.00     0.046 C 
ENDBRANCH  24  25
ENDBRANCH  21  24
ENDBRANCH  15  20
ENDBRANCH  12  15
ENDBRANCH  10  11
ENDBRANCH   9  10
ENDBRANCH   1   9
BRANCH   6  29
HETATM   29  C16 UNL     1      15.849  22.203  15.023  1.00  0.00     0.114 C 
BRANCH  29  30
HETATM   30  C17 UNL     1      14.842  21.326  14.471  1.00  0.00     0.080 C 
BRANCH  30  31
HETATM   31  C18 UNL     1      13.815  20.714  15.331  1.00  0.00     0.052 A 
HETATM   32  N6  UNL     1      14.093  20.352  16.630  1.00  0.00    -0.356 N 
HETATM   33  C19 UNL     1      13.171  19.850  17.342  1.00  0.00     0.023 A 
ATOM     34  H6  UNL     1      15.029  20.487  17.014  1.00  0.00     0.166 HD
HETATM   35  C20 UNL     1      11.921  19.679  16.797  1.00  0.00     0.007 A 
HETATM   36  C25 UNL     1      13.452  19.447  18.792  1.00  0.00     0.058 C 
HETATM   37  S2  UNL     1      12.181  20.286  15.231  1.00  0.00    -0.079 SA
HETATM   38  C21 UNL     1      10.659  19.116  17.380  1.00  0.00     0.048 C 
HETATM   39  C22 UNL     1      11.029  18.036  18.405  1.00  0.00     0.005 C 
HETATM   40  C23 UNL     1      12.322  17.358  18.076  1.00  0.00     0.001 C 
HETATM   41  C24 UNL     1      13.467  17.938  18.869  1.00  0.00     0.006 C 
ENDBRANCH  30  31
ENDBRANCH  29  30
ENDBRANCH   6  29
TORSDOF 13
ENDMDL
