MODEL 1
REMARK VINA RESULT: -9.489983865      0.000      0.000
REMARK  14 active torsions:
REMARK  status: ('A' for Active; 'I' for Inactive)
REMARK    1  A    between atoms: C3_3  and  C4_4 
REMARK    2  A    between atoms: C5_5  and  C6_6 
REMARK    3  A    between atoms: N1_13  and  N2_14 
REMARK    4  A    between atoms: N2_14  and  C12_16 
REMARK    5  A    between atoms: C13_19  and  O2_20 
REMARK    6  A    between atoms: O2_20  and  C14_21 
REMARK    7  A    between atoms: C14_21  and  C15_22 
REMARK    8  A    between atoms: C15_22  and  C16_23 
REMARK    9  A    between atoms: C16_23  and  N4_24 
REMARK   10  A    between atoms: C22_32  and  N6_33 
REMARK   11  A    between atoms: N6_33  and  N7_35 
REMARK   12  A    between atoms: C23_37  and  C24_38 
REMARK   13  A    between atoms: C27_41  and  O3_42 
REMARK   14  A    between atoms: C29_44  and  O4_45 
ROOT
HETATM    1  C1  UNL     1      15.147  17.392  18.507  1.00  0.00     0.112 C 
HETATM    2  C2  UNL     1      13.701  17.581  18.379  1.00  0.00    -0.106 C 
HETATM    3  C3  UNL     1      12.495  17.755  18.257  1.00  0.00    -0.079 C 
ENDROOT
BRANCH   3   4
HETATM    4  C4  UNL     1      11.080  17.950  18.088  1.00  0.00     0.064 C 
HETATM    5  C5  UNL     1      10.571  19.009  17.491  1.00  0.00     0.011 C 
BRANCH   5   6
HETATM    6  C6  UNL     1      11.400  20.083  16.947  1.00  0.00     0.032 C 
HETATM    7  C7  UNL     1      11.760  20.057  15.678  1.00  0.00     0.061 A 
HETATM    8  C8  UNL     1      11.472  19.102  14.640  1.00  0.00     0.044 A 
HETATM    9  N1  UNL     1      12.576  21.062  15.049  1.00  0.00    -0.206 N 
HETATM   10  C9  UNL     1      12.020  19.427  13.491  1.00  0.00     0.010 A 
HETATM   11  C10 UNL     1      11.952  18.693  12.182  1.00  0.00     0.054 C 
HETATM   12  C11 UNL     1      12.749  20.689  13.691  1.00  0.00     0.273 A 
HETATM   13  O1  UNL     1      13.409  21.314  12.794  1.00  0.00    -0.266 OA
BRANCH   9  14
HETATM   14  N2  UNL     1      13.102  22.200  15.638  1.00  0.00    -0.121 N 
ATOM     15  H2  UNL     1      12.438  22.882  16.006  1.00  0.00     0.206 HD
BRANCH  14  16
HETATM   16  C12 UNL     1      14.351  22.472  15.764  1.00  0.00     0.715 A 
HETATM   17  N3  UNL     1      15.271  21.556  16.112  1.00  0.00    -0.152 N 
HETATM   18  C13 UNL     1      16.578  21.872  16.237  1.00  0.00     0.252 A 
ATOM     19  H3  UNL     1      14.973  20.597  16.287  1.00  0.00     0.188 HD
HETATM   20  N5  UNL     1      16.943  23.143  16.000  1.00  0.00    -0.152 N 
HETATM   21  C22 UNL     1      16.065  24.101  15.648  1.00  0.00     0.714 A 
ATOM     22  H5  UNL     1      17.928  23.393  16.090  1.00  0.00     0.188 HD
HETATM   23  N8  UNL     1      14.766  23.722  15.540  1.00  0.00    -0.019 N 
ATOM     24  H8  UNL     1      14.075  24.424  15.275  1.00  0.00     0.203 HD
BRANCH  18  25
HETATM   25  O2  UNL     1      17.511  20.898  16.600  1.00  0.00    -0.321 OA
BRANCH  25  26
HETATM   26  C14 UNL     1      17.411  20.236  17.858  1.00  0.00     0.180 C 
BRANCH  26  27
HETATM   27  C15 UNL     1      17.226  21.240  18.971  1.00  0.00     0.057 C 
BRANCH  27  28
HETATM   28  C16 UNL     1      18.527  21.704  19.553  1.00  0.00     0.275 C 
BRANCH  28  29
HETATM   29  N4  UNL     1      19.052  22.894  18.949  1.00  0.00     0.092 N 
HETATM   30  C17 UNL     1      18.186  24.047  19.114  1.00  0.00     0.299 C 
HETATM   31  C18 UNL     1      18.080  24.257  20.599  1.00  0.00    -0.001 C 
HETATM   32  C19 UNL     1      19.223  24.328  21.259  1.00  0.00    -0.027 C 
HETATM   33  C20 UNL     1      20.486  24.197  20.496  1.00  0.00     0.057 C 
HETATM   34  C21 UNL     1      20.370  23.193  19.409  1.00  0.00     0.276 C 
ENDBRANCH  28  29
ENDBRANCH  27  28
ENDBRANCH  26  27
ENDBRANCH  25  26
ENDBRANCH  18  25
BRANCH  21  35
HETATM   35  N6  UNL     1      16.399  25.307  15.431  1.00  0.00    -0.132 N 
ATOM     36  H6  UNL     1      15.678  25.906  15.027  1.00  0.00     0.205 HD
BRANCH  35  37
HETATM   37  N7  UNL     1      17.616  25.906  15.676  1.00  0.00    -0.297 N 
HETATM   38  C23 UNL     1      18.412  26.307  14.743  1.00  0.00     0.119 C 
ATOM     39  H7  UNL     1      17.903  26.040  16.646  1.00  0.00     0.186 HD
BRANCH  38  40
HETATM   40  C24 UNL     1      19.673  26.927  15.087  1.00  0.00    -0.017 A 
HETATM   41  C25 UNL     1      20.434  27.539  14.104  1.00  0.00     0.016 A 
HETATM   42  C26 UNL     1      21.646  28.142  14.409  1.00  0.00     0.040 A 
HETATM   43  C27 UNL     1      22.142  28.156  15.703  1.00  0.00     0.101 A 
HETATM   44  C29 UNL     1      21.382  27.546  16.679  1.00  0.00     0.102 A 
HETATM   45  C31 UNL     1      20.177  26.947  16.371  1.00  0.00     0.052 A 
BRANCH  43  46
HETATM   46  O3  UNL     1      23.361  28.764  16.003  1.00  0.00    -0.353 OA
HETATM   47  C28 UNL     1      24.541  28.063  15.723  1.00  0.00     0.210 C 
ENDBRANCH  43  46
BRANCH  44  48
HETATM   48  O4  UNL     1      21.837  27.536  17.980  1.00  0.00    -0.353 OA
HETATM   49  C30 UNL     1      22.573  26.488  18.544  1.00  0.00     0.210 C 
ENDBRANCH  44  48
ENDBRANCH  38  40
ENDBRANCH  35  37
ENDBRANCH  21  35
ENDBRANCH  14  16
ENDBRANCH   9  14
ENDBRANCH   5   6
ENDBRANCH   3   4
TORSDOF 14
ENDMDL
MODEL 2
REMARK VINA RESULT: -9.195538995      1.907      3.367
REMARK  14 active torsions:
REMARK  status: ('A' for Active; 'I' for Inactive)
REMARK    1  A    between atoms: C3_3  and  C4_4 
REMARK    2  A    between atoms: C5_5  and  C6_6 
REMARK    3  A    between atoms: N1_13  and  N2_14 
REMARK    4  A    between atoms: N2_14  and  C12_16 
REMARK    5  A    between atoms: C13_19  and  O2_20 
REMARK    6  A    between atoms: O2_20  and  C14_21 
REMARK    7  A    between atoms: C14_21  and  C15_22 
REMARK    8  A    between atoms: C15_22  and  C16_23 
REMARK    9  A    between atoms: C16_23  and  N4_24 
REMARK   10  A    between atoms: C22_32  and  N6_33 
REMARK   11  A    between atoms: N6_33  and  N7_35 
REMARK   12  A    between atoms: C23_37  and  C24_38 
REMARK   13  A    between atoms: C27_41  and  O3_42 
REMARK   14  A    between atoms: C29_44  and  O4_45 
ROOT
HETATM    1  C1  UNL     1      15.616  22.072  13.115  1.00  0.00     0.112 C 
HETATM    2  C2  UNL     1      14.427  21.229  12.979  1.00  0.00    -0.106 C 
HETATM    3  C3  UNL     1      13.430  20.524  12.887  1.00  0.00    -0.079 C 
ENDROOT
BRANCH   3   4
HETATM    4  C4  UNL     1      12.244  19.717  12.787  1.00  0.00     0.064 C 
HETATM    5  C5  UNL     1      11.492  19.419  13.829  1.00  0.00     0.011 C 
BRANCH   5   6
HETATM    6  C6  UNL     1      11.798  19.883  15.180  1.00  0.00     0.032 C 
HETATM    7  C7  UNL     1      11.656  19.064  16.204  1.00  0.00     0.061 A 
HETATM    8  C8  UNL     1      11.224  17.692  16.256  1.00  0.00     0.044 A 
HETATM    9  N1  UNL     1      11.927  19.425  17.572  1.00  0.00    -0.206 N 
HETATM   10  C9  UNL     1      11.210  17.214  17.480  1.00  0.00     0.010 A 
HETATM   11  C10 UNL     1      10.823  15.838  17.943  1.00  0.00     0.054 C 
HETATM   12  C11 UNL     1      11.656  18.290  18.379  1.00  0.00     0.273 A 
HETATM   13  O1  UNL     1      11.770  18.197  19.648  1.00  0.00    -0.266 OA
BRANCH   9  14
HETATM   14  N2  UNL     1      12.380  20.647  18.038  1.00  0.00    -0.121 N 
ATOM     15  H2  UNL     1      11.714  21.223  18.555  1.00  0.00     0.206 HD
BRANCH  14  16
HETATM   16  C12 UNL     1      13.563  21.121  17.879  1.00  0.00     0.715 A 
HETATM   17  N3  UNL     1      14.641  20.632  18.514  1.00  0.00    -0.152 N 
HETATM   18  C13 UNL     1      15.874  21.151  18.328  1.00  0.00     0.252 A 
ATOM     19  H3  UNL     1      14.525  19.847  19.155  1.00  0.00     0.188 HD
HETATM   20  N5  UNL     1      15.999  22.185  17.478  1.00  0.00    -0.152 N 
HETATM   21  C22 UNL     1      14.954  22.715  16.815  1.00  0.00     0.714 A 
ATOM     22  H5  UNL     1      16.925  22.584  17.328  1.00  0.00     0.188 HD
HETATM   23  N8  UNL     1      13.741  22.150  17.045  1.00  0.00    -0.019 N 
ATOM     24  H8  UNL     1      12.928  22.529  16.559  1.00  0.00     0.203 HD
BRANCH  18  25
HETATM   25  O2  UNL     1      16.977  20.620  19.001  1.00  0.00    -0.321 OA
BRANCH  25  26
HETATM   26  C14 UNL     1      18.141  21.413  19.215  1.00  0.00     0.180 C 
BRANCH  26  27
HETATM   27  C15 UNL     1      18.262  21.793  20.672  1.00  0.00     0.057 C 
BRANCH  27  28
HETATM   28  C16 UNL     1      19.478  22.623  20.955  1.00  0.00     0.275 C 
BRANCH  28  29
HETATM   29  N4  UNL     1      19.907  23.432  19.851  1.00  0.00     0.092 N 
HETATM   30  C17 UNL     1      19.624  24.843  20.034  1.00  0.00     0.299 C 
HETATM   31  C18 UNL     1      20.388  25.248  21.265  1.00  0.00    -0.001 C 
HETATM   32  C19 UNL     1      21.673  24.938  21.279  1.00  0.00    -0.027 C 
HETATM   33  C20 UNL     1      22.240  24.234  20.106  1.00  0.00     0.057 C 
HETATM   34  C21 UNL     1      21.290  23.239  19.549  1.00  0.00     0.276 C 
ENDBRANCH  28  29
ENDBRANCH  27  28
ENDBRANCH  26  27
ENDBRANCH  25  26
ENDBRANCH  18  25
BRANCH  21  35
HETATM   35  N6  UNL     1      15.060  23.697  16.018  1.00  0.00    -0.132 N 
ATOM     36  H6  UNL     1      14.327  23.784  15.313  1.00  0.00     0.205 HD
BRANCH  35  37
HETATM   37  N7  UNL     1      16.045  24.662  15.988  1.00  0.00    -0.297 N 
HETATM   38  C23 UNL     1      17.204  24.478  15.451  1.00  0.00     0.119 C 
ATOM     39  H7  UNL     1      15.848  25.568  16.412  1.00  0.00     0.186 HD
BRANCH  38  40
HETATM   40  C24 UNL     1      18.182  25.544  15.462  1.00  0.00    -0.017 A 
HETATM   41  C25 UNL     1      18.432  26.266  14.306  1.00  0.00     0.016 A 
HETATM   42  C26 UNL     1      19.364  27.294  14.293  1.00  0.00     0.040 A 
HETATM   43  C27 UNL     1      20.078  27.639  15.428  1.00  0.00     0.101 A 
HETATM   44  C29 UNL     1      19.827  26.919  16.578  1.00  0.00     0.102 A 
HETATM   45  C31 UNL     1      18.899  25.896  16.587  1.00  0.00     0.052 A 
BRANCH  43  46
HETATM   46  O3  UNL     1      21.013  28.674  15.408  1.00  0.00    -0.353 OA
HETATM   47  C28 UNL     1      22.267  28.426  14.834  1.00  0.00     0.210 C 
ENDBRANCH  43  46
BRANCH  44  48
HETATM   48  O4  UNL     1      20.514  27.228  17.732  1.00  0.00    -0.353 OA
HETATM   49  C30 UNL     1      21.835  26.841  17.983  1.00  0.00     0.210 C 
ENDBRANCH  44  48
ENDBRANCH  38  40
ENDBRANCH  35  37
ENDBRANCH  21  35
ENDBRANCH  14  16
ENDBRANCH   9  14
ENDBRANCH   5   6
ENDBRANCH   3   4
TORSDOF 14
ENDMDL
MODEL 3
REMARK VINA RESULT: -9.143210459      2.447      5.341
REMARK  14 active torsions:
REMARK  status: ('A' for Active; 'I' for Inactive)
REMARK    1  A    between atoms: C3_3  and  C4_4 
REMARK    2  A    between atoms: C5_5  and  C6_6 
REMARK    3  A    between atoms: N1_13  and  N2_14 
REMARK    4  A    between atoms: N2_14  and  C12_16 
REMARK    5  A    between atoms: C13_19  and  O2_20 
REMARK    6  A    between atoms: O2_20  and  C14_21 
REMARK    7  A    between atoms: C14_21  and  C15_22 
REMARK    8  A    between atoms: C15_22  and  C16_23 
REMARK    9  A    between atoms: C16_23  and  N4_24 
REMARK   10  A    between atoms: C22_32  and  N6_33 
REMARK   11  A    between atoms: N6_33  and  N7_35 
REMARK   12  A    between atoms: C23_37  and  C24_38 
REMARK   13  A    between atoms: C27_41  and  O3_42 
REMARK   14  A    between atoms: C29_44  and  O4_45 
ROOT
HETATM    1  C1  UNL     1      15.553  22.080  12.275  1.00  0.00     0.112 C 
HETATM    2  C2  UNL     1      14.328  21.441  12.758  1.00  0.00    -0.106 C 
HETATM    3  C3  UNL     1      13.313  20.886  13.159  1.00  0.00    -0.079 C 
ENDROOT
BRANCH   3   4
HETATM    4  C4  UNL     1      12.134  20.226  13.653  1.00  0.00     0.064 C 
HETATM    5  C5  UNL     1      11.726  20.333  14.902  1.00  0.00     0.011 C 
BRANCH   5   6
HETATM    6  C6  UNL     1      12.436  21.131  15.899  1.00  0.00     0.032 C 
HETATM    7  C7  UNL     1      13.167  20.533  16.820  1.00  0.00     0.061 A 
HETATM    8  C8  UNL     1      13.423  19.136  17.055  1.00  0.00     0.044 A 
HETATM    9  N1  UNL     1      13.901  21.228  17.845  1.00  0.00    -0.206 N 
HETATM   10  C9  UNL     1      14.210  18.935  18.087  1.00  0.00     0.010 A 
HETATM   11  C10 UNL     1      14.705  17.631  18.647  1.00  0.00     0.054 C 
HETATM   12  C11 UNL     1      14.556  20.253  18.642  1.00  0.00     0.273 A 
HETATM   13  O1  UNL     1      15.306  20.458  19.656  1.00  0.00    -0.266 OA
BRANCH   9  14
HETATM   14  N2  UNL     1      13.977  22.597  18.035  1.00  0.00    -0.121 N 
ATOM     15  H2  UNL     1      13.112  23.083  18.272  1.00  0.00     0.206 HD
BRANCH  14  16
HETATM   16  C12 UNL     1      15.042  23.311  17.940  1.00  0.00     0.715 A 
HETATM   17  N3  UNL     1      15.416  23.923  16.805  1.00  0.00    -0.152 N 
HETATM   18  C13 UNL     1      16.542  24.666  16.734  1.00  0.00     0.252 A 
ATOM     19  H3  UNL     1      14.835  23.824  15.973  1.00  0.00     0.188 HD
HETATM   20  N5  UNL     1      17.289  24.781  17.846  1.00  0.00    -0.152 N 
HETATM   21  C22 UNL     1      16.962  24.190  19.010  1.00  0.00     0.714 A 
ATOM     22  H5  UNL     1      18.141  25.342  17.805  1.00  0.00     0.188 HD
HETATM   23  N8  UNL     1      15.820  23.456  19.016  1.00  0.00    -0.019 N 
ATOM     24  H8  UNL     1      15.544  22.994  19.883  1.00  0.00     0.203 HD
BRANCH  18  25
HETATM   25  O2  UNL     1      16.905  25.292  15.540  1.00  0.00    -0.321 OA
BRANCH  25  26
HETATM   26  C14 UNL     1      18.267  25.312  15.121  1.00  0.00     0.180 C 
BRANCH  26  27
HETATM   27  C15 UNL     1      18.570  26.585  14.367  1.00  0.00     0.057 C 
BRANCH  27  28
HETATM   28  C16 UNL     1      19.735  27.334  14.941  1.00  0.00     0.275 C 
BRANCH  28  29
HETATM   29  N4  UNL     1      20.656  26.517  15.676  1.00  0.00     0.092 N 
HETATM   30  C17 UNL     1      21.945  26.380  15.024  1.00  0.00     0.299 C 
HETATM   31  C18 UNL     1      22.495  27.776  14.930  1.00  0.00    -0.001 C 
HETATM   32  C19 UNL     1      22.520  28.468  16.056  1.00  0.00    -0.027 C 
HETATM   33  C20 UNL     1      22.013  27.823  17.290  1.00  0.00     0.057 C 
HETATM   34  C21 UNL     1      20.825  26.974  17.019  1.00  0.00     0.276 C 
ENDBRANCH  28  29
ENDBRANCH  27  28
ENDBRANCH  26  27
ENDBRANCH  25  26
ENDBRANCH  18  25
BRANCH  21  35
HETATM   35  N6  UNL     1      17.667  24.285  20.062  1.00  0.00    -0.132 N 
ATOM     36  H6  UNL     1      17.262  23.887  20.910  1.00  0.00     0.205 HD
BRANCH  35  37
HETATM   37  N7  UNL     1      18.913  24.860  20.198  1.00  0.00    -0.297 N 
HETATM   38  C23 UNL     1      19.986  24.183  20.436  1.00  0.00     0.119 C 
ATOM     39  H7  UNL     1      18.991  25.872  20.106  1.00  0.00     0.186 HD
BRANCH  38  40
HETATM   40  C24 UNL     1      21.255  24.866  20.564  1.00  0.00    -0.017 A 
HETATM   41  C25 UNL     1      22.220  24.723  19.580  1.00  0.00     0.016 A 
HETATM   42  C26 UNL     1      23.444  25.369  19.680  1.00  0.00     0.040 A 
HETATM   43  C27 UNL     1      23.749  26.178  20.762  1.00  0.00     0.101 A 
HETATM   44  C29 UNL     1      22.787  26.319  21.740  1.00  0.00     0.102 A 
HETATM   45  C31 UNL     1      21.570  25.674  21.637  1.00  0.00     0.052 A 
BRANCH  43  46
HETATM   46  O3  UNL     1      24.982  26.825  20.856  1.00  0.00    -0.353 OA
HETATM   47  C28 UNL     1      26.114  26.058  21.160  1.00  0.00     0.210 C 
ENDBRANCH  43  46
BRANCH  44  48
HETATM   48  O4  UNL     1      23.048  27.115  22.834  1.00  0.00    -0.353 OA
HETATM   49  C30 UNL     1      22.343  27.040  24.041  1.00  0.00     0.210 C 
ENDBRANCH  44  48
ENDBRANCH  38  40
ENDBRANCH  35  37
ENDBRANCH  21  35
ENDBRANCH  14  16
ENDBRANCH   9  14
ENDBRANCH   5   6
ENDBRANCH   3   4
TORSDOF 14
ENDMDL
MODEL 4
REMARK VINA RESULT: -9.139922870      2.493      4.930
REMARK  14 active torsions:
REMARK  status: ('A' for Active; 'I' for Inactive)
REMARK    1  A    between atoms: C3_3  and  C4_4 
REMARK    2  A    between atoms: C5_5  and  C6_6 
REMARK    3  A    between atoms: N1_13  and  N2_14 
REMARK    4  A    between atoms: N2_14  and  C12_16 
REMARK    5  A    between atoms: C13_19  and  O2_20 
REMARK    6  A    between atoms: O2_20  and  C14_21 
REMARK    7  A    between atoms: C14_21  and  C15_22 
REMARK    8  A    between atoms: C15_22  and  C16_23 
REMARK    9  A    between atoms: C16_23  and  N4_24 
REMARK   10  A    between atoms: C22_32  and  N6_33 
REMARK   11  A    between atoms: N6_33  and  N7_35 
REMARK   12  A    between atoms: C23_37  and  C24_38 
REMARK   13  A    between atoms: C27_41  and  O3_42 
REMARK   14  A    between atoms: C29_44  and  O4_45 
ROOT
HETATM    1  C1  UNL     1      13.142  18.018  21.336  1.00  0.00     0.112 C 
HETATM    2  C2  UNL     1      12.389  18.377  20.133  1.00  0.00    -0.106 C 
HETATM    3  C3  UNL     1      11.776  18.690  19.121  1.00  0.00    -0.079 C 
ENDROOT
BRANCH   3   4
HETATM    4  C4  UNL     1      11.074  19.046  17.916  1.00  0.00     0.064 C 
HETATM    5  C5  UNL     1      11.590  19.836  16.996  1.00  0.00     0.011 C 
BRANCH   5   6
HETATM    6  C6  UNL     1      12.923  20.423  17.118  1.00  0.00     0.032 C 
HETATM    7  C7  UNL     1      13.578  20.795  16.035  1.00  0.00     0.061 A 
HETATM    8  C8  UNL     1      13.208  20.733  14.646  1.00  0.00     0.044 A 
HETATM    9  N1  UNL     1      14.895  21.379  16.048  1.00  0.00    -0.206 N 
HETATM   10  C9  UNL     1      14.144  21.205  13.853  1.00  0.00     0.010 A 
HETATM   11  C10 UNL     1      14.135  21.311  12.354  1.00  0.00     0.054 C 
HETATM   12  C11 UNL     1      15.264  21.640  14.703  1.00  0.00     0.273 A 
HETATM   13  O1  UNL     1      16.356  22.154  14.285  1.00  0.00    -0.266 OA
BRANCH   9  14
HETATM   14  N2  UNL     1      15.676  21.653  17.158  1.00  0.00    -0.121 N 
ATOM     15  H2  UNL     1      15.817  20.895  17.826  1.00  0.00     0.206 HD
BRANCH  14  16
HETATM   16  C12 UNL     1      16.239  22.777  17.421  1.00  0.00     0.715 A 
HETATM   17  N3  UNL     1      16.456  23.725  16.494  1.00  0.00    -0.152 N 
HETATM   18  C13 UNL     1      17.052  24.897  16.800  1.00  0.00     0.252 A 
ATOM     19  H3  UNL     1      16.162  23.553  15.532  1.00  0.00     0.188 HD
HETATM   20  N5  UNL     1      17.428  25.097  18.075  1.00  0.00    -0.152 N 
HETATM   21  C22 UNL     1      17.237  24.183  19.044  1.00  0.00     0.714 A 
ATOM     22  H5  UNL     1      17.878  25.980  18.318  1.00  0.00     0.188 HD
HETATM   23  N8  UNL     1      16.634  23.025  18.674  1.00  0.00    -0.019 N 
ATOM     24  H8  UNL     1      16.474  22.310  19.385  1.00  0.00     0.203 HD
BRANCH  18  25
HETATM   25  O2  UNL     1      17.262  25.864  15.814  1.00  0.00    -0.321 OA
BRANCH  25  26
HETATM   26  C14 UNL     1      18.229  25.651  14.789  1.00  0.00     0.180 C 
BRANCH  26  27
HETATM   27  C15 UNL     1      18.759  26.970  14.279  1.00  0.00     0.057 C 
BRANCH  27  28
HETATM   28  C16 UNL     1      19.901  27.491  15.099  1.00  0.00     0.275 C 
BRANCH  28  29
HETATM   29  N4  UNL     1      20.653  26.473  15.773  1.00  0.00     0.092 N 
HETATM   30  C17 UNL     1      21.978  26.278  15.214  1.00  0.00     0.299 C 
HETATM   31  C18 UNL     1      22.679  27.597  15.380  1.00  0.00    -0.001 C 
HETATM   32  C19 UNL     1      22.667  28.114  16.596  1.00  0.00    -0.027 C 
HETATM   33  C20 UNL     1      21.976  27.365  17.672  1.00  0.00     0.057 C 
HETATM   34  C21 UNL     1      20.738  26.711  17.179  1.00  0.00     0.276 C 
ENDBRANCH  28  29
ENDBRANCH  27  28
ENDBRANCH  26  27
ENDBRANCH  25  26
ENDBRANCH  18  25
BRANCH  21  35
HETATM   35  N6  UNL     1      17.598  24.359  20.249  1.00  0.00    -0.132 N 
ATOM     36  H6  UNL     1      16.908  24.124  20.962  1.00  0.00     0.205 HD
BRANCH  35  37
HETATM   37  N7  UNL     1      18.810  24.828  20.710  1.00  0.00    -0.297 N 
HETATM   38  C23 UNL     1      19.949  24.402  20.279  1.00  0.00     0.119 C 
ATOM     39  H7  UNL     1      18.806  25.550  21.430  1.00  0.00     0.186 HD
BRANCH  38  40
HETATM   40  C24 UNL     1      21.175  24.949  20.817  1.00  0.00    -0.017 A 
HETATM   41  C25 UNL     1      21.128  26.035  21.677  1.00  0.00     0.016 A 
HETATM   42  C26 UNL     1      22.290  26.577  22.208  1.00  0.00     0.040 A 
HETATM   43  C27 UNL     1      23.537  26.057  21.901  1.00  0.00     0.101 A 
HETATM   44  C29 UNL     1      23.581  24.976  21.046  1.00  0.00     0.102 A 
HETATM   45  C31 UNL     1      22.422  24.439  20.520  1.00  0.00     0.052 A 
BRANCH  43  46
HETATM   46  O3  UNL     1      24.702  26.606  22.439  1.00  0.00    -0.353 OA
HETATM   47  C28 UNL     1      25.086  26.218  23.729  1.00  0.00     0.210 C 
ENDBRANCH  43  46
BRANCH  44  48
HETATM   48  O4  UNL     1      24.800  24.425  20.714  1.00  0.00    -0.353 OA
HETATM   49  C30 UNL     1      24.970  23.430  19.745  1.00  0.00     0.210 C 
ENDBRANCH  44  48
ENDBRANCH  38  40
ENDBRANCH  35  37
ENDBRANCH  21  35
ENDBRANCH  14  16
ENDBRANCH   9  14
ENDBRANCH   5   6
ENDBRANCH   3   4
TORSDOF 14
ENDMDL
MODEL 5
REMARK VINA RESULT: -9.135376031      2.465      5.391
REMARK  14 active torsions:
REMARK  status: ('A' for Active; 'I' for Inactive)
REMARK    1  A    between atoms: C3_3  and  C4_4 
REMARK    2  A    between atoms: C5_5  and  C6_6 
REMARK    3  A    between atoms: N1_13  and  N2_14 
REMARK    4  A    between atoms: N2_14  and  C12_16 
REMARK    5  A    between atoms: C13_19  and  O2_20 
REMARK    6  A    between atoms: O2_20  and  C14_21 
REMARK    7  A    between atoms: C14_21  and  C15_22 
REMARK    8  A    between atoms: C15_22  and  C16_23 
REMARK    9  A    between atoms: C16_23  and  N4_24 
REMARK   10  A    between atoms: C22_32  and  N6_33 
REMARK   11  A    between atoms: N6_33  and  N7_35 
REMARK   12  A    between atoms: C23_37  and  C24_38 
REMARK   13  A    between atoms: C27_41  and  O3_42 
REMARK   14  A    between atoms: C29_44  and  O4_45 
ROOT
HETATM    1  C1  UNL     1      15.566  22.088  12.319  1.00  0.00     0.112 C 
HETATM    2  C2  UNL     1      14.338  21.472  12.824  1.00  0.00    -0.106 C 
HETATM    3  C3  UNL     1      13.321  20.953  13.266  1.00  0.00    -0.079 C 
ENDROOT
BRANCH   3   4
HETATM    4  C4  UNL     1      12.124  20.363  13.802  1.00  0.00     0.064 C 
HETATM    5  C5  UNL     1      11.746  20.527  15.054  1.00  0.00     0.011 C 
BRANCH   5   6
HETATM    6  C6  UNL     1      12.511  21.323  16.011  1.00  0.00     0.032 C 
HETATM    7  C7  UNL     1      13.316  20.726  16.868  1.00  0.00     0.061 A 
HETATM    8  C8  UNL     1      13.614  19.331  17.062  1.00  0.00     0.044 A 
HETATM    9  N1  UNL     1      14.109  21.419  17.851  1.00  0.00    -0.206 N 
HETATM   10  C9  UNL     1      14.477  19.129  18.032  1.00  0.00     0.010 A 
HETATM   11  C10 UNL     1      15.033  17.827  18.533  1.00  0.00     0.054 C 
HETATM   12  C11 UNL     1      14.836  20.445  18.583  1.00  0.00     0.273 A 
HETATM   13  O1  UNL     1      15.653  20.649  19.544  1.00  0.00    -0.266 OA
BRANCH   9  14
HETATM   14  N2  UNL     1      14.173  22.787  18.057  1.00  0.00    -0.121 N 
ATOM     15  H2  UNL     1      13.301  23.265  18.285  1.00  0.00     0.206 HD
BRANCH  14  16
HETATM   16  C12 UNL     1      15.234  23.508  17.988  1.00  0.00     0.715 A 
HETATM   17  N3  UNL     1      15.630  24.126  16.863  1.00  0.00    -0.152 N 
HETATM   18  C13 UNL     1      16.752  24.877  16.819  1.00  0.00     0.252 A 
ATOM     19  H3  UNL     1      15.068  24.025  16.018  1.00  0.00     0.188 HD
HETATM   20  N5  UNL     1      17.473  24.994  17.948  1.00  0.00    -0.152 N 
HETATM   21  C22 UNL     1      17.125  24.397  19.102  1.00  0.00     0.714 A 
ATOM     22  H5  UNL     1      18.321  25.560  17.927  1.00  0.00     0.188 HD
HETATM   23  N8  UNL     1      15.988  23.655  19.082  1.00  0.00    -0.019 N 
ATOM     24  H8  UNL     1      15.695  23.189  19.941  1.00  0.00     0.203 HD
BRANCH  18  25
HETATM   25  O2  UNL     1      17.137  25.509  15.635  1.00  0.00    -0.321 OA
BRANCH  25  26
HETATM   26  C14 UNL     1      18.456  25.338  15.123  1.00  0.00     0.180 C 
BRANCH  26  27
HETATM   27  C15 UNL     1      18.966  26.632  14.534  1.00  0.00     0.057 C 
BRANCH  27  28
HETATM   28  C16 UNL     1      20.016  27.281  15.385  1.00  0.00     0.275 C 
BRANCH  28  29
HETATM   29  N4  UNL     1      20.956  26.363  15.961  1.00  0.00     0.092 N 
HETATM   30  C17 UNL     1      22.207  26.293  15.228  1.00  0.00     0.299 C 
HETATM   31  C18 UNL     1      22.781  27.681  15.282  1.00  0.00    -0.001 C 
HETATM   32  C19 UNL     1      22.878  28.224  16.483  1.00  0.00    -0.027 C 
HETATM   33  C20 UNL     1      22.422  27.435  17.651  1.00  0.00     0.057 C 
HETATM   34  C21 UNL     1      21.205  26.644  17.339  1.00  0.00     0.276 C 
ENDBRANCH  28  29
ENDBRANCH  27  28
ENDBRANCH  26  27
ENDBRANCH  25  26
ENDBRANCH  18  25
BRANCH  21  35
HETATM   35  N6  UNL     1      17.805  24.494  20.170  1.00  0.00    -0.132 N 
ATOM     36  H6  UNL     1      17.352  24.162  21.022  1.00  0.00     0.205 HD
BRANCH  35  37
HETATM   37  N7  UNL     1      19.082  24.993  20.319  1.00  0.00    -0.297 N 
HETATM   38  C23 UNL     1      20.103  24.259  20.608  1.00  0.00     0.119 C 
ATOM     39  H7  UNL     1      19.227  25.995  20.195  1.00  0.00     0.186 HD
BRANCH  38  40
HETATM   40  C24 UNL     1      21.410  24.863  20.746  1.00  0.00    -0.017 A 
HETATM   41  C25 UNL     1      21.587  25.941  21.599  1.00  0.00     0.016 A 
HETATM   42  C26 UNL     1      22.831  26.537  21.749  1.00  0.00     0.040 A 
HETATM   43  C27 UNL     1      23.940  26.081  21.057  1.00  0.00     0.101 A 
HETATM   44  C29 UNL     1      23.762  25.008  20.209  1.00  0.00     0.102 A 
HETATM   45  C31 UNL     1      22.522  24.418  20.061  1.00  0.00     0.052 A 
BRANCH  43  46
HETATM   46  O3  UNL     1      25.189  26.685  21.213  1.00  0.00    -0.353 OA
HETATM   47  C28 UNL     1      25.985  26.295  22.298  1.00  0.00     0.210 C 
ENDBRANCH  43  46
BRANCH  44  48
HETATM   48  O4  UNL     1      24.839  24.521  19.500  1.00  0.00    -0.353 OA
HETATM   49  C30 UNL     1      25.375  25.143  18.368  1.00  0.00     0.210 C 
ENDBRANCH  44  48
ENDBRANCH  38  40
ENDBRANCH  35  37
ENDBRANCH  21  35
ENDBRANCH  14  16
ENDBRANCH   9  14
ENDBRANCH   5   6
ENDBRANCH   3   4
TORSDOF 14
ENDMDL
