MODEL 1
REMARK VINA RESULT: -9.212207898      0.000      0.000
REMARK  19 active torsions:
REMARK  status: ('A' for Active; 'I' for Inactive)
REMARK    1  A    between atoms: C2_2  and  C3_3 
REMARK    2  A    between atoms: C3_3  and  C4_4 
REMARK    3  A    between atoms: C4_4  and  C5_5 
REMARK    4  A    between atoms: C5_5  and  O1_6 
REMARK    5  A    between atoms: O1_6  and  C6_7 
REMARK    6  A    between atoms: C6_7  and  O2_8 
REMARK    7  A    between atoms: C6_7  and  N1_10 
REMARK    8  A    between atoms: N2_13  and  C9_14 
REMARK    9  A    between atoms: C9_14  and  O3_15 
REMARK   10  A    between atoms: C10_17  and  C11_18 
REMARK   11  A    between atoms: C10_17  and  N6_31 
REMARK   12  A    between atoms: C11_18  and  C12_19 
REMARK   13  A    between atoms: N6_31  and  C18_33 
REMARK   14  A    between atoms: C18_33  and  O4_34 
REMARK   15  A    between atoms: C18_33  and  C19_36 
REMARK   16  A    between atoms: C19_36  and  C22_44 
REMARK   17  A    between atoms: N7_37  and  O5_39 
REMARK   18  A    between atoms: O5_39  and  C20_40 
REMARK   19  A    between atoms: C20_40  and  C21_41 
ROOT
HETATM    1  C9  UNL     1      14.966  23.274  16.017  1.00  0.00     0.161 C 
HETATM    2  C10 UNL     1      16.213  23.922  15.944  1.00  0.00     0.066 C 
ENDROOT
BRANCH   2   3
HETATM    3  C11 UNL     1      17.361  23.635  15.105  1.00  0.00     0.104 C 
BRANCH   3   4
HETATM    4  C12 UNL     1      18.645  24.293  15.359  1.00  0.00    -0.006 A 
HETATM    5  C13 UNL     1      19.787  23.676  15.910  1.00  0.00     0.099 A 
HETATM    6  N3  UNL     1      20.822  24.524  15.922  1.00  0.00    -0.350 N 
HETATM    7  C14 UNL     1      20.453  25.690  15.407  1.00  0.00     0.132 A 
ATOM      8  H3  UNL     1      21.754  24.306  16.273  1.00  0.00     0.166 HD
HETATM    9  N4  UNL     1      21.109  26.834  15.210  1.00  0.00    -0.349 N 
HETATM   10  C17 UNL     1      19.113  25.564  15.055  1.00  0.00     0.084 A 
HETATM   11  C15 UNL     1      20.489  27.910  14.660  1.00  0.00     0.106 A 
ATOM     12  H4  UNL     1      22.091  26.902  15.476  1.00  0.00     0.167 HD
HETATM   13  C16 UNL     1      19.160  27.794  14.307  1.00  0.00     0.105 A 
HETATM   14  N5  UNL     1      18.524  26.624  14.519  1.00  0.00    -0.361 N 
ATOM     15  H5  UNL     1      17.541  26.550  14.254  1.00  0.00     0.165 HD
ENDBRANCH   3   4
ENDBRANCH   2   3
BRANCH   2  16
HETATM   16  N6  UNL     1      16.366  24.956  16.767  1.00  0.00    -0.335 N 
ATOM     17  H6  UNL     1      16.306  25.885  16.351  1.00  0.00     0.168 HD
BRANCH  16  18
HETATM   18  C18 UNL     1      16.598  24.902  18.121  1.00  0.00     0.166 C 
BRANCH  18  19
HETATM   19  O4  UNL     1      15.751  25.462  18.948  1.00  0.00    -0.345 OA
ATOM     20  H4  UNL     1      15.451  24.982  19.711  1.00  0.00     0.219 HD
ENDBRANCH  18  19
BRANCH  18  21
HETATM   21  C19 UNL     1      17.708  24.281  18.790  1.00  0.00     0.090 C 
HETATM   22  N7  UNL     1      18.781  25.028  18.860  1.00  0.00    -0.265 N 
ATOM     23  H7  UNL     1      18.691  25.948  18.429  1.00  0.00     0.194 HD
BRANCH  22  24
HETATM   24  O5  UNL     1      19.965  24.780  19.398  1.00  0.00    -0.270 OA
BRANCH  24  25
HETATM   25  C20 UNL     1      20.709  25.928  19.854  1.00  0.00     0.314 C 
BRANCH  25  26
HETATM   26  C21 UNL     1      21.266  26.665  18.732  1.00  0.00     0.200 C 
HETATM   27  O6  UNL     1      20.715  27.698  18.306  1.00  0.00    -0.646 OA
HETATM   28  O7  UNL     1      22.449  26.201  18.122  1.00  0.00    -0.646 OA
ENDBRANCH  25  26
ENDBRANCH  24  25
ENDBRANCH  22  24
BRANCH  21  29
HETATM   29  C22 UNL     1      17.660  22.949  19.383  1.00  0.00    -0.003 C 
HETATM   30  C23 UNL     1      17.953  23.009  20.862  1.00  0.00     0.021 C 
HETATM   31  C24 UNL     1      16.264  22.306  19.288  1.00  0.00     0.021 C 
HETATM   32  C25 UNL     1      18.598  21.972  18.668  1.00  0.00     0.021 C 
ENDBRANCH  21  29
ENDBRANCH  18  21
ENDBRANCH  16  18
ENDBRANCH   2  16
BRANCH   1  33
HETATM   33  N2  UNL     1      14.199  22.276  15.487  1.00  0.00    -0.357 N 
HETATM   34  C8  UNL     1      14.480  20.838  15.810  1.00  0.00     0.145 C 
HETATM   35  C7  UNL     1      13.378  20.342  16.660  1.00  0.00     0.147 C 
HETATM   36  N1  UNL     1      12.069  20.606  16.071  1.00  0.00    -0.339 N 
HETATM   37  C27 UNL     1      11.874  21.532  15.002  1.00  0.00     0.147 C 
HETATM   38  C26 UNL     1      13.015  22.424  14.661  1.00  0.00     0.145 C 
BRANCH  36  39
HETATM   39  C6  UNL     1      10.970  19.874  16.588  1.00  0.00     0.260 C 
BRANCH  39  40
HETATM   40  O1  UNL     1      10.797  18.515  16.547  1.00  0.00    -0.317 OA
BRANCH  40  41
HETATM   41  C5  UNL     1      10.744  17.629  17.623  1.00  0.00     0.179 C 
BRANCH  41  42
HETATM   42  C4  UNL     1      12.057  17.194  18.181  1.00  0.00     0.027 C 
BRANCH  42  43
HETATM   43  C3  UNL     1      12.308  18.028  19.440  1.00  0.00     0.002 C 
BRANCH  43  44
HETATM   44  C2  UNL     1      13.776  18.092  19.706  1.00  0.00    -0.004 C 
HETATM   45  C1  UNL     1      14.549  17.481  18.569  1.00  0.00     0.005 C 
ENDBRANCH  43  44
ENDBRANCH  42  43
ENDBRANCH  41  42
ENDBRANCH  40  41
ENDBRANCH  39  40
BRANCH  39  46
HETATM   46  O2  UNL     1       9.998  20.510  17.174  1.00  0.00    -0.327 OA
ATOM     47  H2  UNL     1      10.154  20.683  18.094  1.00  0.00     0.221 HD
ENDBRANCH  39  46
ENDBRANCH  36  39
ENDBRANCH   1  33
BRANCH   1  48
HETATM   48  O3  UNL     1      14.221  23.871  17.025  1.00  0.00    -0.345 OA
ATOM     49  H3  UNL     1      14.659  23.681  17.846  1.00  0.00     0.219 HD
ENDBRANCH   1  48
TORSDOF 19
ENDMDL
MODEL 2
REMARK VINA RESULT: -8.734113581      1.036      1.453
REMARK  19 active torsions:
REMARK  status: ('A' for Active; 'I' for Inactive)
REMARK    1  A    between atoms: C2_2  and  C3_3 
REMARK    2  A    between atoms: C3_3  and  C4_4 
REMARK    3  A    between atoms: C4_4  and  C5_5 
REMARK    4  A    between atoms: C5_5  and  O1_6 
REMARK    5  A    between atoms: O1_6  and  C6_7 
REMARK    6  A    between atoms: C6_7  and  O2_8 
REMARK    7  A    between atoms: C6_7  and  N1_10 
REMARK    8  A    between atoms: N2_13  and  C9_14 
REMARK    9  A    between atoms: C9_14  and  O3_15 
REMARK   10  A    between atoms: C10_17  and  C11_18 
REMARK   11  A    between atoms: C10_17  and  N6_31 
REMARK   12  A    between atoms: C11_18  and  C12_19 
REMARK   13  A    between atoms: N6_31  and  C18_33 
REMARK   14  A    between atoms: C18_33  and  O4_34 
REMARK   15  A    between atoms: C18_33  and  C19_36 
REMARK   16  A    between atoms: C19_36  and  C22_44 
REMARK   17  A    between atoms: N7_37  and  O5_39 
REMARK   18  A    between atoms: O5_39  and  C20_40 
REMARK   19  A    between atoms: C20_40  and  C21_41 
ROOT
HETATM    1  C9  UNL     1      15.043  23.431  15.624  1.00  0.00     0.161 C 
HETATM    2  C10 UNL     1      16.310  24.009  15.818  1.00  0.00     0.066 C 
ENDROOT
BRANCH   2   3
HETATM    3  C11 UNL     1      17.559  23.766  15.120  1.00  0.00     0.104 C 
BRANCH   3   4
HETATM    4  C12 UNL     1      18.784  24.451  15.538  1.00  0.00    -0.006 A 
HETATM    5  C13 UNL     1      19.820  23.883  16.307  1.00  0.00     0.099 A 
HETATM    6  N3  UNL     1      20.840  24.739  16.433  1.00  0.00    -0.350 N 
HETATM    7  C14 UNL     1      20.561  25.866  15.791  1.00  0.00     0.132 A 
ATOM      8  H3  UNL     1      21.702  24.553  16.946  1.00  0.00     0.166 HD
HETATM    9  N4  UNL     1      21.242  27.001  15.630  1.00  0.00    -0.349 N 
HETATM   10  C17 UNL     1      19.297  25.705  15.233  1.00  0.00     0.084 A 
HETATM   11  C15 UNL     1      20.722  28.034  14.918  1.00  0.00     0.106 A 
ATOM     12  H4  UNL     1      22.167  27.096  16.049  1.00  0.00     0.167 HD
HETATM   13  C16 UNL     1      19.468  27.883  14.360  1.00  0.00     0.105 A 
HETATM   14  N5  UNL     1      18.804  26.723  14.541  1.00  0.00    -0.361 N 
ATOM     15  H5  UNL     1      17.879  26.623  14.124  1.00  0.00     0.165 HD
ENDBRANCH   3   4
ENDBRANCH   2   3
BRANCH   2  16
HETATM   16  N6  UNL     1      16.379  24.918  16.788  1.00  0.00    -0.335 N 
ATOM     17  H6  UNL     1      16.418  25.895  16.497  1.00  0.00     0.168 HD
BRANCH  16  18
HETATM   18  C18 UNL     1      16.402  24.677  18.141  1.00  0.00     0.166 C 
BRANCH  18  19
HETATM   19  O4  UNL     1      15.503  25.230  18.915  1.00  0.00    -0.345 OA
ATOM     20  H4  UNL     1      15.577  26.150  19.140  1.00  0.00     0.219 HD
ENDBRANCH  18  19
BRANCH  18  21
HETATM   21  C19 UNL     1      17.334  23.855  18.862  1.00  0.00     0.090 C 
HETATM   22  N7  UNL     1      18.389  24.494  19.301  1.00  0.00    -0.265 N 
ATOM     23  H7  UNL     1      18.413  25.487  19.073  1.00  0.00     0.194 HD
BRANCH  22  24
HETATM   24  O5  UNL     1      19.430  24.058  19.994  1.00  0.00    -0.270 OA
BRANCH  24  25
HETATM   25  C20 UNL     1      19.888  24.914  21.059  1.00  0.00     0.314 C 
BRANCH  25  26
HETATM   26  C21 UNL     1      20.899  25.842  20.581  1.00  0.00     0.200 C 
HETATM   27  O6  UNL     1      21.502  26.595  21.369  1.00  0.00    -0.646 OA
HETATM   28  O7  UNL     1      21.198  25.886  19.204  1.00  0.00    -0.646 OA
ENDBRANCH  25  26
ENDBRANCH  24  25
ENDBRANCH  22  24
BRANCH  21  29
HETATM   29  C22 UNL     1      17.130  22.435  19.130  1.00  0.00    -0.003 C 
HETATM   30  C23 UNL     1      17.953  21.587  18.191  1.00  0.00     0.021 C 
HETATM   31  C24 UNL     1      17.596  22.022  20.538  1.00  0.00     0.021 C 
HETATM   32  C25 UNL     1      15.648  22.052  19.073  1.00  0.00     0.021 C 
ENDBRANCH  21  29
ENDBRANCH  18  21
ENDBRANCH  16  18
ENDBRANCH   2  16
BRANCH   1  33
HETATM   33  N2  UNL     1      14.324  22.555  14.860  1.00  0.00    -0.357 N 
HETATM   34  C8  UNL     1      14.780  21.137  14.685  1.00  0.00     0.145 C 
HETATM   35  C7  UNL     1      13.831  20.265  15.409  1.00  0.00     0.147 C 
HETATM   36  N1  UNL     1      12.446  20.529  15.031  1.00  0.00    -0.339 N 
HETATM   37  C27 UNL     1      12.046  21.706  14.330  1.00  0.00     0.147 C 
HETATM   38  C26 UNL     1      13.050  22.799  14.211  1.00  0.00     0.145 C 
BRANCH  36  39
HETATM   39  C6  UNL     1      11.488  19.538  15.363  1.00  0.00     0.260 C 
BRANCH  39  40
HETATM   40  O1  UNL     1      10.718  19.487  16.496  1.00  0.00    -0.317 OA
BRANCH  40  41
HETATM   41  C5  UNL     1      11.001  18.822  17.690  1.00  0.00     0.179 C 
BRANCH  41  42
HETATM   42  C4  UNL     1      12.096  19.402  18.520  1.00  0.00     0.027 C 
BRANCH  42  43
HETATM   43  C3  UNL     1      13.220  18.364  18.569  1.00  0.00     0.002 C 
BRANCH  43  44
HETATM   44  C2  UNL     1      13.814  18.343  19.938  1.00  0.00    -0.004 C 
HETATM   45  C1  UNL     1      12.744  18.159  20.980  1.00  0.00     0.005 C 
ENDBRANCH  43  44
ENDBRANCH  42  43
ENDBRANCH  41  42
ENDBRANCH  40  41
ENDBRANCH  39  40
BRANCH  39  46
HETATM   46  O2  UNL     1      11.276  18.554  14.539  1.00  0.00    -0.327 OA
ATOM     47  H2  UNL     1      12.064  18.226  14.123  1.00  0.00     0.221 HD
ENDBRANCH  39  46
ENDBRANCH  36  39
ENDBRANCH   1  33
BRANCH   1  48
HETATM   48  O3  UNL     1      14.179  23.936  16.587  1.00  0.00    -0.345 OA
ATOM     49  H3  UNL     1      13.798  24.730  16.231  1.00  0.00     0.219 HD
ENDBRANCH   1  48
TORSDOF 19
ENDMDL
MODEL 3
REMARK VINA RESULT: -8.533869153      1.288      1.961
REMARK  19 active torsions:
REMARK  status: ('A' for Active; 'I' for Inactive)
REMARK    1  A    between atoms: C2_2  and  C3_3 
REMARK    2  A    between atoms: C3_3  and  C4_4 
REMARK    3  A    between atoms: C4_4  and  C5_5 
REMARK    4  A    between atoms: C5_5  and  O1_6 
REMARK    5  A    between atoms: O1_6  and  C6_7 
REMARK    6  A    between atoms: C6_7  and  O2_8 
REMARK    7  A    between atoms: C6_7  and  N1_10 
REMARK    8  A    between atoms: N2_13  and  C9_14 
REMARK    9  A    between atoms: C9_14  and  O3_15 
REMARK   10  A    between atoms: C10_17  and  C11_18 
REMARK   11  A    between atoms: C10_17  and  N6_31 
REMARK   12  A    between atoms: C11_18  and  C12_19 
REMARK   13  A    between atoms: N6_31  and  C18_33 
REMARK   14  A    between atoms: C18_33  and  O4_34 
REMARK   15  A    between atoms: C18_33  and  C19_36 
REMARK   16  A    between atoms: C19_36  and  C22_44 
REMARK   17  A    between atoms: N7_37  and  O5_39 
REMARK   18  A    between atoms: O5_39  and  C20_40 
REMARK   19  A    between atoms: C20_40  and  C21_41 
ROOT
HETATM    1  C9  UNL     1      15.280  23.590  15.949  1.00  0.00     0.161 C 
HETATM    2  C10 UNL     1      16.511  24.236  16.158  1.00  0.00     0.066 C 
ENDROOT
BRANCH   2   3
HETATM    3  C11 UNL     1      17.711  24.236  15.343  1.00  0.00     0.104 C 
BRANCH   3   4
HETATM    4  C12 UNL     1      18.414  25.491  15.062  1.00  0.00    -0.006 A 
HETATM    5  C13 UNL     1      17.968  26.503  14.187  1.00  0.00     0.099 A 
HETATM    6  N3  UNL     1      18.788  27.558  14.228  1.00  0.00    -0.350 N 
HETATM    7  C14 UNL     1      19.774  27.327  15.086  1.00  0.00     0.132 A 
ATOM      8  H3  UNL     1      18.673  28.412  13.683  1.00  0.00     0.166 HD
HETATM    9  N4  UNL     1      20.824  28.056  15.467  1.00  0.00    -0.349 N 
HETATM   10  C17 UNL     1      19.558  26.057  15.609  1.00  0.00     0.084 A 
HETATM   11  C15 UNL     1      21.714  27.580  16.377  1.00  0.00     0.106 A 
ATOM     12  H4  UNL     1      20.961  28.986  15.069  1.00  0.00     0.167 HD
HETATM   13  C16 UNL     1      21.507  26.320  16.901  1.00  0.00     0.105 A 
HETATM   14  N5  UNL     1      20.435  25.608  16.496  1.00  0.00    -0.361 N 
ATOM     15  H5  UNL     1      20.293  24.678  16.891  1.00  0.00     0.165 HD
ENDBRANCH   3   4
ENDBRANCH   2   3
BRANCH   2  16
HETATM   16  N6  UNL     1      16.592  24.960  17.273  1.00  0.00    -0.335 N 
ATOM     17  H6  UNL     1      16.233  25.914  17.225  1.00  0.00     0.168 HD
BRANCH  16  18
HETATM   18  C18 UNL     1      17.109  24.555  18.480  1.00  0.00     0.166 C 
BRANCH  18  19
HETATM   19  O4  UNL     1      16.703  25.127  19.586  1.00  0.00    -0.345 OA
ATOM     20  H4  UNL     1      16.662  26.074  19.639  1.00  0.00     0.219 HD
ENDBRANCH  18  19
BRANCH  18  21
HETATM   21  C19 UNL     1      18.094  23.533  18.706  1.00  0.00     0.090 C 
HETATM   22  N7  UNL     1      19.328  23.971  18.737  1.00  0.00    -0.265 N 
ATOM     23  H7  UNL     1      19.429  24.976  18.594  1.00  0.00     0.194 HD
BRANCH  22  24
HETATM   24  O5  UNL     1      20.465  23.319  18.923  1.00  0.00    -0.270 OA
BRANCH  24  25
HETATM   25  C20 UNL     1      21.384  23.901  19.868  1.00  0.00     0.314 C 
BRANCH  25  26
HETATM   26  C21 UNL     1      20.800  25.068  20.510  1.00  0.00     0.200 C 
HETATM   27  O6  UNL     1      21.251  26.209  20.298  1.00  0.00    -0.646 OA
HETATM   28  O7  UNL     1      19.705  24.898  21.382  1.00  0.00    -0.646 OA
ENDBRANCH  25  26
ENDBRANCH  24  25
ENDBRANCH  22  24
BRANCH  21  29
HETATM   29  C22 UNL     1      17.773  22.127  18.924  1.00  0.00    -0.003 C 
HETATM   30  C23 UNL     1      18.501  21.591  20.133  1.00  0.00     0.021 C 
HETATM   31  C24 UNL     1      16.282  21.899  19.234  1.00  0.00     0.021 C 
HETATM   32  C25 UNL     1      18.055  21.278  17.681  1.00  0.00     0.021 C 
ENDBRANCH  21  29
ENDBRANCH  18  21
ENDBRANCH  16  18
ENDBRANCH   2  16
BRANCH   1  33
HETATM   33  N2  UNL     1      14.569  22.803  15.087  1.00  0.00    -0.357 N 
HETATM   34  C8  UNL     1      15.023  21.410  14.768  1.00  0.00     0.145 C 
HETATM   35  C7  UNL     1      14.063  20.470  15.384  1.00  0.00     0.147 C 
HETATM   36  N1  UNL     1      12.683  20.777  15.019  1.00  0.00    -0.339 N 
HETATM   37  C27 UNL     1      12.295  22.024  14.443  1.00  0.00     0.147 C 
HETATM   38  C26 UNL     1      13.303  23.120  14.453  1.00  0.00     0.145 C 
BRANCH  36  39
HETATM   39  C6  UNL     1      11.718  19.761  15.233  1.00  0.00     0.260 C 
BRANCH  39  40
HETATM   40  O1  UNL     1      10.788  19.709  16.238  1.00  0.00    -0.317 OA
BRANCH  40  41
HETATM   41  C5  UNL     1      10.863  18.995  17.434  1.00  0.00     0.179 C 
BRANCH  41  42
HETATM   42  C4  UNL     1      12.003  19.336  18.332  1.00  0.00     0.027 C 
BRANCH  42  43
HETATM   43  C3  UNL     1      12.870  18.080  18.456  1.00  0.00     0.002 C 
BRANCH  43  44
HETATM   44  C2  UNL     1      13.647  18.138  19.729  1.00  0.00    -0.004 C 
HETATM   45  C1  UNL     1      12.724  18.283  20.909  1.00  0.00     0.005 C 
ENDBRANCH  43  44
ENDBRANCH  42  43
ENDBRANCH  41  42
ENDBRANCH  40  41
ENDBRANCH  39  40
BRANCH  39  46
HETATM   46  O2  UNL     1      11.666  18.750  14.416  1.00  0.00    -0.327 OA
ATOM     47  H2  UNL     1      11.359  17.947  14.819  1.00  0.00     0.221 HD
ENDBRANCH  39  46
ENDBRANCH  36  39
ENDBRANCH   1  33
BRANCH   1  48
HETATM   48  O3  UNL     1      14.465  23.834  17.046  1.00  0.00    -0.345 OA
ATOM     49  H3  UNL     1      14.805  24.607  17.480  1.00  0.00     0.219 HD
ENDBRANCH   1  48
TORSDOF 19
ENDMDL
MODEL 4
REMARK VINA RESULT: -8.398162563      2.732      4.779
REMARK  19 active torsions:
REMARK  status: ('A' for Active; 'I' for Inactive)
REMARK    1  A    between atoms: C2_2  and  C3_3 
REMARK    2  A    between atoms: C3_3  and  C4_4 
REMARK    3  A    between atoms: C4_4  and  C5_5 
REMARK    4  A    between atoms: C5_5  and  O1_6 
REMARK    5  A    between atoms: O1_6  and  C6_7 
REMARK    6  A    between atoms: C6_7  and  O2_8 
REMARK    7  A    between atoms: C6_7  and  N1_10 
REMARK    8  A    between atoms: N2_13  and  C9_14 
REMARK    9  A    between atoms: C9_14  and  O3_15 
REMARK   10  A    between atoms: C10_17  and  C11_18 
REMARK   11  A    between atoms: C10_17  and  N6_31 
REMARK   12  A    between atoms: C11_18  and  C12_19 
REMARK   13  A    between atoms: N6_31  and  C18_33 
REMARK   14  A    between atoms: C18_33  and  O4_34 
REMARK   15  A    between atoms: C18_33  and  C19_36 
REMARK   16  A    between atoms: C19_36  and  C22_44 
REMARK   17  A    between atoms: N7_37  and  O5_39 
REMARK   18  A    between atoms: O5_39  and  C20_40 
REMARK   19  A    between atoms: C20_40  and  C21_41 
ROOT
HETATM    1  C9  UNL     1      15.014  23.536  15.747  1.00  0.00     0.161 C 
HETATM    2  C10 UNL     1      16.261  24.080  16.102  1.00  0.00     0.066 C 
ENDROOT
BRANCH   2   3
HETATM    3  C11 UNL     1      17.529  24.037  15.396  1.00  0.00     0.104 C 
BRANCH   3   4
HETATM    4  C12 UNL     1      18.329  25.254  15.241  1.00  0.00    -0.006 A 
HETATM    5  C13 UNL     1      18.147  26.235  14.245  1.00  0.00     0.099 A 
HETATM    6  N3  UNL     1      18.977  27.266  14.438  1.00  0.00    -0.350 N 
HETATM    7  C14 UNL     1      19.720  27.047  15.516  1.00  0.00     0.132 A 
ATOM      8  H3  UNL     1      19.029  28.095  13.847  1.00  0.00     0.166 HD
HETATM    9  N4  UNL     1      20.678  27.761  16.106  1.00  0.00    -0.349 N 
HETATM   10  C17 UNL     1      19.333  25.811  16.023  1.00  0.00     0.084 A 
HETATM   11  C15 UNL     1      21.306  27.303  17.221  1.00  0.00     0.106 A 
ATOM     12  H4  UNL     1      20.945  28.665  15.716  1.00  0.00     0.167 HD
HETATM   13  C16 UNL     1      20.929  26.077  17.731  1.00  0.00     0.105 A 
HETATM   14  N5  UNL     1      19.955  25.379  17.111  1.00  0.00    -0.361 N 
ATOM     15  H5  UNL     1      19.685  24.475  17.498  1.00  0.00     0.165 HD
ENDBRANCH   3   4
ENDBRANCH   2   3
BRANCH   2  16
HETATM   16  N6  UNL     1      16.288  24.735  17.261  1.00  0.00    -0.335 N 
ATOM     17  H6  UNL     1      16.076  25.732  17.227  1.00  0.00     0.168 HD
BRANCH  16  18
HETATM   18  C18 UNL     1      16.572  24.206  18.497  1.00  0.00     0.166 C 
BRANCH  18  19
HETATM   19  O4  UNL     1      17.012  24.986  19.452  1.00  0.00    -0.345 OA
ATOM     20  H4  UNL     1      16.679  25.872  19.528  1.00  0.00     0.219 HD
ENDBRANCH  18  19
BRANCH  18  21
HETATM   21  C19 UNL     1      16.446  22.834  18.906  1.00  0.00     0.090 C 
HETATM   22  N7  UNL     1      15.218  22.454  19.150  1.00  0.00    -0.265 N 
ATOM     23  H7  UNL     1      14.512  23.179  19.021  1.00  0.00     0.194 HD
BRANCH  22  24
HETATM   24  O5  UNL     1      14.744  21.279  19.537  1.00  0.00    -0.270 OA
BRANCH  24  25
HETATM   25  C20 UNL     1      13.718  20.703  18.704  1.00  0.00     0.314 C 
BRANCH  25  26
HETATM   26  C21 UNL     1      13.561  19.284  18.980  1.00  0.00     0.200 C 
HETATM   27  O6  UNL     1      13.048  18.521  18.140  1.00  0.00    -0.646 OA
HETATM   28  O7  UNL     1      13.999  18.770  20.218  1.00  0.00    -0.646 OA
ENDBRANCH  25  26
ENDBRANCH  24  25
ENDBRANCH  22  24
BRANCH  21  29
HETATM   29  C22 UNL     1      17.571  21.911  19.012  1.00  0.00    -0.003 C 
HETATM   30  C23 UNL     1      17.334  20.676  18.176  1.00  0.00     0.021 C 
HETATM   31  C24 UNL     1      18.882  22.506  18.465  1.00  0.00     0.021 C 
HETATM   32  C25 UNL     1      17.876  21.548  20.469  1.00  0.00     0.021 C 
ENDBRANCH  21  29
ENDBRANCH  18  21
ENDBRANCH  16  18
ENDBRANCH   2  16
BRANCH   1  33
HETATM   33  N2  UNL     1      14.334  22.850  14.780  1.00  0.00    -0.357 N 
HETATM   34  C8  UNL     1      14.878  21.569  14.222  1.00  0.00     0.145 C 
HETATM   35  C7  UNL     1      14.010  20.468  14.691  1.00  0.00     0.147 C 
HETATM   36  N1  UNL     1      12.601  20.723  14.412  1.00  0.00    -0.339 N 
HETATM   37  C27 UNL     1      12.103  22.014  14.062  1.00  0.00     0.147 C 
HETATM   38  C26 UNL     1      13.028  23.168  14.235  1.00  0.00     0.145 C 
BRANCH  36  39
HETATM   39  C6  UNL     1      11.720  19.613  14.472  1.00  0.00     0.260 C 
BRANCH  39  40
HETATM   40  O1  UNL     1      10.877  19.180  13.482  1.00  0.00    -0.317 OA
BRANCH  40  41
HETATM   41  C5  UNL     1      10.957  17.993  12.753  1.00  0.00     0.179 C 
BRANCH  41  42
HETATM   42  C4  UNL     1      12.272  17.705  12.112  1.00  0.00     0.027 C 
BRANCH  42  43
HETATM   43  C3  UNL     1      12.466  16.186  12.149  1.00  0.00     0.002 C 
BRANCH  43  44
HETATM   44  C2  UNL     1      13.610  15.812  11.265  1.00  0.00    -0.004 C 
HETATM   45  C1  UNL     1      13.114  15.359   9.918  1.00  0.00     0.005 C 
ENDBRANCH  43  44
ENDBRANCH  42  43
ENDBRANCH  41  42
ENDBRANCH  40  41
ENDBRANCH  39  40
BRANCH  39  46
HETATM   46  O2  UNL     1      11.671  18.896  15.556  1.00  0.00    -0.327 OA
ATOM     47  H2  UNL     1      10.793  18.635  15.804  1.00  0.00     0.221 HD
ENDBRANCH  39  46
ENDBRANCH  36  39
ENDBRANCH   1  33
BRANCH   1  48
HETATM   48  O3  UNL     1      14.120  23.779  16.781  1.00  0.00    -0.345 OA
ATOM     49  H3  UNL     1      13.585  24.519  16.518  1.00  0.00     0.219 HD
ENDBRANCH   1  48
TORSDOF 19
ENDMDL
MODEL 5
REMARK VINA RESULT: -8.307652221      1.957      4.954
REMARK  19 active torsions:
REMARK  status: ('A' for Active; 'I' for Inactive)
REMARK    1  A    between atoms: C2_2  and  C3_3 
REMARK    2  A    between atoms: C3_3  and  C4_4 
REMARK    3  A    between atoms: C4_4  and  C5_5 
REMARK    4  A    between atoms: C5_5  and  O1_6 
REMARK    5  A    between atoms: O1_6  and  C6_7 
REMARK    6  A    between atoms: C6_7  and  O2_8 
REMARK    7  A    between atoms: C6_7  and  N1_10 
REMARK    8  A    between atoms: N2_13  and  C9_14 
REMARK    9  A    between atoms: C9_14  and  O3_15 
REMARK   10  A    between atoms: C10_17  and  C11_18 
REMARK   11  A    between atoms: C10_17  and  N6_31 
REMARK   12  A    between atoms: C11_18  and  C12_19 
REMARK   13  A    between atoms: N6_31  and  C18_33 
REMARK   14  A    between atoms: C18_33  and  O4_34 
REMARK   15  A    between atoms: C18_33  and  C19_36 
REMARK   16  A    between atoms: C19_36  and  C22_44 
REMARK   17  A    between atoms: N7_37  and  O5_39 
REMARK   18  A    between atoms: O5_39  and  C20_40 
REMARK   19  A    between atoms: C20_40  and  C21_41 
ROOT
HETATM    1  C9  UNL     1      17.270  22.259  17.884  1.00  0.00     0.161 C 
HETATM    2  C10 UNL     1      17.569  23.017  16.738  1.00  0.00     0.066 C 
ENDROOT
BRANCH   2   3
HETATM    3  C11 UNL     1      16.940  23.012  15.430  1.00  0.00     0.104 C 
BRANCH   3   4
HETATM    4  C12 UNL     1      15.480  22.955  15.313  1.00  0.00    -0.006 A 
HETATM    5  C13 UNL     1      14.577  23.896  15.849  1.00  0.00     0.099 A 
HETATM    6  N3  UNL     1      13.323  23.609  15.483  1.00  0.00    -0.350 N 
HETATM    7  C14 UNL     1      13.316  22.521  14.722  1.00  0.00     0.132 A 
ATOM      8  H3  UNL     1      12.497  24.146  15.748  1.00  0.00     0.166 HD
HETATM    9  N4  UNL     1      12.331  21.847  14.128  1.00  0.00    -0.349 N 
HETATM   10  C17 UNL     1      14.638  22.106  14.608  1.00  0.00     0.084 A 
HETATM   11  C15 UNL     1      12.590  20.734  13.392  1.00  0.00     0.106 A 
ATOM     12  H4  UNL     1      11.369  22.172  14.226  1.00  0.00     0.167 HD
HETATM   13  C16 UNL     1      13.900  20.315  13.273  1.00  0.00     0.105 A 
HETATM   14  N5  UNL     1      14.873  21.019  13.886  1.00  0.00    -0.361 N 
ATOM     15  H5  UNL     1      15.837  20.699  13.790  1.00  0.00     0.165 HD
ENDBRANCH   3   4
ENDBRANCH   2   3
BRANCH   2  16
HETATM   16  N6  UNL     1      18.583  23.870  16.867  1.00  0.00    -0.335 N 
ATOM     17  H6  UNL     1      19.521  23.470  16.860  1.00  0.00     0.168 HD
BRANCH  16  18
HETATM   18  C18 UNL     1      18.495  25.235  17.010  1.00  0.00     0.166 C 
BRANCH  18  19
HETATM   19  O4  UNL     1      17.408  25.768  17.509  1.00  0.00    -0.345 OA
ATOM     20  H4  UNL     1      17.117  26.618  17.202  1.00  0.00     0.219 HD
ENDBRANCH  18  19
BRANCH  18  21
HETATM   21  C19 UNL     1      19.491  26.211  16.663  1.00  0.00     0.090 C 
HETATM   22  N7  UNL     1      20.100  26.749  17.689  1.00  0.00    -0.265 N 
ATOM     23  H7  UNL     1      19.787  26.409  18.598  1.00  0.00     0.194 HD
BRANCH  22  24
HETATM   24  O5  UNL     1      21.056  27.665  17.736  1.00  0.00    -0.270 OA
BRANCH  24  25
HETATM   25  C20 UNL     1      22.245  27.304  18.466  1.00  0.00     0.314 C 
BRANCH  25  26
HETATM   26  C21 UNL     1      21.933  27.001  19.853  1.00  0.00     0.200 C 
HETATM   27  O6  UNL     1      22.272  27.773  20.769  1.00  0.00    -0.646 OA
HETATM   28  O7  UNL     1      21.234  25.816  20.159  1.00  0.00    -0.646 OA
ENDBRANCH  25  26
ENDBRANCH  24  25
ENDBRANCH  22  24
BRANCH  21  29
HETATM   29  C22 UNL     1      19.840  26.564  15.291  1.00  0.00    -0.003 C 
HETATM   30  C23 UNL     1      20.956  25.687  14.778  1.00  0.00     0.021 C 
HETATM   31  C24 UNL     1      18.681  26.336  14.304  1.00  0.00     0.021 C 
HETATM   32  C25 UNL     1      20.192  28.049  15.156  1.00  0.00     0.021 C 
ENDBRANCH  21  29
ENDBRANCH  18  21
ENDBRANCH  16  18
ENDBRANCH   2  16
BRANCH   1  33
HETATM   33  N2  UNL     1      16.423  21.326  18.410  1.00  0.00    -0.357 N 
HETATM   34  C8  UNL     1      15.435  21.701  19.475  1.00  0.00     0.145 C 
HETATM   35  C7  UNL     1      14.083  21.638  18.881  1.00  0.00     0.147 C 
HETATM   36  N1  UNL     1      13.835  20.361  18.218  1.00  0.00    -0.339 N 
HETATM   37  C27 UNL     1      14.878  19.446  17.884  1.00  0.00     0.147 C 
HETATM   38  C26 UNL     1      16.278  19.942  18.000  1.00  0.00     0.145 C 
BRANCH  36  39
HETATM   39  C6  UNL     1      12.484  20.033  17.936  1.00  0.00     0.260 C 
BRANCH  39  40
HETATM   40  O1  UNL     1      11.641  19.283  18.714  1.00  0.00    -0.317 OA
BRANCH  40  41
HETATM   41  C5  UNL     1      10.994  18.096  18.370  1.00  0.00     0.179 C 
BRANCH  41  42
HETATM   42  C4  UNL     1      11.876  16.938  18.043  1.00  0.00     0.027 C 
BRANCH  42  43
HETATM   43  C3  UNL     1      11.029  15.939  17.249  1.00  0.00     0.002 C 
BRANCH  43  44
HETATM   44  C2  UNL     1      10.676  16.533  15.926  1.00  0.00    -0.004 C 
HETATM   45  C1  UNL     1      10.700  15.482  14.849  1.00  0.00     0.005 C 
ENDBRANCH  43  44
ENDBRANCH  42  43
ENDBRANCH  41  42
ENDBRANCH  40  41
ENDBRANCH  39  40
BRANCH  39  46
HETATM   46  O2  UNL     1      11.939  20.469  16.839  1.00  0.00    -0.327 OA
ATOM     47  H2  UNL     1      11.204  21.053  16.981  1.00  0.00     0.221 HD
ENDBRANCH  39  46
ENDBRANCH  36  39
ENDBRANCH   1  33
BRANCH   1  48
HETATM   48  O3  UNL     1      18.200  22.568  18.868  1.00  0.00    -0.345 OA
ATOM     49  H3  UNL     1      18.992  22.848  18.425  1.00  0.00     0.219 HD
ENDBRANCH   1  48
TORSDOF 19
ENDMDL
