MODEL 1
REMARK VINA RESULT: -9.593906196      0.000      0.000
REMARK  15 active torsions:
REMARK  status: ('A' for Active; 'I' for Inactive)
REMARK    1  A    between atoms: C2_2  and  C3_3 
REMARK    2  A    between atoms: C4_4  and  C5_5 
REMARK    3  A    between atoms: C8_8  and  O1_9 
REMARK    4  A    between atoms: O1_9  and  C9_10 
REMARK    5  A    between atoms: C9_10  and  C10_11 
REMARK    6  A    between atoms: C10_11  and  O2_12 
REMARK    7  A    between atoms: O2_12  and  C11_13 
REMARK    8  A    between atoms: C11_13  and  C12_14 
REMARK    9  A    between atoms: C12_14  and  N1_15 
REMARK   10  A    between atoms: N1_15  and  C13_17 
REMARK   11  A    between atoms: C14_20  and  N3_21 
REMARK   12  A    between atoms: C20_30  and  N6_31 
REMARK   13  A    between atoms: N6_31  and  C21_33 
REMARK   14  A    between atoms: C24_36  and  O3_37 
REMARK   15  A    between atoms: O3_37  and  C25_38 
ROOT
HETATM    1  C21 UNL     1      20.317  24.796  20.428  1.00  0.00     0.050 A 
HETATM    2  C22 UNL     1      20.828  23.676  19.800  1.00  0.00     0.033 A 
HETATM    3  C23 UNL     1      22.179  23.409  19.848  1.00  0.00     0.040 A 
HETATM    4  C24 UNL     1      23.053  24.228  20.507  1.00  0.00     0.089 A 
HETATM    5  C27 UNL     1      22.561  25.360  21.146  1.00  0.00     0.080 A 
HETATM    6  C28 UNL     1      23.467  26.234  21.848  1.00  0.00     0.102 C 
HETATM    7  N7  UNL     1      24.210  26.923  22.420  1.00  0.00    -0.191 NA
HETATM    8  C29 UNL     1      21.213  25.614  21.090  1.00  0.00     0.055 A 
ENDROOT
BRANCH   4   9
HETATM    9  O3  UNL     1      24.417  24.009  20.589  1.00  0.00    -0.350 OA
BRANCH   9  10
HETATM   10  C25 UNL     1      25.311  23.968  19.522  1.00  0.00     0.171 C 
HETATM   11  C26 UNL     1      25.648  22.567  19.072  1.00  0.00     0.034 C 
ENDBRANCH   9  10
ENDBRANCH   4   9
BRANCH   1  12
HETATM   12  N6  UNL     1      18.942  25.088  20.404  1.00  0.00    -0.191 N 
ATOM     13  H6  UNL     1      18.481  25.346  21.276  1.00  0.00     0.184 HD
BRANCH  12  14
HETATM   14  C20 UNL     1      18.244  25.043  19.331  1.00  0.00     0.711 A 
HETATM   15  N5  UNL     1      18.840  25.187  18.106  1.00  0.00    -0.021 N 
HETATM   16  C14 UNL     1      18.115  25.148  16.979  1.00  0.00     0.709 A 
ATOM     17  H5  UNL     1      19.848  25.326  18.051  1.00  0.00     0.203 HD
HETATM   18  N2  UNL     1      16.795  24.965  17.076  1.00  0.00    -0.021 N 
HETATM   19  C13 UNL     1      16.162  24.819  18.237  1.00  0.00     0.707 A 
ATOM     20  H2  UNL     1      16.246  24.935  16.217  1.00  0.00     0.203 HD
HETATM   21  N8  UNL     1      16.918  24.862  19.375  1.00  0.00    -0.021 N 
ATOM     22  H8  UNL     1      16.461  24.752  20.280  1.00  0.00     0.203 HD
BRANCH  16  23
HETATM   23  N3  UNL     1      18.719  25.297  15.721  1.00  0.00    -0.213 N 
HETATM   24  C15 UNL     1      18.163  26.259  14.778  1.00  0.00     0.171 C 
HETATM   25  C16 UNL     1      19.165  27.388  14.600  1.00  0.00     0.292 C 
HETATM   26  N4  UNL     1      20.517  26.923  14.821  1.00  0.00     0.087 N 
HETATM   27  C17 UNL     1      21.514  27.792  14.291  1.00  0.00     0.310 C 
HETATM   28  C18 UNL     1      20.712  25.538  14.462  1.00  0.00     0.292 C 
HETATM   29  C19 UNL     1      19.884  24.573  15.250  1.00  0.00     0.171 C 
ENDBRANCH  16  23
BRANCH  19  30
HETATM   30  N1  UNL     1      14.900  24.649  18.364  1.00  0.00    -0.223 N 
ATOM     31  H1  UNL     1      14.349  25.314  18.907  1.00  0.00     0.177 HD
BRANCH  30  32
HETATM   32  C12 UNL     1      14.256  23.519  17.739  1.00  0.00     0.164 C 
BRANCH  32  33
HETATM   33  C11 UNL     1      14.834  22.252  18.377  1.00  0.00     0.188 C 
BRANCH  33  34
HETATM   34  O2  UNL     1      13.859  21.651  19.132  1.00  0.00    -0.387 OA
BRANCH  34  35
HETATM   35  C10 UNL     1      14.011  20.279  19.242  1.00  0.00     0.194 C 
BRANCH  35  36
HETATM   36  C9  UNL     1      12.922  19.484  18.588  1.00  0.00     0.201 C 
BRANCH  36  37
HETATM   37  O1  UNL     1      12.773  19.600  17.240  1.00  0.00    -0.349 OA
BRANCH  37  38
HETATM   38  C8  UNL     1      11.818  20.154  16.437  1.00  0.00     0.074 A 
HETATM   39  C7  UNL     1      10.475  20.034  16.702  1.00  0.00     0.039 A 
HETATM   40  C6  UNL     1       9.556  20.633  15.832  1.00  0.00     0.023 A 
HETATM   41  C5  UNL     1       9.933  21.343  14.714  1.00  0.00     0.018 A 
HETATM   42  C32 UNL     1      11.286  21.443  14.481  1.00  0.00     0.030 A 
HETATM   43  C30 UNL     1      12.223  20.872  15.307  1.00  0.00    -0.027 A 
HETATM   44  C31 UNL     1      13.681  20.988  15.049  1.00  0.00     0.051 C 
BRANCH  41  45
HETATM   45  C4  UNL     1       8.951  21.941  13.843  1.00  0.00    -0.067 C 
HETATM   46  C3  UNL     1       8.116  22.436  13.130  1.00  0.00    -0.101 C 
BRANCH  46  47
HETATM   47  C2  UNL     1       7.092  23.016  12.261  1.00  0.00     0.090 C 
HETATM   48  C1  UNL     1       6.782  22.142  11.075  1.00  0.00     0.018 C 
ENDBRANCH  46  47
ENDBRANCH  41  45
ENDBRANCH  37  38
ENDBRANCH  36  37
ENDBRANCH  35  36
ENDBRANCH  34  35
ENDBRANCH  33  34
ENDBRANCH  32  33
ENDBRANCH  30  32
ENDBRANCH  19  30
ENDBRANCH  12  14
ENDBRANCH   1  12
TORSDOF 15
ENDMDL
MODEL 2
REMARK VINA RESULT: -9.540340325      1.129      1.863
REMARK  15 active torsions:
REMARK  status: ('A' for Active; 'I' for Inactive)
REMARK    1  A    between atoms: C2_2  and  C3_3 
REMARK    2  A    between atoms: C4_4  and  C5_5 
REMARK    3  A    between atoms: C8_8  and  O1_9 
REMARK    4  A    between atoms: O1_9  and  C9_10 
REMARK    5  A    between atoms: C9_10  and  C10_11 
REMARK    6  A    between atoms: C10_11  and  O2_12 
REMARK    7  A    between atoms: O2_12  and  C11_13 
REMARK    8  A    between atoms: C11_13  and  C12_14 
REMARK    9  A    between atoms: C12_14  and  N1_15 
REMARK   10  A    between atoms: N1_15  and  C13_17 
REMARK   11  A    between atoms: C14_20  and  N3_21 
REMARK   12  A    between atoms: C20_30  and  N6_31 
REMARK   13  A    between atoms: N6_31  and  C21_33 
REMARK   14  A    between atoms: C24_36  and  O3_37 
REMARK   15  A    between atoms: O3_37  and  C25_38 
ROOT
HETATM    1  C21 UNL     1      20.556  24.825  20.642  1.00  0.00     0.050 A 
HETATM    2  C22 UNL     1      20.689  26.058  21.252  1.00  0.00     0.033 A 
HETATM    3  C23 UNL     1      21.937  26.612  21.432  1.00  0.00     0.040 A 
HETATM    4  C24 UNL     1      23.075  25.975  21.022  1.00  0.00     0.089 A 
HETATM    5  C27 UNL     1      22.965  24.734  20.406  1.00  0.00     0.080 A 
HETATM    6  C28 UNL     1      24.154  24.048  19.965  1.00  0.00     0.102 C 
HETATM    7  N7  UNL     1      25.122  23.513  19.604  1.00  0.00    -0.191 NA
HETATM    8  C29 UNL     1      21.715  24.193  20.233  1.00  0.00     0.055 A 
ENDROOT
BRANCH   4   9
HETATM    9  O3  UNL     1      24.353  26.484  21.176  1.00  0.00    -0.350 OA
BRANCH   9  10
HETATM   10  C25 UNL     1      25.128  26.432  22.332  1.00  0.00     0.171 C 
HETATM   11  C26 UNL     1      26.497  25.836  22.112  1.00  0.00     0.034 C 
ENDBRANCH   9  10
ENDBRANCH   4   9
BRANCH   1  12
HETATM   12  N6  UNL     1      19.294  24.240  20.436  1.00  0.00    -0.191 N 
ATOM     13  H6  UNL     1      18.935  23.591  21.136  1.00  0.00     0.184 HD
BRANCH  12  14
HETATM   14  C20 UNL     1      18.578  24.488  19.404  1.00  0.00     0.711 A 
HETATM   15  N5  UNL     1      19.163  24.712  18.186  1.00  0.00    -0.021 N 
HETATM   16  C14 UNL     1      18.420  24.979  17.103  1.00  0.00     0.709 A 
ATOM     17  H5  UNL     1      20.179  24.674  18.103  1.00  0.00     0.203 HD
HETATM   18  N2  UNL     1      17.092  25.023  17.236  1.00  0.00    -0.021 N 
HETATM   19  C13 UNL     1      16.467  24.814  18.392  1.00  0.00     0.707 A 
ATOM     20  H2  UNL     1      16.528  25.226  16.410  1.00  0.00     0.203 HD
HETATM   21  N8  UNL     1      17.242  24.543  19.485  1.00  0.00    -0.021 N 
ATOM     22  H8  UNL     1      16.791  24.378  20.385  1.00  0.00     0.203 HD
BRANCH  16  23
HETATM   23  N3  UNL     1      19.015  25.211  15.853  1.00  0.00    -0.213 N 
HETATM   24  C15 UNL     1      18.480  26.265  14.999  1.00  0.00     0.171 C 
HETATM   25  C16 UNL     1      19.517  27.372  14.900  1.00  0.00     0.292 C 
HETATM   26  N4  UNL     1      20.855  26.847  15.064  1.00  0.00     0.087 N 
HETATM   27  C17 UNL     1      21.874  27.725  14.593  1.00  0.00     0.310 C 
HETATM   28  C18 UNL     1      21.000  25.491  14.591  1.00  0.00     0.292 C 
HETATM   29  C19 UNL     1      20.151  24.491  15.309  1.00  0.00     0.171 C 
ENDBRANCH  16  23
BRANCH  19  30
HETATM   30  N1  UNL     1      15.199  24.856  18.554  1.00  0.00    -0.223 N 
ATOM     31  H1  UNL     1      14.784  25.575  19.147  1.00  0.00     0.177 HD
BRANCH  30  32
HETATM   32  C12 UNL     1      14.353  23.887  17.899  1.00  0.00     0.164 C 
BRANCH  32  33
HETATM   33  C11 UNL     1      14.935  22.500  18.190  1.00  0.00     0.188 C 
BRANCH  33  34
HETATM   34  O2  UNL     1      14.356  22.006  19.331  1.00  0.00    -0.387 OA
BRANCH  34  35
HETATM   35  C10 UNL     1      13.899  20.705  19.203  1.00  0.00     0.194 C 
BRANCH  35  36
HETATM   36  C9  UNL     1      14.190  20.078  17.874  1.00  0.00     0.201 C 
BRANCH  36  37
HETATM   37  O1  UNL     1      13.138  19.597  17.154  1.00  0.00    -0.349 OA
BRANCH  37  38
HETATM   38  C8  UNL     1      12.187  20.177  16.364  1.00  0.00     0.074 A 
HETATM   39  C7  UNL     1      12.497  21.115  15.409  1.00  0.00     0.039 A 
HETATM   40  C6  UNL     1      11.466  21.662  14.637  1.00  0.00     0.023 A 
HETATM   41  C5  UNL     1      10.144  21.306  14.787  1.00  0.00     0.018 A 
HETATM   42  C32 UNL     1       9.872  20.363  15.754  1.00  0.00     0.030 A 
HETATM   43  C30 UNL     1      10.851  19.799  16.533  1.00  0.00    -0.027 A 
HETATM   44  C31 UNL     1      10.548  18.781  17.571  1.00  0.00     0.051 C 
BRANCH  41  45
HETATM   45  C4  UNL     1       9.113  21.898  13.971  1.00  0.00    -0.067 C 
HETATM   46  C3  UNL     1       8.262  22.411  13.292  1.00  0.00    -0.101 C 
BRANCH  46  47
HETATM   47  C2  UNL     1       7.219  23.047  12.487  1.00  0.00     0.090 C 
HETATM   48  C1  UNL     1       6.902  22.270  11.237  1.00  0.00     0.018 C 
ENDBRANCH  46  47
ENDBRANCH  41  45
ENDBRANCH  37  38
ENDBRANCH  36  37
ENDBRANCH  35  36
ENDBRANCH  34  35
ENDBRANCH  33  34
ENDBRANCH  32  33
ENDBRANCH  30  32
ENDBRANCH  19  30
ENDBRANCH  12  14
ENDBRANCH   1  12
TORSDOF 15
ENDMDL
MODEL 3
REMARK VINA RESULT: -9.453357827      3.556      8.216
REMARK  15 active torsions:
REMARK  status: ('A' for Active; 'I' for Inactive)
REMARK    1  A    between atoms: C2_2  and  C3_3 
REMARK    2  A    between atoms: C4_4  and  C5_5 
REMARK    3  A    between atoms: C8_8  and  O1_9 
REMARK    4  A    between atoms: O1_9  and  C9_10 
REMARK    5  A    between atoms: C9_10  and  C10_11 
REMARK    6  A    between atoms: C10_11  and  O2_12 
REMARK    7  A    between atoms: O2_12  and  C11_13 
REMARK    8  A    between atoms: C11_13  and  C12_14 
REMARK    9  A    between atoms: C12_14  and  N1_15 
REMARK   10  A    between atoms: N1_15  and  C13_17 
REMARK   11  A    between atoms: C14_20  and  N3_21 
REMARK   12  A    between atoms: C20_30  and  N6_31 
REMARK   13  A    between atoms: N6_31  and  C21_33 
REMARK   14  A    between atoms: C24_36  and  O3_37 
REMARK   15  A    between atoms: O3_37  and  C25_38 
ROOT
HETATM    1  C21 UNL     1      14.161  21.865  14.051  1.00  0.00     0.050 A 
HETATM    2  C22 UNL     1      13.175  22.719  14.506  1.00  0.00     0.033 A 
HETATM    3  C23 UNL     1      11.849  22.351  14.430  1.00  0.00     0.040 A 
HETATM    4  C24 UNL     1      11.464  21.147  13.910  1.00  0.00     0.089 A 
HETATM    5  C27 UNL     1      12.439  20.273  13.446  1.00  0.00     0.080 A 
HETATM    6  C28 UNL     1      12.052  18.997  12.897  1.00  0.00     0.102 C 
HETATM    7  N7  UNL     1      11.723  17.968  12.466  1.00  0.00    -0.191 NA
HETATM    8  C29 UNL     1      13.756  20.652  13.528  1.00  0.00     0.055 A 
ENDROOT
BRANCH   4   9
HETATM    9  O3  UNL     1      10.149  20.726  13.809  1.00  0.00    -0.350 OA
BRANCH   9  10
HETATM   10  C25 UNL     1       9.031  21.383  14.317  1.00  0.00     0.171 C 
HETATM   11  C26 UNL     1       8.293  22.201  13.286  1.00  0.00     0.034 C 
ENDBRANCH   9  10
ENDBRANCH   4   9
BRANCH   1  12
HETATM   12  N6  UNL     1      15.522  22.210  14.126  1.00  0.00    -0.191 N 
ATOM     13  H6  UNL     1      16.059  22.275  13.261  1.00  0.00     0.184 HD
BRANCH  12  14
HETATM   14  C20 UNL     1      16.116  22.443  15.236  1.00  0.00     0.711 A 
HETATM   15  N5  UNL     1      17.195  23.286  15.286  1.00  0.00    -0.021 N 
HETATM   16  C14 UNL     1      17.826  23.530  16.443  1.00  0.00     0.709 A 
ATOM     17  H5  UNL     1      17.522  23.734  14.430  1.00  0.00     0.203 HD
HETATM   18  N2  UNL     1      17.379  22.933  17.552  1.00  0.00    -0.021 N 
HETATM   19  C13 UNL     1      16.336  22.106  17.564  1.00  0.00     0.707 A 
ATOM     20  H2  UNL     1      17.860  23.121  18.431  1.00  0.00     0.203 HD
HETATM   21  N8  UNL     1      15.706  21.870  16.375  1.00  0.00    -0.021 N 
ATOM     22  H8  UNL     1      14.904  21.240  16.354  1.00  0.00     0.203 HD
BRANCH  16  23
HETATM   23  N3  UNL     1      18.933  24.390  16.500  1.00  0.00    -0.213 N 
HETATM   24  C15 UNL     1      19.987  24.255  15.502  1.00  0.00     0.171 C 
HETATM   25  C16 UNL     1      19.971  25.492  14.619  1.00  0.00     0.292 C 
HETATM   26  N4  UNL     1      19.467  26.640  15.341  1.00  0.00     0.087 N 
HETATM   27  C17 UNL     1      19.793  27.886  14.732  1.00  0.00     0.310 C 
HETATM   28  C18 UNL     1      19.755  26.598  16.756  1.00  0.00     0.292 C 
HETATM   29  C19 UNL     1      19.140  25.442  17.478  1.00  0.00     0.171 C 
ENDBRANCH  16  23
BRANCH  19  30
HETATM   30  N1  UNL     1      15.888  21.514  18.606  1.00  0.00    -0.223 N 
ATOM     31  H1  UNL     1      16.470  20.832  19.095  1.00  0.00     0.177 HD
BRANCH  30  32
HETATM   32  C12 UNL     1      14.562  21.808  19.092  1.00  0.00     0.164 C 
BRANCH  32  33
HETATM   33  C11 UNL     1      13.725  20.533  18.940  1.00  0.00     0.188 C 
BRANCH  33  34
HETATM   34  O2  UNL     1      14.119  19.627  19.890  1.00  0.00    -0.387 OA
BRANCH  34  35
HETATM   35  C10 UNL     1      13.363  18.467  19.897  1.00  0.00     0.194 C 
BRANCH  35  36
HETATM   36  C9  UNL     1      11.967  18.644  20.410  1.00  0.00     0.201 C 
BRANCH  36  37
HETATM   37  O1  UNL     1      10.942  18.511  19.522  1.00  0.00    -0.349 OA
BRANCH  37  38
HETATM   38  C8  UNL     1      10.766  17.778  18.383  1.00  0.00     0.074 A 
HETATM   39  C7  UNL     1      10.775  16.404  18.384  1.00  0.00     0.039 A 
HETATM   40  C6  UNL     1      10.585  15.724  17.175  1.00  0.00     0.023 A 
HETATM   41  C5  UNL     1      10.387  16.368  15.974  1.00  0.00     0.018 A 
HETATM   42  C32 UNL     1      10.383  17.745  16.012  1.00  0.00     0.030 A 
HETATM   43  C30 UNL     1      10.565  18.453  17.174  1.00  0.00    -0.027 A 
HETATM   44  C31 UNL     1      10.556  19.938  17.205  1.00  0.00     0.051 C 
BRANCH  41  45
HETATM   45  C4  UNL     1      10.197  15.627  14.752  1.00  0.00    -0.067 C 
HETATM   46  C3  UNL     1      10.018  15.008  13.734  1.00  0.00    -0.101 C 
BRANCH  46  47
HETATM   47  C2  UNL     1       9.791  14.238  12.511  1.00  0.00     0.090 C 
HETATM   48  C1  UNL     1      10.269  14.960  11.279  1.00  0.00     0.018 C 
ENDBRANCH  46  47
ENDBRANCH  41  45
ENDBRANCH  37  38
ENDBRANCH  36  37
ENDBRANCH  35  36
ENDBRANCH  34  35
ENDBRANCH  33  34
ENDBRANCH  32  33
ENDBRANCH  30  32
ENDBRANCH  19  30
ENDBRANCH  12  14
ENDBRANCH   1  12
TORSDOF 15
ENDMDL
MODEL 4
REMARK VINA RESULT: -9.337996866      3.763      8.135
REMARK  15 active torsions:
REMARK  status: ('A' for Active; 'I' for Inactive)
REMARK    1  A    between atoms: C2_2  and  C3_3 
REMARK    2  A    between atoms: C4_4  and  C5_5 
REMARK    3  A    between atoms: C8_8  and  O1_9 
REMARK    4  A    between atoms: O1_9  and  C9_10 
REMARK    5  A    between atoms: C9_10  and  C10_11 
REMARK    6  A    between atoms: C10_11  and  O2_12 
REMARK    7  A    between atoms: O2_12  and  C11_13 
REMARK    8  A    between atoms: C11_13  and  C12_14 
REMARK    9  A    between atoms: C12_14  and  N1_15 
REMARK   10  A    between atoms: N1_15  and  C13_17 
REMARK   11  A    between atoms: C14_20  and  N3_21 
REMARK   12  A    between atoms: C20_30  and  N6_31 
REMARK   13  A    between atoms: N6_31  and  C21_33 
REMARK   14  A    between atoms: C24_36  and  O3_37 
REMARK   15  A    between atoms: O3_37  and  C25_38 
ROOT
HETATM    1  C21 UNL     1      13.280  22.174  14.410  1.00  0.00     0.050 A 
HETATM    2  C22 UNL     1      14.014  21.119  13.903  1.00  0.00     0.033 A 
HETATM    3  C23 UNL     1      13.376  19.990  13.438  1.00  0.00     0.040 A 
HETATM    4  C24 UNL     1      12.014  19.870  13.459  1.00  0.00     0.089 A 
HETATM    5  C27 UNL     1      11.256  20.920  13.965  1.00  0.00     0.080 A 
HETATM    6  C28 UNL     1       9.818  20.813  13.993  1.00  0.00     0.102 C 
HETATM    7  N7  UNL     1       8.659  20.715  13.998  1.00  0.00    -0.191 NA
HETATM    8  C29 UNL     1      11.904  22.038  14.425  1.00  0.00     0.055 A 
ENDROOT
BRANCH   4   9
HETATM    9  O3  UNL     1      11.321  18.762  13.005  1.00  0.00    -0.350 OA
BRANCH   9  10
HETATM   10  C25 UNL     1      11.541  18.084  11.808  1.00  0.00     0.171 C 
HETATM   11  C26 UNL     1      12.452  16.890  11.952  1.00  0.00     0.034 C 
ENDBRANCH   9  10
ENDBRANCH   4   9
BRANCH   1  12
HETATM   12  N6  UNL     1      13.903  23.342  14.883  1.00  0.00    -0.191 N 
ATOM     13  H6  UNL     1      13.713  24.225  14.408  1.00  0.00     0.184 HD
BRANCH  12  14
HETATM   14  C20 UNL     1      14.701  23.343  15.885  1.00  0.00     0.711 A 
HETATM   15  N5  UNL     1      15.953  23.887  15.778  1.00  0.00    -0.021 N 
HETATM   16  C14 UNL     1      16.796  23.886  16.821  1.00  0.00     0.709 A 
ATOM     17  H5  UNL     1      16.249  24.298  14.893  1.00  0.00     0.203 HD
HETATM   18  N2  UNL     1      16.387  23.342  17.970  1.00  0.00    -0.021 N 
HETATM   19  C13 UNL     1      15.183  22.800  18.133  1.00  0.00     0.707 A 
ATOM     20  H2  UNL     1      17.030  23.342  18.762  1.00  0.00     0.203 HD
HETATM   21  N8  UNL     1      14.338  22.811  17.059  1.00  0.00    -0.021 N 
ATOM     22  H8  UNL     1      13.408  22.403  17.154  1.00  0.00     0.203 HD
BRANCH  16  23
HETATM   23  N3  UNL     1      18.081  24.439  16.717  1.00  0.00    -0.213 N 
HETATM   24  C15 UNL     1      18.971  23.970  15.661  1.00  0.00     0.171 C 
HETATM   25  C16 UNL     1      19.178  25.105  14.672  1.00  0.00     0.292 C 
HETATM   26  N4  UNL     1      19.043  26.391  15.320  1.00  0.00     0.087 N 
HETATM   27  C17 UNL     1      19.607  27.467  14.576  1.00  0.00     0.310 C 
HETATM   28  C18 UNL     1      19.443  26.378  16.708  1.00  0.00     0.292 C 
HETATM   29  C19 UNL     1      18.632  25.470  17.576  1.00  0.00     0.171 C 
ENDBRANCH  16  23
BRANCH  19  30
HETATM   30  N1  UNL     1      14.764  22.265  19.217  1.00  0.00    -0.223 N 
ATOM     31  H1  UNL     1      15.035  22.660  20.118  1.00  0.00     0.177 HD
BRANCH  30  32
HETATM   32  C12 UNL     1      13.909  21.104  19.169  1.00  0.00     0.164 C 
BRANCH  32  33
HETATM   33  C11 UNL     1      14.815  19.871  19.081  1.00  0.00     0.188 C 
BRANCH  33  34
HETATM   34  O2  UNL     1      14.196  18.820  19.706  1.00  0.00    -0.387 OA
BRANCH  34  35
HETATM   35  C10 UNL     1      13.241  19.209  20.631  1.00  0.00     0.194 C 
BRANCH  35  36
HETATM   36  C9  UNL     1      12.010  18.356  20.643  1.00  0.00     0.201 C 
BRANCH  36  37
HETATM   37  O1  UNL     1      11.137  18.485  19.606  1.00  0.00    -0.349 OA
BRANCH  37  38
HETATM   38  C8  UNL     1      10.918  17.778  18.458  1.00  0.00     0.074 A 
HETATM   39  C7  UNL     1      10.982  16.407  18.417  1.00  0.00     0.039 A 
HETATM   40  C6  UNL     1      10.744  15.753  17.202  1.00  0.00     0.023 A 
HETATM   41  C5  UNL     1      10.447  16.422  16.035  1.00  0.00     0.018 A 
HETATM   42  C32 UNL     1      10.392  17.796  16.115  1.00  0.00     0.030 A 
HETATM   43  C30 UNL     1      10.618  18.478  17.285  1.00  0.00    -0.027 A 
HETATM   44  C31 UNL     1      10.553  19.960  17.362  1.00  0.00     0.051 C 
BRANCH  41  45
HETATM   45  C4  UNL     1      10.211  15.708  14.804  1.00  0.00    -0.067 C 
HETATM   46  C3  UNL     1      10.009  15.095  13.788  1.00  0.00    -0.101 C 
BRANCH  46  47
HETATM   47  C2  UNL     1       9.781  14.336  12.558  1.00  0.00     0.090 C 
HETATM   48  C1  UNL     1       9.126  15.162  11.484  1.00  0.00     0.018 C 
ENDBRANCH  46  47
ENDBRANCH  41  45
ENDBRANCH  37  38
ENDBRANCH  36  37
ENDBRANCH  35  36
ENDBRANCH  34  35
ENDBRANCH  33  34
ENDBRANCH  32  33
ENDBRANCH  30  32
ENDBRANCH  19  30
ENDBRANCH  12  14
ENDBRANCH   1  12
TORSDOF 15
ENDMDL
MODEL 5
REMARK VINA RESULT: -9.275023077      3.666     10.068
REMARK  15 active torsions:
REMARK  status: ('A' for Active; 'I' for Inactive)
REMARK    1  A    between atoms: C2_2  and  C3_3 
REMARK    2  A    between atoms: C4_4  and  C5_5 
REMARK    3  A    between atoms: C8_8  and  O1_9 
REMARK    4  A    between atoms: O1_9  and  C9_10 
REMARK    5  A    between atoms: C9_10  and  C10_11 
REMARK    6  A    between atoms: C10_11  and  O2_12 
REMARK    7  A    between atoms: O2_12  and  C11_13 
REMARK    8  A    between atoms: C11_13  and  C12_14 
REMARK    9  A    between atoms: C12_14  and  N1_15 
REMARK   10  A    between atoms: N1_15  and  C13_17 
REMARK   11  A    between atoms: C14_20  and  N3_21 
REMARK   12  A    between atoms: C20_30  and  N6_31 
REMARK   13  A    between atoms: N6_31  and  C21_33 
REMARK   14  A    between atoms: C24_36  and  O3_37 
REMARK   15  A    between atoms: O3_37  and  C25_38 
ROOT
HETATM    1  C21 UNL     1      18.963  23.769  20.398  1.00  0.00     0.050 A 
HETATM    2  C22 UNL     1      19.905  22.946  19.810  1.00  0.00     0.033 A 
HETATM    3  C23 UNL     1      21.229  23.322  19.774  1.00  0.00     0.040 A 
HETATM    4  C24 UNL     1      21.658  24.505  20.308  1.00  0.00     0.089 A 
HETATM    5  C27 UNL     1      20.728  25.349  20.905  1.00  0.00     0.080 A 
HETATM    6  C28 UNL     1      21.162  26.599  21.476  1.00  0.00     0.102 C 
HETATM    7  N7  UNL     1      21.530  27.599  21.943  1.00  0.00    -0.191 NA
HETATM    8  C29 UNL     1      19.412  24.961  20.934  1.00  0.00     0.055 A 
ENDROOT
BRANCH   4   9
HETATM    9  O3  UNL     1      22.975  24.933  20.301  1.00  0.00    -0.350 OA
BRANCH   9  10
HETATM   10  C25 UNL     1      24.106  24.121  20.291  1.00  0.00     0.171 C 
HETATM   11  C26 UNL     1      25.005  24.326  21.485  1.00  0.00     0.034 C 
ENDBRANCH   9  10
ENDBRANCH   4   9
BRANCH   1  12
HETATM   12  N6  UNL     1      17.606  23.406  20.459  1.00  0.00    -0.191 N 
ATOM     13  H6  UNL     1      17.167  23.304  21.374  1.00  0.00     0.184 HD
BRANCH  12  14
HETATM   14  C20 UNL     1      16.899  23.199  19.412  1.00  0.00     0.711 A 
HETATM   15  N5  UNL     1      16.117  22.078  19.309  1.00  0.00    -0.021 N 
HETATM   16  C14 UNL     1      15.379  21.851  18.213  1.00  0.00     0.709 A 
ATOM     17  H5  UNL     1      16.097  21.408  20.078  1.00  0.00     0.203 HD
HETATM   18  N2  UNL     1      15.421  22.743  17.220  1.00  0.00    -0.021 N 
HETATM   19  C13 UNL     1      16.161  23.848  17.263  1.00  0.00     0.707 A 
ATOM     20  H2  UNL     1      14.859  22.568  16.387  1.00  0.00     0.203 HD
HETATM   21  N8  UNL     1      16.906  24.063  18.388  1.00  0.00    -0.021 N 
ATOM     22  H8  UNL     1      17.483  24.902  18.451  1.00  0.00     0.203 HD
BRANCH  16  23
HETATM   23  N3  UNL     1      14.579  20.704  18.102  1.00  0.00    -0.213 N 
HETATM   24  C15 UNL     1      15.137  19.411  18.479  1.00  0.00     0.171 C 
HETATM   25  C16 UNL     1      14.415  18.924  19.725  1.00  0.00     0.292 C 
HETATM   26  N4  UNL     1      13.068  19.449  19.784  1.00  0.00     0.087 N 
HETATM   27  C17 UNL     1      12.216  18.738  20.677  1.00  0.00     0.310 C 
HETATM   28  C18 UNL     1      12.481  19.669  18.483  1.00  0.00     0.292 C 
HETATM   29  C19 UNL     1      13.203  20.673  17.641  1.00  0.00     0.171 C 
ENDBRANCH  16  23
BRANCH  19  30
HETATM   30  N1  UNL     1      16.229  24.718  16.327  1.00  0.00    -0.223 N 
ATOM     31  H1  UNL     1      15.553  25.481  16.290  1.00  0.00     0.177 HD
BRANCH  30  32
HETATM   32  C12 UNL     1      17.260  24.621  15.322  1.00  0.00     0.164 C 
BRANCH  32  33
HETATM   33  C11 UNL     1      18.051  25.933  15.349  1.00  0.00     0.188 C 
BRANCH  33  34
HETATM   34  O2  UNL     1      18.629  26.127  14.121  1.00  0.00    -0.387 OA
BRANCH  34  35
HETATM   35  C10 UNL     1      19.882  26.714  14.185  1.00  0.00     0.194 C 
BRANCH  35  36
HETATM   36  C9  UNL     1      19.866  28.162  14.569  1.00  0.00     0.201 C 
BRANCH  36  37
HETATM   37  O1  UNL     1      20.761  28.580  15.506  1.00  0.00    -0.349 OA
BRANCH  37  38
HETATM   38  C8  UNL     1      21.937  28.077  15.985  1.00  0.00     0.074 A 
HETATM   39  C7  UNL     1      23.124  28.214  15.308  1.00  0.00     0.039 A 
HETATM   40  C6  UNL     1      24.289  27.671  15.864  1.00  0.00     0.023 A 
HETATM   41  C5  UNL     1      24.305  27.000  17.067  1.00  0.00     0.018 A 
HETATM   42  C32 UNL     1      23.096  26.883  17.717  1.00  0.00     0.030 A 
HETATM   43  C30 UNL     1      21.930  27.400  17.208  1.00  0.00    -0.027 A 
HETATM   44  C31 UNL     1      20.632  27.271  17.919  1.00  0.00     0.051 C 
BRANCH  41  45
HETATM   45  C4  UNL     1      25.528  26.454  17.602  1.00  0.00    -0.067 C 
HETATM   46  C3  UNL     1      26.540  25.998  18.068  1.00  0.00    -0.101 C 
BRANCH  46  47
HETATM   47  C2  UNL     1      27.773  25.465  18.646  1.00  0.00     0.090 C 
HETATM   48  C1  UNL     1      27.679  23.993  18.946  1.00  0.00     0.018 C 
ENDBRANCH  46  47
ENDBRANCH  41  45
ENDBRANCH  37  38
ENDBRANCH  36  37
ENDBRANCH  35  36
ENDBRANCH  34  35
ENDBRANCH  33  34
ENDBRANCH  32  33
ENDBRANCH  30  32
ENDBRANCH  19  30
ENDBRANCH  12  14
ENDBRANCH   1  12
TORSDOF 15
ENDMDL
