MODEL 1
REMARK VINA RESULT: -8.883107246      0.000      0.000
REMARK  12 active torsions:
REMARK  status: ('A' for Active; 'I' for Inactive)
REMARK    1  A    between atoms: C2_2  and  C3_3 
REMARK    2  A    between atoms: C5_5  and  C6_6 
REMARK       I    between atoms: C6_6  and  N1_8 
REMARK    3  A    between atoms: N1_8  and  C7_10 
REMARK    4  A    between atoms: C7_10  and  C8_11 
REMARK    5  A    between atoms: C7_10  and  C16_19 
REMARK    6  A    between atoms: C8_11  and  C9_12 
REMARK    7  A    between atoms: C10_13  and  C12_15 
REMARK    8  A    between atoms: C16_19  and  C17_21 
REMARK    9  A    between atoms: C17_21  and  C18_22 
REMARK   10  A    between atoms: C18_22  and  C19_23 
REMARK   11  A    between atoms: C18_22  and  C24_30 
REMARK       I    between atoms: C19_23  and  N2_25 
REMARK   12  A    between atoms: C24_30  and  C27_33 
ROOT
HETATM    1  C7  UNL     1      17.481  24.396  18.765  1.00  0.00     0.158 C 
ENDROOT
BRANCH   1   2
HETATM    2  N1  UNL     1      18.925  24.701  18.963  1.00  0.00    -0.348 N 
HETATM    3  C6  UNL     1      19.476  24.882  20.244  1.00  0.00     0.243 C 
HETATM    4  O1  UNL     1      18.695  24.782  21.232  1.00  0.00    -0.271 OA
ATOM      5  H1  UNL     1      19.530  24.780  18.146  1.00  0.00     0.163 HD
BRANCH   3   6
HETATM    6  C5  UNL     1      20.880  25.176  20.519  1.00  0.00     0.207 C 
HETATM    7  C4  UNL     1      21.779  23.944  20.490  1.00  0.00     0.064 C 
HETATM    8  C3  UNL     1      23.131  24.628  20.292  1.00  0.00     0.115 C 
HETATM    9  N5  UNL     1      22.782  25.629  19.317  1.00  0.00    -0.230 N 
HETATM   10  N3  UNL     1      21.497  25.955  19.434  1.00  0.00    -0.222 N 
HETATM   11  C30 UNL     1      23.323  26.356  18.319  1.00  0.00     0.347 A 
HETATM   12  C28 UNL     1      21.268  26.887  18.495  1.00  0.00     0.348 A 
HETATM   13  O5  UNL     1      20.179  27.490  18.236  1.00  0.00    -0.245 OA
HETATM   14  N4  UNL     1      22.379  27.152  17.794  1.00  0.00    -0.253 N 
HETATM   15  C29 UNL     1      22.561  28.086  16.700  1.00  0.00     0.166 C 
HETATM   16  O6  UNL     1      24.517  26.319  17.918  1.00  0.00    -0.245 OA
BRANCH   8  17
HETATM   17  C2  UNL     1      24.163  23.672  19.761  1.00  0.00     0.023 C 
HETATM   18  C1  UNL     1      25.477  23.793  20.510  1.00  0.00     0.007 C 
ENDBRANCH   8  17
ENDBRANCH   3   6
ENDBRANCH   1   2
BRANCH   1  19
HETATM   19  C8  UNL     1      17.076  25.308  17.634  1.00  0.00     0.060 C 
BRANCH  19  20
HETATM   20  C9  UNL     1      18.187  25.723  16.758  1.00  0.00    -0.021 C 
HETATM   21  C10 UNL     1      18.298  25.289  15.501  1.00  0.00    -0.080 C 
HETATM   22  C11 UNL     1      17.258  24.361  14.995  1.00  0.00     0.044 C 
BRANCH  21  23
HETATM   23  C12 UNL     1      19.437  25.745  14.679  1.00  0.00    -0.029 C 
HETATM   24  C13 UNL     1      19.134  25.461  13.213  1.00  0.00     0.019 C 
HETATM   25  C14 UNL     1      20.757  25.170  15.106  1.00  0.00     0.019 C 
HETATM   26  C15 UNL     1      19.586  27.270  14.782  1.00  0.00     0.019 C 
ENDBRANCH  21  23
ENDBRANCH  19  20
ENDBRANCH   1  19
BRANCH   1  27
HETATM   27  C16 UNL     1      17.316  22.957  18.501  1.00  0.00     0.153 C 
HETATM   28  O2  UNL     1      18.156  22.437  17.790  1.00  0.00    -0.295 OA
BRANCH  27  29
HETATM   29  C17 UNL     1      16.236  22.164  19.040  1.00  0.00     0.121 C 
BRANCH  29  30
HETATM   30  C18 UNL     1      15.243  21.605  18.078  1.00  0.00     0.009 C 
BRANCH  30  31
HETATM   31  C19 UNL     1      14.523  22.646  17.317  1.00  0.00     0.247 C 
HETATM   32  O3  UNL     1      14.062  23.629  17.948  1.00  0.00    -0.268 OA
HETATM   33  N2  UNL     1      14.314  22.616  15.909  1.00  0.00    -0.348 N 
HETATM   34  C20 UNL     1      14.706  21.615  14.923  1.00  0.00     0.126 C 
HETATM   35  C23 UNL     1      13.636  23.631  15.130  1.00  0.00     0.126 C 
HETATM   36  C21 UNL     1      13.517  21.533  13.954  1.00  0.00     0.021 C 
HETATM   37  C22 UNL     1      12.787  22.831  14.137  1.00  0.00     0.021 C 
ENDBRANCH  30  31
BRANCH  30  38
HETATM   38  C24 UNL     1      14.433  20.441  18.456  1.00  0.00     0.035 C 
HETATM   39  C25 UNL     1      14.431  20.269  19.973  1.00  0.00     0.027 C 
HETATM   40  C26 UNL     1      13.049  20.323  17.917  1.00  0.00     0.027 C 
BRANCH  38  41
HETATM   41  C27 UNL     1      15.179  19.214  17.971  1.00  0.00     0.244 C 
HETATM   42  O4  UNL     1      14.954  18.101  18.356  1.00  0.00    -0.306 OA
ENDBRANCH  38  41
ENDBRANCH  30  38
ENDBRANCH  29  30
ENDBRANCH  27  29
ENDBRANCH   1  27
TORSDOF 12
ENDMDL
MODEL 2
REMARK VINA RESULT: -8.750816895      2.911     10.259
REMARK  12 active torsions:
REMARK  status: ('A' for Active; 'I' for Inactive)
REMARK    1  A    between atoms: C2_2  and  C3_3 
REMARK    2  A    between atoms: C5_5  and  C6_6 
REMARK       I    between atoms: C6_6  and  N1_8 
REMARK    3  A    between atoms: N1_8  and  C7_10 
REMARK    4  A    between atoms: C7_10  and  C8_11 
REMARK    5  A    between atoms: C7_10  and  C16_19 
REMARK    6  A    between atoms: C8_11  and  C9_12 
REMARK    7  A    between atoms: C10_13  and  C12_15 
REMARK    8  A    between atoms: C16_19  and  C17_21 
REMARK    9  A    between atoms: C17_21  and  C18_22 
REMARK   10  A    between atoms: C18_22  and  C19_23 
REMARK   11  A    between atoms: C18_22  and  C24_30 
REMARK       I    between atoms: C19_23  and  N2_25 
REMARK   12  A    between atoms: C24_30  and  C27_33 
ROOT
HETATM    1  C7  UNL     1      15.202  21.929  16.360  1.00  0.00     0.158 C 
ENDROOT
BRANCH   1   2
HETATM    2  N1  UNL     1      14.204  21.072  15.664  1.00  0.00    -0.348 N 
HETATM    3  C6  UNL     1      12.986  21.588  15.186  1.00  0.00     0.243 C 
HETATM    4  O1  UNL     1      12.762  22.818  15.373  1.00  0.00    -0.271 OA
ATOM      5  H1  UNL     1      14.409  20.082  15.531  1.00  0.00     0.163 HD
BRANCH   3   6
HETATM    6  C5  UNL     1      11.962  20.814  14.489  1.00  0.00     0.207 C 
HETATM    7  C4  UNL     1      12.507  19.983  13.332  1.00  0.00     0.064 C 
HETATM    8  C3  UNL     1      11.367  18.974  13.192  1.00  0.00     0.115 C 
HETATM    9  N5  UNL     1      11.091  18.692  14.577  1.00  0.00    -0.230 N 
HETATM   10  N3  UNL     1      11.425  19.735  15.334  1.00  0.00    -0.222 N 
HETATM   11  C30 UNL     1      10.602  17.721  15.374  1.00  0.00     0.347 A 
HETATM   12  C28 UNL     1      11.132  19.383  16.595  1.00  0.00     0.348 A 
HETATM   13  O5  UNL     1      11.283  20.066  17.658  1.00  0.00    -0.245 OA
HETATM   14  N4  UNL     1      10.623  18.144  16.647  1.00  0.00    -0.253 N 
HETATM   15  C29 UNL     1      10.181  17.391  17.804  1.00  0.00     0.166 C 
HETATM   16  O6  UNL     1      10.185  16.588  15.014  1.00  0.00    -0.245 OA
BRANCH   8  17
HETATM   17  C2  UNL     1      11.805  17.742  12.452  1.00  0.00     0.023 C 
HETATM   18  C1  UNL     1      11.057  17.579  11.142  1.00  0.00     0.007 C 
ENDBRANCH   8  17
ENDBRANCH   3   6
ENDBRANCH   1   2
BRANCH   1  19
HETATM   19  C8  UNL     1      16.076  20.939  17.089  1.00  0.00     0.060 C 
BRANCH  19  20
HETATM   20  C9  UNL     1      15.338  19.853  17.759  1.00  0.00    -0.021 C 
HETATM   21  C10 UNL     1      14.827  19.995  18.983  1.00  0.00    -0.080 C 
HETATM   22  C11 UNL     1      15.022  21.295  19.668  1.00  0.00     0.044 C 
BRANCH  21  23
HETATM   23  C12 UNL     1      14.099  18.864  19.595  1.00  0.00    -0.029 C 
HETATM   24  C13 UNL     1      13.869  17.793  18.536  1.00  0.00     0.019 C 
HETATM   25  C14 UNL     1      12.825  19.269  20.278  1.00  0.00     0.019 C 
HETATM   26  C15 UNL     1      14.966  18.199  20.674  1.00  0.00     0.019 C 
ENDBRANCH  21  23
ENDBRANCH  19  20
ENDBRANCH   1  19
BRANCH   1  27
HETATM   27  C16 UNL     1      15.896  22.773  15.373  1.00  0.00     0.153 C 
HETATM   28  O2  UNL     1      16.117  22.266  14.288  1.00  0.00    -0.295 OA
BRANCH  27  29
HETATM   29  C17 UNL     1      16.305  24.134  15.630  1.00  0.00     0.121 C 
BRANCH  29  30
HETATM   30  C18 UNL     1      17.527  24.342  16.460  1.00  0.00     0.009 C 
BRANCH  30  31
HETATM   31  C19 UNL     1      17.233  24.489  17.899  1.00  0.00     0.247 C 
HETATM   32  O3  UNL     1      16.329  25.292  18.240  1.00  0.00    -0.268 OA
HETATM   33  N2  UNL     1      17.904  23.780  18.936  1.00  0.00    -0.348 N 
HETATM   34  C20 UNL     1      18.990  22.811  18.858  1.00  0.00     0.126 C 
HETATM   35  C23 UNL     1      17.623  23.882  20.353  1.00  0.00     0.126 C 
HETATM   36  C21 UNL     1      19.895  23.138  20.056  1.00  0.00     0.021 C 
HETATM   37  C22 UNL     1      19.009  23.891  21.005  1.00  0.00     0.021 C 
ENDBRANCH  30  31
BRANCH  30  38
HETATM   38  C24 UNL     1      18.615  25.190  15.959  1.00  0.00     0.035 C 
HETATM   39  C25 UNL     1      18.159  25.958  14.721  1.00  0.00     0.027 C 
HETATM   40  C26 UNL     1      19.312  26.100  16.909  1.00  0.00     0.027 C 
BRANCH  38  41
HETATM   41  C27 UNL     1      19.678  24.257  15.412  1.00  0.00     0.244 C 
HETATM   42  O4  UNL     1      20.545  24.602  14.659  1.00  0.00    -0.306 OA
ENDBRANCH  38  41
ENDBRANCH  30  38
ENDBRANCH  29  30
ENDBRANCH  27  29
ENDBRANCH   1  27
TORSDOF 12
ENDMDL
MODEL 3
REMARK VINA RESULT: -8.723391642      1.271      2.681
REMARK  12 active torsions:
REMARK  status: ('A' for Active; 'I' for Inactive)
REMARK    1  A    between atoms: C2_2  and  C3_3 
REMARK    2  A    between atoms: C5_5  and  C6_6 
REMARK       I    between atoms: C6_6  and  N1_8 
REMARK    3  A    between atoms: N1_8  and  C7_10 
REMARK    4  A    between atoms: C7_10  and  C8_11 
REMARK    5  A    between atoms: C7_10  and  C16_19 
REMARK    6  A    between atoms: C8_11  and  C9_12 
REMARK    7  A    between atoms: C10_13  and  C12_15 
REMARK    8  A    between atoms: C16_19  and  C17_21 
REMARK    9  A    between atoms: C17_21  and  C18_22 
REMARK   10  A    between atoms: C18_22  and  C19_23 
REMARK   11  A    between atoms: C18_22  and  C24_30 
REMARK       I    between atoms: C19_23  and  N2_25 
REMARK   12  A    between atoms: C24_30  and  C27_33 
ROOT
HETATM    1  C7  UNL     1      17.858  23.629  18.620  1.00  0.00     0.158 C 
ENDROOT
BRANCH   1   2
HETATM    2  N1  UNL     1      19.259  24.049  18.895  1.00  0.00    -0.348 N 
HETATM    3  C6  UNL     1      19.628  24.654  20.110  1.00  0.00     0.243 C 
HETATM    4  O1  UNL     1      18.718  24.836  20.969  1.00  0.00    -0.271 OA
ATOM      5  H1  UNL     1      19.971  23.894  18.182  1.00  0.00     0.163 HD
BRANCH   3   6
HETATM    6  C5  UNL     1      20.979  25.087  20.456  1.00  0.00     0.207 C 
HETATM    7  C4  UNL     1      21.986  23.944  20.531  1.00  0.00     0.064 C 
HETATM    8  C3  UNL     1      23.280  24.743  20.386  1.00  0.00     0.115 C 
HETATM    9  N5  UNL     1      22.904  25.672  19.352  1.00  0.00    -0.230 N 
HETATM   10  N3  UNL     1      21.590  25.881  19.378  1.00  0.00    -0.222 N 
HETATM   11  C30 UNL     1      23.439  26.410  18.359  1.00  0.00     0.347 A 
HETATM   12  C28 UNL     1      21.337  26.754  18.390  1.00  0.00     0.348 A 
HETATM   13  O5  UNL     1      20.216  27.244  18.042  1.00  0.00    -0.245 OA
HETATM   14  N4  UNL     1      22.461  27.096  17.746  1.00  0.00    -0.253 N 
HETATM   15  C29 UNL     1      22.627  28.003  16.627  1.00  0.00     0.166 C 
HETATM   16  O6  UNL     1      24.654  26.470  18.032  1.00  0.00    -0.245 OA
BRANCH   8  17
HETATM   17  C2  UNL     1      24.425  23.869  19.958  1.00  0.00     0.023 C 
HETATM   18  C1  UNL     1      25.572  23.920  20.951  1.00  0.00     0.007 C 
ENDBRANCH   8  17
ENDBRANCH   3   6
ENDBRANCH   1   2
BRANCH   1  19
HETATM   19  C8  UNL     1      17.437  24.517  17.475  1.00  0.00     0.060 C 
BRANCH  19  20
HETATM   20  C9  UNL     1      18.513  24.820  16.512  1.00  0.00    -0.021 C 
HETATM   21  C10 UNL     1      18.293  25.538  15.410  1.00  0.00    -0.080 C 
HETATM   22  C11 UNL     1      16.918  26.034  15.169  1.00  0.00     0.044 C 
BRANCH  21  23
HETATM   23  C12 UNL     1      19.417  25.804  14.488  1.00  0.00    -0.029 C 
HETATM   24  C13 UNL     1      18.979  25.477  13.066  1.00  0.00     0.019 C 
HETATM   25  C14 UNL     1      20.686  25.096  14.866  1.00  0.00     0.019 C 
HETATM   26  C15 UNL     1      19.753  27.302  14.483  1.00  0.00     0.019 C 
ENDBRANCH  21  23
ENDBRANCH  19  20
ENDBRANCH   1  19
BRANCH   1  27
HETATM   27  C16 UNL     1      17.826  22.184  18.338  1.00  0.00     0.153 C 
HETATM   28  O2  UNL     1      18.566  21.486  19.008  1.00  0.00    -0.295 OA
BRANCH  27  29
HETATM   29  C17 UNL     1      16.976  21.582  17.338  1.00  0.00     0.121 C 
BRANCH  29  30
HETATM   30  C18 UNL     1      15.598  22.131  17.183  1.00  0.00     0.009 C 
BRANCH  30  31
HETATM   31  C19 UNL     1      14.680  21.709  18.259  1.00  0.00     0.247 C 
HETATM   32  O3  UNL     1      14.177  22.597  18.991  1.00  0.00    -0.268 OA
HETATM   33  N2  UNL     1      14.317  20.358  18.527  1.00  0.00    -0.348 N 
HETATM   34  C20 UNL     1      14.742  19.126  17.872  1.00  0.00     0.126 C 
HETATM   35  C23 UNL     1      13.401  19.914  19.556  1.00  0.00     0.126 C 
HETATM   36  C21 UNL     1      14.905  18.112  19.015  1.00  0.00     0.021 C 
HETATM   37  C22 UNL     1      14.072  18.664  20.134  1.00  0.00     0.021 C 
ENDBRANCH  30  31
BRANCH  30  38
HETATM   38  C24 UNL     1      14.992  22.218  15.849  1.00  0.00     0.035 C 
HETATM   39  C25 UNL     1      16.072  22.419  14.789  1.00  0.00     0.027 C 
HETATM   40  C26 UNL     1      14.036  21.157  15.423  1.00  0.00     0.027 C 
BRANCH  38  41
HETATM   41  C27 UNL     1      14.220  23.523  15.805  1.00  0.00     0.244 C 
HETATM   42  O4  UNL     1      13.194  23.671  15.203  1.00  0.00    -0.306 OA
ENDBRANCH  38  41
ENDBRANCH  30  38
ENDBRANCH  29  30
ENDBRANCH  27  29
ENDBRANCH   1  27
TORSDOF 12
ENDMDL
MODEL 4
REMARK VINA RESULT: -8.665655506      2.842     10.209
REMARK  12 active torsions:
REMARK  status: ('A' for Active; 'I' for Inactive)
REMARK    1  A    between atoms: C2_2  and  C3_3 
REMARK    2  A    between atoms: C5_5  and  C6_6 
REMARK       I    between atoms: C6_6  and  N1_8 
REMARK    3  A    between atoms: N1_8  and  C7_10 
REMARK    4  A    between atoms: C7_10  and  C8_11 
REMARK    5  A    between atoms: C7_10  and  C16_19 
REMARK    6  A    between atoms: C8_11  and  C9_12 
REMARK    7  A    between atoms: C10_13  and  C12_15 
REMARK    8  A    between atoms: C16_19  and  C17_21 
REMARK    9  A    between atoms: C17_21  and  C18_22 
REMARK   10  A    between atoms: C18_22  and  C19_23 
REMARK   11  A    between atoms: C18_22  and  C24_30 
REMARK       I    between atoms: C19_23  and  N2_25 
REMARK   12  A    between atoms: C24_30  and  C27_33 
ROOT
HETATM    1  C7  UNL     1      14.228  22.769  16.659  1.00  0.00     0.158 C 
ENDROOT
BRANCH   1   2
HETATM    2  N1  UNL     1      13.377  21.700  16.068  1.00  0.00    -0.348 N 
HETATM    3  C6  UNL     1      12.485  21.960  15.012  1.00  0.00     0.243 C 
HETATM    4  O1  UNL     1      12.425  23.146  14.580  1.00  0.00    -0.271 OA
ATOM      5  H1  UNL     1      13.442  20.753  16.440  1.00  0.00     0.163 HD
BRANCH   3   6
HETATM    6  C5  UNL     1      11.623  20.966  14.377  1.00  0.00     0.207 C 
HETATM    7  C4  UNL     1      12.336  20.124  13.324  1.00  0.00     0.064 C 
HETATM    8  C3  UNL     1      11.377  18.936  13.264  1.00  0.00     0.115 C 
HETATM    9  N5  UNL     1      11.097  18.751  14.665  1.00  0.00    -0.230 N 
HETATM   10  N3  UNL     1      11.232  19.903  15.317  1.00  0.00    -0.222 N 
HETATM   11  C30 UNL     1      10.738  17.796  15.546  1.00  0.00     0.347 A 
HETATM   12  C28 UNL     1      10.951  19.634  16.601  1.00  0.00     0.348 A 
HETATM   13  O5  UNL     1      10.952  20.433  17.590  1.00  0.00    -0.245 OA
HETATM   14  N4  UNL     1      10.643  18.341  16.769  1.00  0.00    -0.253 N 
HETATM   15  C29 UNL     1      10.282  17.643  17.988  1.00  0.00     0.166 C 
HETATM   16  O6  UNL     1      10.520  16.581  15.296  1.00  0.00    -0.245 OA
BRANCH   8  17
HETATM   17  C2  UNL     1      12.033  17.725  12.664  1.00  0.00     0.023 C 
HETATM   18  C1  UNL     1      11.232  17.173  11.499  1.00  0.00     0.007 C 
ENDBRANCH   8  17
ENDBRANCH   3   6
ENDBRANCH   1   2
BRANCH   1  19
HETATM   19  C8  UNL     1      14.134  22.520  18.144  1.00  0.00     0.060 C 
BRANCH  19  20
HETATM   20  C9  UNL     1      13.751  21.143  18.507  1.00  0.00    -0.021 C 
HETATM   21  C10 UNL     1      14.593  20.314  19.125  1.00  0.00    -0.080 C 
HETATM   22  C11 UNL     1      15.950  20.817  19.445  1.00  0.00     0.044 C 
BRANCH  21  23
HETATM   23  C12 UNL     1      14.143  18.947  19.460  1.00  0.00    -0.029 C 
HETATM   24  C13 UNL     1      15.116  18.337  20.461  1.00  0.00     0.019 C 
HETATM   25  C14 UNL     1      13.940  18.068  18.260  1.00  0.00     0.019 C 
HETATM   26  C15 UNL     1      12.788  18.999  20.181  1.00  0.00     0.019 C 
ENDBRANCH  21  23
ENDBRANCH  19  20
ENDBRANCH   1  19
BRANCH   1  27
HETATM   27  C16 UNL     1      15.584  22.684  16.092  1.00  0.00     0.153 C 
HETATM   28  O2  UNL     1      16.057  21.567  15.983  1.00  0.00    -0.295 OA
BRANCH  27  29
HETATM   29  C17 UNL     1      16.348  23.834  15.669  1.00  0.00     0.121 C 
BRANCH  29  30
HETATM   30  C18 UNL     1      17.566  24.182  16.457  1.00  0.00     0.009 C 
BRANCH  30  31
HETATM   31  C19 UNL     1      17.281  24.439  17.882  1.00  0.00     0.247 C 
HETATM   32  O3  UNL     1      16.367  25.252  18.167  1.00  0.00    -0.268 OA
HETATM   33  N2  UNL     1      17.971  23.825  18.966  1.00  0.00    -0.348 N 
HETATM   34  C20 UNL     1      19.072  22.869  18.956  1.00  0.00     0.126 C 
HETATM   35  C23 UNL     1      17.700  24.036  20.373  1.00  0.00     0.126 C 
HETATM   36  C21 UNL     1      19.981  23.305  20.116  1.00  0.00     0.021 C 
HETATM   37  C22 UNL     1      19.091  24.118  21.010  1.00  0.00     0.021 C 
ENDBRANCH  30  31
BRANCH  30  38
HETATM   38  C24 UNL     1      18.599  25.041  15.866  1.00  0.00     0.035 C 
HETATM   39  C25 UNL     1      18.117  25.604  14.531  1.00  0.00     0.027 C 
HETATM   40  C26 UNL     1      19.200  26.119  16.699  1.00  0.00     0.027 C 
BRANCH  38  41
HETATM   41  C27 UNL     1      19.744  24.132  15.463  1.00  0.00     0.244 C 
HETATM   42  O4  UNL     1      20.622  24.457  14.714  1.00  0.00    -0.306 OA
ENDBRANCH  38  41
ENDBRANCH  30  38
ENDBRANCH  29  30
ENDBRANCH  27  29
ENDBRANCH   1  27
TORSDOF 12
ENDMDL
MODEL 5
REMARK VINA RESULT: -8.639760788      1.994      8.481
REMARK  12 active torsions:
REMARK  status: ('A' for Active; 'I' for Inactive)
REMARK    1  A    between atoms: C2_2  and  C3_3 
REMARK    2  A    between atoms: C5_5  and  C6_6 
REMARK       I    between atoms: C6_6  and  N1_8 
REMARK    3  A    between atoms: N1_8  and  C7_10 
REMARK    4  A    between atoms: C7_10  and  C8_11 
REMARK    5  A    between atoms: C7_10  and  C16_19 
REMARK    6  A    between atoms: C8_11  and  C9_12 
REMARK    7  A    between atoms: C10_13  and  C12_15 
REMARK    8  A    between atoms: C16_19  and  C17_21 
REMARK    9  A    between atoms: C17_21  and  C18_22 
REMARK   10  A    between atoms: C18_22  and  C19_23 
REMARK   11  A    between atoms: C18_22  and  C24_30 
REMARK       I    between atoms: C19_23  and  N2_25 
REMARK   12  A    between atoms: C24_30  and  C27_33 
ROOT
HETATM    1  C7  UNL     1      18.040  24.304  15.702  1.00  0.00     0.158 C 
ENDROOT
BRANCH   1   2
HETATM    2  N1  UNL     1      16.552  24.254  15.714  1.00  0.00    -0.348 N 
HETATM    3  C6  UNL     1      15.846  23.070  15.434  1.00  0.00     0.243 C 
HETATM    4  O1  UNL     1      16.525  22.039  15.164  1.00  0.00    -0.271 OA
ATOM      5  H1  UNL     1      16.030  25.102  15.932  1.00  0.00     0.163 HD
BRANCH   3   6
HETATM    6  C5  UNL     1      14.392  22.940  15.433  1.00  0.00     0.207 C 
HETATM    7  C4  UNL     1      13.838  22.287  14.171  1.00  0.00     0.064 C 
HETATM    8  C3  UNL     1      12.470  21.852  14.696  1.00  0.00     0.115 C 
HETATM    9  N5  UNL     1      12.832  21.355  15.999  1.00  0.00    -0.230 N 
HETATM   10  N3  UNL     1      13.930  21.968  16.436  1.00  0.00    -0.222 N 
HETATM   11  C30 UNL     1      12.430  20.471  16.934  1.00  0.00     0.347 A 
HETATM   12  C28 UNL     1      14.185  21.445  17.645  1.00  0.00     0.348 A 
HETATM   13  O5  UNL     1      15.138  21.729  18.439  1.00  0.00    -0.245 OA
HETATM   14  N4  UNL     1      13.274  20.519  17.976  1.00  0.00    -0.253 N 
HETATM   15  C29 UNL     1      13.186  19.722  19.183  1.00  0.00     0.166 C 
HETATM   16  O6  UNL     1      11.428  19.709  16.872  1.00  0.00    -0.245 OA
BRANCH   8  17
HETATM   17  C2  UNL     1      11.864  20.777  13.840  1.00  0.00     0.023 C 
HETATM   18  C1  UNL     1      12.928  19.910  13.192  1.00  0.00     0.007 C 
ENDBRANCH   8  17
ENDBRANCH   3   6
ENDBRANCH   1   2
BRANCH   1  19
HETATM   19  C8  UNL     1      18.354  25.341  14.654  1.00  0.00     0.060 C 
BRANCH  19  20
HETATM   20  C9  UNL     1      19.380  26.321  15.054  1.00  0.00    -0.021 C 
HETATM   21  C10 UNL     1      20.683  26.089  14.886  1.00  0.00    -0.080 C 
HETATM   22  C11 UNL     1      21.084  24.800  14.276  1.00  0.00     0.044 C 
BRANCH  21  23
HETATM   23  C12 UNL     1      21.658  27.116  15.310  1.00  0.00    -0.029 C 
HETATM   24  C13 UNL     1      21.690  28.227  14.269  1.00  0.00     0.019 C 
HETATM   25  C14 UNL     1      23.025  26.566  15.595  1.00  0.00     0.019 C 
HETATM   26  C15 UNL     1      21.190  27.783  16.612  1.00  0.00     0.019 C 
ENDBRANCH  21  23
ENDBRANCH  19  20
ENDBRANCH   1  19
BRANCH   1  27
HETATM   27  C16 UNL     1      18.531  24.610  17.056  1.00  0.00     0.153 C 
HETATM   28  O2  UNL     1      17.943  25.490  17.659  1.00  0.00    -0.295 OA
BRANCH  27  29
HETATM   29  C17 UNL     1      19.641  23.927  17.678  1.00  0.00     0.121 C 
BRANCH  29  30
HETATM   30  C18 UNL     1      19.742  23.988  19.165  1.00  0.00     0.009 C 
BRANCH  30  31
HETATM   31  C19 UNL     1      21.108  24.284  19.642  1.00  0.00     0.247 C 
HETATM   32  O3  UNL     1      21.979  23.385  19.541  1.00  0.00    -0.268 OA
HETATM   33  N2  UNL     1      21.512  25.525  20.211  1.00  0.00    -0.348 N 
HETATM   34  C20 UNL     1      20.739  26.733  20.473  1.00  0.00     0.126 C 
HETATM   35  C23 UNL     1      22.847  25.856  20.664  1.00  0.00     0.126 C 
HETATM   36  C21 UNL     1      21.259  27.247  21.824  1.00  0.00     0.021 C 
HETATM   37  C22 UNL     1      22.615  26.621  21.971  1.00  0.00     0.021 C 
ENDBRANCH  30  31
BRANCH  30  38
HETATM   38  C24 UNL     1      18.990  23.034  19.989  1.00  0.00     0.035 C 
HETATM   39  C25 UNL     1      18.436  21.908  19.120  1.00  0.00     0.027 C 
HETATM   40  C26 UNL     1      19.633  22.480  21.213  1.00  0.00     0.027 C 
BRANCH  38  41
HETATM   41  C27 UNL     1      17.740  23.753  20.458  1.00  0.00     0.244 C 
HETATM   42  O4  UNL     1      17.751  24.805  21.032  1.00  0.00    -0.306 OA
ENDBRANCH  38  41
ENDBRANCH  30  38
ENDBRANCH  29  30
ENDBRANCH  27  29
ENDBRANCH   1  27
TORSDOF 12
ENDMDL
