MODEL 1
REMARK VINA RESULT: -7.943053463      0.000      0.000
REMARK  16 active torsions:
REMARK  status: ('A' for Active; 'I' for Inactive)
REMARK    1  A    between atoms: C2_2  and  C3_3 
REMARK    2  A    between atoms: C3_3  and  C4_4 
REMARK    3  A    between atoms: C9_9  and  O1_10 
REMARK    4  A    between atoms: O1_10  and  C10_11 
REMARK    5  A    between atoms: C10_11  and  C11_13 
REMARK    6  A    between atoms: C11_13  and  S1_14 
REMARK    7  A    between atoms: S1_14  and  C12_16 
REMARK    8  A    between atoms: C12_16  and  C13_17 
REMARK    9  A    between atoms: C13_17  and  N1_18 
REMARK       I    between atoms: N1_18  and  C15_20 
REMARK   10  A    between atoms: C19_26  and  O6_27 
REMARK   11  A    between atoms: C19_26  and  C25_34 
REMARK   12  A    between atoms: O6_27  and  C20_28 
REMARK   13  A    between atoms: C20_28  and  C21_30 
REMARK   14  A    between atoms: C25_34  and  O8_35 
REMARK   15  A    between atoms: N2_37  and  O9_39 
REMARK   16  A    between atoms: C26_41  and  C27_42 
ROOT
HETATM    1  C4  UNL     1      19.019  26.367  15.365  1.00  0.00    -0.003 C 
HETATM    2  C5  UNL     1      17.866  25.680  14.672  1.00  0.00     0.013 C 
HETATM    3  C6  UNL     1      17.262  25.423  16.056  1.00  0.00     0.026 C 
HETATM    4  C7  UNL     1      18.472  25.934  16.681  1.00  0.00     0.021 C 
HETATM    5  C8  UNL     1      19.313  25.011  17.423  1.00  0.00     0.014 C 
HETATM    6  C9  UNL     1      19.396  23.707  17.546  1.00  0.00     0.083 C 
HETATM    7  C17 UNL     1      18.592  22.669  16.907  1.00  0.00     0.190 C 
HETATM    8  O5  UNL     1      18.008  23.171  15.744  1.00  0.00    -0.369 OA
HETATM    9  C18 UNL     1      16.955  23.979  16.180  1.00  0.00     0.171 C 
HETATM   10  C19 UNL     1      16.411  23.469  17.468  1.00  0.00     0.172 C 
HETATM   11  C26 UNL     1      17.390  22.335  17.763  1.00  0.00     0.089 C 
ENDROOT
BRANCH  10  12
HETATM   12  O6  UNL     1      15.096  22.926  17.262  1.00  0.00    -0.297 OA
BRANCH  12  13
HETATM   13  C20 UNL     1      14.269  23.164  16.213  1.00  0.00     0.267 C 
HETATM   14  O7  UNL     1      13.739  24.293  16.083  1.00  0.00    -0.264 OA
BRANCH  13  15
HETATM   15  C21 UNL     1      13.949  22.133  15.180  1.00  0.00     0.037 C 
HETATM   16  C22 UNL     1      12.794  22.620  14.340  1.00  0.00     0.025 C 
HETATM   17  C23 UNL     1      13.489  20.839  15.845  1.00  0.00     0.025 C 
HETATM   18  C24 UNL     1      15.119  21.843  14.283  1.00  0.00     0.025 C 
ENDBRANCH  13  15
ENDBRANCH  12  13
ENDBRANCH  10  12
BRANCH  10  19
HETATM   19  C25 UNL     1      16.319  24.411  18.592  1.00  0.00     0.175 C 
HETATM   20  N2  UNL     1      17.112  24.375  19.597  1.00  0.00    -0.248 N 
ATOM     21  H2  UNL     1      17.837  23.657  19.611  1.00  0.00     0.196 HD
BRANCH  19  22
HETATM   22  O8  UNL     1      15.299  25.394  18.535  1.00  0.00    -0.346 OA
ATOM     23  H8  UNL     1      15.197  25.961  19.291  1.00  0.00     0.219 HD
ENDBRANCH  19  22
BRANCH  20  24
HETATM   24  O9  UNL     1      17.045  25.232  20.640  1.00  0.00    -0.288 OA
ATOM     25  H9  UNL     1      17.758  25.803  20.903  1.00  0.00     0.244 HD
ENDBRANCH  20  24
ENDBRANCH  10  19
BRANCH  11  26
HETATM   26  C27 UNL     1      16.918  21.002  17.418  1.00  0.00    -0.026 C 
HETATM   27  C28 UNL     1      16.130  20.265  18.173  1.00  0.00     0.007 C 
ENDBRANCH  11  26
BRANCH   6  28
HETATM   28  O1  UNL     1      20.377  23.207  18.392  1.00  0.00    -0.280 OA
BRANCH  28  29
HETATM   29  C10 UNL     1      20.619  23.667  19.669  1.00  0.00     0.275 C 
HETATM   30  O2  UNL     1      19.741  23.449  20.545  1.00  0.00    -0.264 OA
BRANCH  29  31
HETATM   31  C11 UNL     1      21.861  24.401  20.038  1.00  0.00     0.220 C 
BRANCH  31  32
HETATM   32  S1  UNL     1      21.488  26.114  20.414  1.00  0.00     0.025 S 
HETATM   33  O3  UNL     1      21.535  26.333  22.078  1.00  0.00    -0.258 OA
BRANCH  32  34
HETATM   34  C12 UNL     1      22.762  27.091  19.616  1.00  0.00     0.129 C 
BRANCH  34  35
HETATM   35  C13 UNL     1      23.138  26.355  18.346  1.00  0.00     0.137 C 
BRANCH  35  36
HETATM   36  N1  UNL     1      24.560  26.113  18.247  1.00  0.00    -0.356 N 
HETATM   37  C14 UNL     1      25.389  25.882  19.400  1.00  0.00     0.152 C 
HETATM   38  C15 UNL     1      25.157  26.107  16.961  1.00  0.00     0.215 C 
HETATM   39  C16 UNL     1      26.617  25.866  16.770  1.00  0.00     0.117 C 
HETATM   40  O4  UNL     1      24.466  26.305  15.936  1.00  0.00    -0.274 OA
ENDBRANCH  35  36
ENDBRANCH  34  35
ENDBRANCH  32  34
ENDBRANCH  31  32
ENDBRANCH  29  31
ENDBRANCH  28  29
ENDBRANCH   6  28
BRANCH   1  41
HETATM   41  C3  UNL     1      20.322  25.761  14.911  1.00  0.00     0.031 C 
BRANCH  41  42
HETATM   42  C2  UNL     1      21.234  26.927  14.605  1.00  0.00    -0.037 C 
HETATM   43  C1  UNL     1      20.784  28.174  14.645  1.00  0.00     0.007 C 
ENDBRANCH  41  42
ENDBRANCH   1  41
TORSDOF 16
ENDMDL
MODEL 2
REMARK VINA RESULT: -7.857290356      1.935      2.526
REMARK  16 active torsions:
REMARK  status: ('A' for Active; 'I' for Inactive)
REMARK    1  A    between atoms: C2_2  and  C3_3 
REMARK    2  A    between atoms: C3_3  and  C4_4 
REMARK    3  A    between atoms: C9_9  and  O1_10 
REMARK    4  A    between atoms: O1_10  and  C10_11 
REMARK    5  A    between atoms: C10_11  and  C11_13 
REMARK    6  A    between atoms: C11_13  and  S1_14 
REMARK    7  A    between atoms: S1_14  and  C12_16 
REMARK    8  A    between atoms: C12_16  and  C13_17 
REMARK    9  A    between atoms: C13_17  and  N1_18 
REMARK       I    between atoms: N1_18  and  C15_20 
REMARK   10  A    between atoms: C19_26  and  O6_27 
REMARK   11  A    between atoms: C19_26  and  C25_34 
REMARK   12  A    between atoms: O6_27  and  C20_28 
REMARK   13  A    between atoms: C20_28  and  C21_30 
REMARK   14  A    between atoms: C25_34  and  O8_35 
REMARK   15  A    between atoms: N2_37  and  O9_39 
REMARK   16  A    between atoms: C26_41  and  C27_42 
ROOT
HETATM    1  C4  UNL     1      18.011  24.566  15.476  1.00  0.00    -0.003 C 
HETATM    2  C5  UNL     1      17.072  23.775  14.596  1.00  0.00     0.013 C 
HETATM    3  C6  UNL     1      16.147  23.631  15.808  1.00  0.00     0.026 C 
HETATM    4  C7  UNL     1      17.159  24.243  16.655  1.00  0.00     0.021 C 
HETATM    5  C8  UNL     1      17.800  23.426  17.670  1.00  0.00     0.014 C 
HETATM    6  C9  UNL     1      17.865  22.144  17.943  1.00  0.00     0.083 C 
HETATM    7  C17 UNL     1      17.254  21.021  17.236  1.00  0.00     0.190 C 
HETATM    8  O5  UNL     1      16.971  21.388  15.920  1.00  0.00    -0.369 OA
HETATM    9  C18 UNL     1      15.834  22.197  16.001  1.00  0.00     0.171 C 
HETATM   10  C19 UNL     1      14.994  21.794  17.161  1.00  0.00     0.172 C 
HETATM   11  C26 UNL     1      15.881  20.730  17.801  1.00  0.00     0.089 C 
ENDROOT
BRANCH  10  12
HETATM   12  O6  UNL     1      13.776  21.189  16.696  1.00  0.00    -0.297 OA
BRANCH  12  13
HETATM   13  C20 UNL     1      13.016  21.585  15.645  1.00  0.00     0.267 C 
HETATM   14  O7  UNL     1      12.931  22.804  15.363  1.00  0.00    -0.264 OA
BRANCH  13  15
HETATM   15  C21 UNL     1      12.258  20.628  14.782  1.00  0.00     0.037 C 
HETATM   16  C22 UNL     1      11.096  21.352  14.149  1.00  0.00     0.025 C 
HETATM   17  C23 UNL     1      11.664  19.505  15.629  1.00  0.00     0.025 C 
HETATM   18  C24 UNL     1      13.115  20.035  13.701  1.00  0.00     0.025 C 
ENDBRANCH  13  15
ENDBRANCH  12  13
ENDBRANCH  10  12
BRANCH  10  19
HETATM   19  C25 UNL     1      14.617  22.837  18.125  1.00  0.00     0.175 C 
HETATM   20  N2  UNL     1      14.051  23.933  17.779  1.00  0.00    -0.248 N 
ATOM     21  H2  UNL     1      13.857  24.081  16.788  1.00  0.00     0.196 HD
BRANCH  19  22
HETATM   22  O8  UNL     1      14.902  22.595  19.492  1.00  0.00    -0.346 OA
ATOM     23  H8  UNL     1      14.627  21.761  19.855  1.00  0.00     0.219 HD
ENDBRANCH  19  22
BRANCH  20  24
HETATM   24  O9  UNL     1      13.696  24.905  18.648  1.00  0.00    -0.288 OA
ATOM     25  H9  UNL     1      12.807  25.046  18.951  1.00  0.00     0.244 HD
ENDBRANCH  20  24
ENDBRANCH  10  19
BRANCH  11  26
HETATM   26  C27 UNL     1      15.522  19.353  17.489  1.00  0.00    -0.026 C 
HETATM   27  C28 UNL     1      14.925  18.526  18.321  1.00  0.00     0.007 C 
ENDBRANCH  11  26
BRANCH   6  28
HETATM   28  O1  UNL     1      18.610  21.762  19.049  1.00  0.00    -0.280 OA
BRANCH  28  29
HETATM   29  C10 UNL     1      19.137  22.635  19.978  1.00  0.00     0.275 C 
HETATM   30  O2  UNL     1      18.437  22.905  20.989  1.00  0.00    -0.264 OA
BRANCH  29  31
HETATM   31  C11 UNL     1      20.481  23.259  19.826  1.00  0.00     0.220 C 
BRANCH  31  32
HETATM   32  S1  UNL     1      20.377  25.034  20.052  1.00  0.00     0.025 S 
HETATM   33  O3  UNL     1      21.709  25.554  20.933  1.00  0.00    -0.258 OA
BRANCH  32  34
HETATM   34  C12 UNL     1      20.395  25.750  18.408  1.00  0.00     0.129 C 
BRANCH  34  35
HETATM   35  C13 UNL     1      20.997  27.134  18.548  1.00  0.00     0.137 C 
BRANCH  35  36
HETATM   36  N1  UNL     1      22.113  27.345  17.654  1.00  0.00    -0.356 N 
HETATM   37  C14 UNL     1      23.432  26.836  17.926  1.00  0.00     0.152 C 
HETATM   38  C15 UNL     1      21.896  28.085  16.463  1.00  0.00     0.215 C 
HETATM   39  C16 UNL     1      22.994  28.348  15.487  1.00  0.00     0.117 C 
HETATM   40  O4  UNL     1      20.763  28.542  16.194  1.00  0.00    -0.274 OA
ENDBRANCH  35  36
ENDBRANCH  34  35
ENDBRANCH  32  34
ENDBRANCH  31  32
ENDBRANCH  29  31
ENDBRANCH  28  29
ENDBRANCH   6  28
BRANCH   1  41
HETATM   41  C3  UNL     1      19.392  23.965  15.418  1.00  0.00     0.031 C 
BRANCH  41  42
HETATM   42  C2  UNL     1      20.250  24.975  14.693  1.00  0.00    -0.037 C 
HETATM   43  C1  UNL     1      19.715  26.057  14.143  1.00  0.00     0.007 C 
ENDBRANCH  41  42
ENDBRANCH   1  41
TORSDOF 16
ENDMDL
MODEL 3
REMARK VINA RESULT: -7.767617821      0.915      1.058
REMARK  16 active torsions:
REMARK  status: ('A' for Active; 'I' for Inactive)
REMARK    1  A    between atoms: C2_2  and  C3_3 
REMARK    2  A    between atoms: C3_3  and  C4_4 
REMARK    3  A    between atoms: C9_9  and  O1_10 
REMARK    4  A    between atoms: O1_10  and  C10_11 
REMARK    5  A    between atoms: C10_11  and  C11_13 
REMARK    6  A    between atoms: C11_13  and  S1_14 
REMARK    7  A    between atoms: S1_14  and  C12_16 
REMARK    8  A    between atoms: C12_16  and  C13_17 
REMARK    9  A    between atoms: C13_17  and  N1_18 
REMARK       I    between atoms: N1_18  and  C15_20 
REMARK   10  A    between atoms: C19_26  and  O6_27 
REMARK   11  A    between atoms: C19_26  and  C25_34 
REMARK   12  A    between atoms: O6_27  and  C20_28 
REMARK   13  A    between atoms: C20_28  and  C21_30 
REMARK   14  A    between atoms: C25_34  and  O8_35 
REMARK   15  A    between atoms: N2_37  and  O9_39 
REMARK   16  A    between atoms: C26_41  and  C27_42 
ROOT
HETATM    1  C4  UNL     1      18.956  26.339  15.373  1.00  0.00    -0.003 C 
HETATM    2  C5  UNL     1      17.806  25.655  14.673  1.00  0.00     0.013 C 
HETATM    3  C6  UNL     1      17.202  25.383  16.054  1.00  0.00     0.026 C 
HETATM    4  C7  UNL     1      18.408  25.894  16.684  1.00  0.00     0.021 C 
HETATM    5  C8  UNL     1      19.251  24.967  17.420  1.00  0.00     0.014 C 
HETATM    6  C9  UNL     1      19.339  23.663  17.532  1.00  0.00     0.083 C 
HETATM    7  C17 UNL     1      18.539  22.627  16.884  1.00  0.00     0.190 C 
HETATM    8  O5  UNL     1      17.956  23.137  15.724  1.00  0.00    -0.369 OA
HETATM    9  C18 UNL     1      16.899  23.938  16.166  1.00  0.00     0.171 C 
HETATM   10  C19 UNL     1      16.355  23.415  17.449  1.00  0.00     0.172 C 
HETATM   11  C26 UNL     1      17.337  22.283  17.735  1.00  0.00     0.089 C 
ENDROOT
BRANCH  10  12
HETATM   12  O6  UNL     1      15.042  22.870  17.236  1.00  0.00    -0.297 OA
BRANCH  12  13
HETATM   13  C20 UNL     1      14.218  23.111  16.186  1.00  0.00     0.267 C 
HETATM   14  O7  UNL     1      13.698  24.244  16.050  1.00  0.00    -0.264 OA
BRANCH  13  15
HETATM   15  C21 UNL     1      13.886  22.078  15.157  1.00  0.00     0.037 C 
HETATM   16  C22 UNL     1      12.723  22.564  14.329  1.00  0.00     0.025 C 
HETATM   17  C23 UNL     1      13.435  20.784  15.830  1.00  0.00     0.025 C 
HETATM   18  C24 UNL     1      15.047  21.787  14.250  1.00  0.00     0.025 C 
ENDBRANCH  13  15
ENDBRANCH  12  13
ENDBRANCH  10  12
BRANCH  10  19
HETATM   19  C25 UNL     1      16.258  24.348  18.579  1.00  0.00     0.175 C 
HETATM   20  N2  UNL     1      17.062  24.319  19.576  1.00  0.00    -0.248 N 
ATOM     21  H2  UNL     1      17.799  23.614  19.578  1.00  0.00     0.196 HD
BRANCH  19  22
HETATM   22  O8  UNL     1      15.222  25.314  18.540  1.00  0.00    -0.346 OA
ATOM     23  H8  UNL     1      14.449  25.148  19.068  1.00  0.00     0.219 HD
ENDBRANCH  19  22
BRANCH  20  24
HETATM   24  O9  UNL     1      16.991  25.168  20.626  1.00  0.00    -0.288 OA
ATOM     25  H9  UNL     1      17.096  24.900  21.532  1.00  0.00     0.244 HD
ENDBRANCH  20  24
ENDBRANCH  10  19
BRANCH  11  26
HETATM   26  C27 UNL     1      16.870  20.950  17.379  1.00  0.00    -0.026 C 
HETATM   27  C28 UNL     1      16.097  20.199  18.134  1.00  0.00     0.007 C 
ENDBRANCH  11  26
BRANCH   6  28
HETATM   28  O1  UNL     1      20.320  23.159  18.375  1.00  0.00    -0.280 OA
BRANCH  28  29
HETATM   29  C10 UNL     1      20.510  23.557  19.682  1.00  0.00     0.275 C 
HETATM   30  O2  UNL     1      19.627  23.244  20.523  1.00  0.00    -0.264 OA
BRANCH  29  31
HETATM   31  C11 UNL     1      21.703  24.332  20.122  1.00  0.00     0.220 C 
BRANCH  31  32
HETATM   32  S1  UNL     1      21.222  25.978  20.648  1.00  0.00     0.025 S 
HETATM   33  O3  UNL     1      22.095  26.392  22.021  1.00  0.00    -0.258 OA
BRANCH  32  34
HETATM   34  C12 UNL     1      21.628  27.077  19.291  1.00  0.00     0.129 C 
BRANCH  34  35
HETATM   35  C13 UNL     1      22.562  26.307  18.379  1.00  0.00     0.137 C 
BRANCH  35  36
HETATM   36  N1  UNL     1      23.744  27.065  18.031  1.00  0.00    -0.356 N 
HETATM   37  C14 UNL     1      23.818  27.891  16.856  1.00  0.00     0.152 C 
HETATM   38  C15 UNL     1      24.874  26.985  18.885  1.00  0.00     0.215 C 
HETATM   39  C16 UNL     1      26.132  27.734  18.601  1.00  0.00     0.117 C 
HETATM   40  O4  UNL     1      24.845  26.276  19.917  1.00  0.00    -0.274 OA
ENDBRANCH  35  36
ENDBRANCH  34  35
ENDBRANCH  32  34
ENDBRANCH  31  32
ENDBRANCH  29  31
ENDBRANCH  28  29
ENDBRANCH   6  28
BRANCH   1  41
HETATM   41  C3  UNL     1      20.262  25.742  14.915  1.00  0.00     0.031 C 
BRANCH  41  42
HETATM   42  C2  UNL     1      21.139  26.912  14.536  1.00  0.00    -0.037 C 
HETATM   43  C1  UNL     1      20.660  28.148  14.519  1.00  0.00     0.007 C 
ENDBRANCH  41  42
ENDBRANCH   1  41
TORSDOF 16
ENDMDL
MODEL 4
REMARK VINA RESULT: -7.753029012      4.989     10.909
REMARK  16 active torsions:
REMARK  status: ('A' for Active; 'I' for Inactive)
REMARK    1  A    between atoms: C2_2  and  C3_3 
REMARK    2  A    between atoms: C3_3  and  C4_4 
REMARK    3  A    between atoms: C9_9  and  O1_10 
REMARK    4  A    between atoms: O1_10  and  C10_11 
REMARK    5  A    between atoms: C10_11  and  C11_13 
REMARK    6  A    between atoms: C11_13  and  S1_14 
REMARK    7  A    between atoms: S1_14  and  C12_16 
REMARK    8  A    between atoms: C12_16  and  C13_17 
REMARK    9  A    between atoms: C13_17  and  N1_18 
REMARK       I    between atoms: N1_18  and  C15_20 
REMARK   10  A    between atoms: C19_26  and  O6_27 
REMARK   11  A    between atoms: C19_26  and  C25_34 
REMARK   12  A    between atoms: O6_27  and  C20_28 
REMARK   13  A    between atoms: C20_28  and  C21_30 
REMARK   14  A    between atoms: C25_34  and  O8_35 
REMARK   15  A    between atoms: N2_37  and  O9_39 
REMARK   16  A    between atoms: C26_41  and  C27_42 
ROOT
HETATM    1  C4  UNL     1      13.734  19.441  18.968  1.00  0.00    -0.003 C 
HETATM    2  C5  UNL     1      15.126  19.455  18.383  1.00  0.00     0.013 C 
HETATM    3  C6  UNL     1      14.871  20.903  17.956  1.00  0.00     0.026 C 
HETATM    4  C7  UNL     1      13.483  20.785  18.375  1.00  0.00     0.021 C 
HETATM    5  C8  UNL     1      12.446  20.824  17.359  1.00  0.00     0.014 C 
HETATM    6  C9  UNL     1      12.409  20.746  16.049  1.00  0.00     0.083 C 
HETATM    7  C17 UNL     1      13.511  20.572  15.107  1.00  0.00     0.190 C 
HETATM    8  O5  UNL     1      14.604  19.999  15.758  1.00  0.00    -0.369 OA
HETATM    9  C18 UNL     1      15.167  21.033  16.511  1.00  0.00     0.171 C 
HETATM   10  C19 UNL     1      14.936  22.344  15.844  1.00  0.00     0.172 C 
HETATM   11  C26 UNL     1      14.051  21.918  14.676  1.00  0.00     0.089 C 
ENDROOT
BRANCH  10  12
HETATM   12  O6  UNL     1      16.178  22.862  15.342  1.00  0.00    -0.297 OA
BRANCH  12  13
HETATM   13  C20 UNL     1      17.389  22.817  15.953  1.00  0.00     0.267 C 
HETATM   14  O7  UNL     1      17.923  21.708  16.195  1.00  0.00    -0.264 OA
BRANCH  13  15
HETATM   15  C21 UNL     1      18.140  24.043  16.362  1.00  0.00     0.037 C 
HETATM   16  C22 UNL     1      19.532  23.982  15.786  1.00  0.00     0.025 C 
HETATM   17  C23 UNL     1      18.295  24.089  17.880  1.00  0.00     0.025 C 
HETATM   18  C24 UNL     1      17.470  25.303  15.893  1.00  0.00     0.025 C 
ENDBRANCH  13  15
ENDBRANCH  12  13
ENDBRANCH  10  12
BRANCH  10  19
HETATM   19  C25 UNL     1      14.310  23.411  16.637  1.00  0.00     0.175 C 
HETATM   20  N2  UNL     1      14.763  23.788  17.775  1.00  0.00    -0.248 N 
ATOM     21  H2  UNL     1      15.594  23.322  18.140  1.00  0.00     0.196 HD
BRANCH  19  22
HETATM   22  O8  UNL     1      13.159  24.035  16.097  1.00  0.00    -0.346 OA
ATOM     23  H8  UNL     1      12.565  24.458  16.705  1.00  0.00     0.219 HD
ENDBRANCH  19  22
BRANCH  20  24
HETATM   24  O9  UNL     1      14.204  24.768  18.520  1.00  0.00    -0.288 OA
ATOM     25  H9  UNL     1      13.709  24.611  19.316  1.00  0.00     0.244 HD
ENDBRANCH  20  24
ENDBRANCH  10  19
BRANCH  11  26
HETATM   26  C27 UNL     1      14.737  21.767  13.400  1.00  0.00    -0.026 C 
HETATM   27  C28 UNL     1      14.247  22.138  12.236  1.00  0.00     0.007 C 
ENDBRANCH  11  26
BRANCH   6  28
HETATM   28  O1  UNL     1      11.166  20.835  15.439  1.00  0.00    -0.280 OA
BRANCH  28  29
HETATM   29  C10 UNL     1      10.227  19.826  15.423  1.00  0.00     0.275 C 
HETATM   30  O2  UNL     1       9.027  20.140  15.638  1.00  0.00    -0.264 OA
BRANCH  29  31
HETATM   31  C11 UNL     1      10.580  18.401  15.166  1.00  0.00     0.220 C 
BRANCH  31  32
HETATM   32  S1  UNL     1      10.522  18.049  13.408  1.00  0.00     0.025 S 
HETATM   33  O3  UNL     1      12.046  18.295  12.749  1.00  0.00    -0.258 OA
BRANCH  32  34
HETATM   34  C12 UNL     1      10.044  16.328  13.258  1.00  0.00     0.129 C 
BRANCH  34  35
HETATM   35  C13 UNL     1      10.929  15.550  14.210  1.00  0.00     0.137 C 
BRANCH  35  36
HETATM   36  N1  UNL     1      10.176  14.655  15.060  1.00  0.00    -0.356 N 
HETATM   37  C14 UNL     1       9.226  13.708  14.540  1.00  0.00     0.152 C 
HETATM   38  C15 UNL     1      10.383  14.720  16.462  1.00  0.00     0.215 C 
HETATM   39  C16 UNL     1       9.647  13.833  17.409  1.00  0.00     0.117 C 
HETATM   40  O4  UNL     1      11.201  15.531  16.950  1.00  0.00    -0.274 OA
ENDBRANCH  35  36
ENDBRANCH  34  35
ENDBRANCH  32  34
ENDBRANCH  31  32
ENDBRANCH  29  31
ENDBRANCH  28  29
ENDBRANCH   6  28
BRANCH   1  41
HETATM   41  C3  UNL     1      12.959  18.272  18.416  1.00  0.00     0.031 C 
BRANCH  41  42
HETATM   42  C2  UNL     1      12.356  17.575  19.614  1.00  0.00    -0.037 C 
HETATM   43  C1  UNL     1      12.327  18.163  20.802  1.00  0.00     0.007 C 
ENDBRANCH  41  42
ENDBRANCH   1  41
TORSDOF 16
ENDMDL
MODEL 5
REMARK VINA RESULT: -7.622841140      4.962     10.580
REMARK  16 active torsions:
REMARK  status: ('A' for Active; 'I' for Inactive)
REMARK    1  A    between atoms: C2_2  and  C3_3 
REMARK    2  A    between atoms: C3_3  and  C4_4 
REMARK    3  A    between atoms: C9_9  and  O1_10 
REMARK    4  A    between atoms: O1_10  and  C10_11 
REMARK    5  A    between atoms: C10_11  and  C11_13 
REMARK    6  A    between atoms: C11_13  and  S1_14 
REMARK    7  A    between atoms: S1_14  and  C12_16 
REMARK    8  A    between atoms: C12_16  and  C13_17 
REMARK    9  A    between atoms: C13_17  and  N1_18 
REMARK       I    between atoms: N1_18  and  C15_20 
REMARK   10  A    between atoms: C19_26  and  O6_27 
REMARK   11  A    between atoms: C19_26  and  C25_34 
REMARK   12  A    between atoms: O6_27  and  C20_28 
REMARK   13  A    between atoms: C20_28  and  C21_30 
REMARK   14  A    between atoms: C25_34  and  O8_35 
REMARK   15  A    between atoms: N2_37  and  O9_39 
REMARK   16  A    between atoms: C26_41  and  C27_42 
ROOT
HETATM    1  C4  UNL     1      13.773  19.446  19.099  1.00  0.00    -0.003 C 
HETATM    2  C5  UNL     1      15.156  19.461  18.492  1.00  0.00     0.013 C 
HETATM    3  C6  UNL     1      14.881  20.899  18.042  1.00  0.00     0.026 C 
HETATM    4  C7  UNL     1      13.502  20.776  18.485  1.00  0.00     0.021 C 
HETATM    5  C8  UNL     1      12.449  20.788  17.484  1.00  0.00     0.014 C 
HETATM    6  C9  UNL     1      12.393  20.685  16.177  1.00  0.00     0.083 C 
HETATM    7  C17 UNL     1      13.482  20.502  15.221  1.00  0.00     0.190 C 
HETATM    8  O5  UNL     1      14.589  19.951  15.865  1.00  0.00    -0.369 OA
HETATM    9  C18 UNL     1      15.155  21.004  16.590  1.00  0.00     0.171 C 
HETATM   10  C19 UNL     1      14.902  22.299  15.903  1.00  0.00     0.172 C 
HETATM   11  C26 UNL     1      14.003  21.844  14.757  1.00  0.00     0.089 C 
ENDROOT
BRANCH  10  12
HETATM   12  O6  UNL     1      16.132  22.818  15.372  1.00  0.00    -0.297 OA
BRANCH  12  13
HETATM   13  C20 UNL     1      17.359  22.760  15.947  1.00  0.00     0.267 C 
HETATM   14  O7  UNL     1      17.879  21.646  16.194  1.00  0.00    -0.264 OA
BRANCH  13  15
HETATM   15  C21 UNL     1      18.146  23.979  16.311  1.00  0.00     0.037 C 
HETATM   16  C22 UNL     1      18.228  24.080  17.814  1.00  0.00     0.025 C 
HETATM   17  C23 UNL     1      17.431  25.237  15.826  1.00  0.00     0.025 C 
HETATM   18  C24 UNL     1      19.536  23.948  15.744  1.00  0.00     0.025 C 
ENDBRANCH  13  15
ENDBRANCH  12  13
ENDBRANCH  10  12
BRANCH  10  19
HETATM   19  C25 UNL     1      14.280  23.376  16.686  1.00  0.00     0.175 C 
HETATM   20  N2  UNL     1      14.749  23.783  17.806  1.00  0.00    -0.248 N 
ATOM     21  H2  UNL     1      15.593  23.334  18.164  1.00  0.00     0.196 HD
BRANCH  19  22
HETATM   22  O8  UNL     1      13.110  23.976  16.155  1.00  0.00    -0.346 OA
ATOM     23  H8  UNL     1      12.338  23.428  16.070  1.00  0.00     0.219 HD
ENDBRANCH  19  22
BRANCH  20  24
HETATM   24  O9  UNL     1      14.194  24.771  18.541  1.00  0.00    -0.288 OA
ATOM     25  H9  UNL     1      13.450  24.648  19.119  1.00  0.00     0.244 HD
ENDBRANCH  20  24
ENDBRANCH  10  19
BRANCH  11  26
HETATM   26  C27 UNL     1      14.670  21.675  13.474  1.00  0.00    -0.026 C 
HETATM   27  C28 UNL     1      14.204  22.110  12.322  1.00  0.00     0.007 C 
ENDBRANCH  11  26
BRANCH   6  28
HETATM   28  O1  UNL     1      11.140  20.752  15.584  1.00  0.00    -0.280 OA
BRANCH  28  29
HETATM   29  C10 UNL     1      10.166  19.783  15.699  1.00  0.00     0.275 C 
HETATM   30  O2  UNL     1       8.963  20.151  15.634  1.00  0.00    -0.264 OA
BRANCH  29  31
HETATM   31  C11 UNL     1      10.484  18.341  15.895  1.00  0.00     0.220 C 
BRANCH  31  32
HETATM   32  S1  UNL     1      10.182  17.422  14.386  1.00  0.00     0.025 S 
HETATM   33  O3  UNL     1       8.629  16.786  14.432  1.00  0.00    -0.258 OA
BRANCH  32  34
HETATM   34  C12 UNL     1      10.338  18.598  13.042  1.00  0.00     0.129 C 
BRANCH  34  35
HETATM   35  C13 UNL     1      11.632  18.266  12.327  1.00  0.00     0.137 C 
BRANCH  35  36
HETATM   36  N1  UNL     1      11.430  17.384  11.200  1.00  0.00    -0.356 N 
HETATM   37  C14 UNL     1      10.431  17.627  10.193  1.00  0.00     0.152 C 
HETATM   38  C15 UNL     1      12.252  16.233  11.086  1.00  0.00     0.215 C 
HETATM   39  C16 UNL     1      12.110  15.271   9.954  1.00  0.00     0.117 C 
HETATM   40  O4  UNL     1      13.131  15.990  11.943  1.00  0.00    -0.274 OA
ENDBRANCH  35  36
ENDBRANCH  34  35
ENDBRANCH  32  34
ENDBRANCH  31  32
ENDBRANCH  29  31
ENDBRANCH  28  29
ENDBRANCH   6  28
BRANCH   1  41
HETATM   41  C3  UNL     1      13.000  18.260  18.581  1.00  0.00     0.031 C 
BRANCH  41  42
HETATM   42  C2  UNL     1      12.356  17.628  19.792  1.00  0.00    -0.037 C 
HETATM   43  C1  UNL     1      12.359  18.243  20.967  1.00  0.00     0.007 C 
ENDBRANCH  41  42
ENDBRANCH   1  41
TORSDOF 16
ENDMDL
