MODEL 1
REMARK VINA RESULT: -8.848809178      0.000      0.000
REMARK  13 active torsions:
REMARK  status: ('A' for Active; 'I' for Inactive)
REMARK    1  A    between atoms: C2_2  and  C3_3 
REMARK    2  A    between atoms: C2_2  and  C6_9 
REMARK    3  A    between atoms: C3_3  and  O2_5 
REMARK    4  A    between atoms: O2_5  and  C4_6 
REMARK    5  A    between atoms: C6_9  and  C7_10 
REMARK    6  A    between atoms: C6_9  and  O4_13 
REMARK    7  A    between atoms: C7_10  and  C8_11 
REMARK    8  A    between atoms: O4_13  and  C10_14 
REMARK    9  A    between atoms: C10_14  and  C11_15 
REMARK   10  A    between atoms: C11_15  and  C12_16 
REMARK   11  A    between atoms: C11_15  and  C15_19 
REMARK   12  A    between atoms: C12_16  and  C13_17 
REMARK   13  A    between atoms: C18_25  and  C19_26 
ROOT
HETATM    1  C15 UNL     1      21.065  35.172  17.168  1.00  0.00     0.170 C 
HETATM    2  O5  UNL     1      20.246  34.992  18.278  1.00  0.00    -0.305 OA
HETATM    3  C16 UNL     1      18.884  35.262  18.310  1.00  0.00     0.332 C 
HETATM    4  O6  UNL     1      18.192  34.522  19.098  1.00  0.00    -0.256 OA
HETATM    5  C17 UNL     1      18.182  36.262  17.566  1.00  0.00     0.246 C 
HETATM    6  O7  UNL     1      17.141  35.882  16.917  1.00  0.00    -0.284 OA
HETATM    7  C18 UNL     1      18.498  37.698  17.442  1.00  0.00     0.164 C 
HETATM    8  N1  UNL     1      19.072  38.252  18.643  1.00  0.00    -0.347 N 
ATOM      9  H1  UNL     1      18.990  37.683  19.485  1.00  0.00     0.163 HD
HETATM   10  C21 UNL     1      19.726  39.470  18.786  1.00  0.00     0.240 C 
HETATM   11  O8  UNL     1      19.453  40.180  19.815  1.00  0.00    -0.271 OA
HETATM   12  C22 UNL     1      20.726  40.065  17.868  1.00  0.00     0.172 C 
HETATM   13  C23 UNL     1      20.028  41.275  17.230  1.00  0.00     0.042 C 
HETATM   14  N2  UNL     1      21.924  40.484  18.565  1.00  0.00    -0.348 N 
ATOM     15  H2  UNL     1      22.241  41.436  18.379  1.00  0.00     0.163 HD
HETATM   16  C24 UNL     1      22.694  39.745  19.457  1.00  0.00     0.225 C 
HETATM   17  O9  UNL     1      23.027  40.259  20.564  1.00  0.00    -0.273 OA
HETATM   18  C25 UNL     1      23.198  38.340  19.238  1.00  0.00     0.096 C 
HETATM   19  C26 UNL     1      24.664  38.375  19.725  1.00  0.00     0.024 C 
HETATM   20  C27 UNL     1      23.141  37.993  17.803  1.00  0.00    -0.017 C 
HETATM   21  C28 UNL     1      22.858  36.909  17.188  1.00  0.00    -0.023 C 
HETATM   22  C29 UNL     1      22.473  35.554  17.618  1.00  0.00     0.038 C 
HETATM   23  C30 UNL     1      22.554  35.268  19.086  1.00  0.00     0.017 C 
ENDROOT
BRANCH   1  24
HETATM   24  C11 UNL     1      20.974  34.090  16.185  1.00  0.00    -0.028 C 
BRANCH  24  25
HETATM   25  C10 UNL     1      20.405  32.778  16.450  1.00  0.00     0.141 C 
BRANCH  25  26
HETATM   26  O4  UNL     1      19.504  32.076  15.850  1.00  0.00    -0.353 OA
BRANCH  26  27
HETATM   27  C6  UNL     1      18.815  32.313  14.723  1.00  0.00     0.166 C 
BRANCH  27  28
HETATM   28  C2  UNL     1      19.156  31.349  13.630  1.00  0.00     0.037 C 
HETATM   29  C1  UNL     1      18.316  30.417  13.275  1.00  0.00     0.028 C 
BRANCH  28  30
HETATM   30  C3  UNL     1      20.427  31.406  12.986  1.00  0.00     0.298 C 
HETATM   31  O1  UNL     1      20.673  32.067  11.935  1.00  0.00    -0.259 OA
BRANCH  30  32
HETATM   32  O2  UNL     1      21.507  30.706  13.507  1.00  0.00    -0.241 OA
BRANCH  32  33
HETATM   33  C4  UNL     1      21.725  29.364  13.296  1.00  0.00     0.262 C 
HETATM   34  C5  UNL     1      22.196  28.886  11.961  1.00  0.00     0.126 C 
HETATM   35  O3  UNL     1      21.519  28.572  14.242  1.00  0.00    -0.265 OA
ENDBRANCH  32  33
ENDBRANCH  30  32
ENDBRANCH  28  30
ENDBRANCH  27  28
BRANCH  27  36
HETATM   36  C7  UNL     1      17.375  32.463  15.011  1.00  0.00     0.037 C 
BRANCH  36  37
HETATM   37  C8  UNL     1      16.876  32.169  16.388  1.00  0.00    -0.002 C 
HETATM   38  C9  UNL     1      15.584  32.729  16.826  1.00  0.00     0.005 C 
ENDBRANCH  36  37
ENDBRANCH  27  36
ENDBRANCH  26  27
ENDBRANCH  25  26
ENDBRANCH  24  25
BRANCH  24  39
HETATM   39  C12 UNL     1      22.147  33.961  15.226  1.00  0.00     0.038 C 
BRANCH  39  40
HETATM   40  C13 UNL     1      23.091  32.857  15.476  1.00  0.00    -0.000 C 
HETATM   41  C14 UNL     1      24.529  33.259  15.060  1.00  0.00     0.005 C 
ENDBRANCH  39  40
ENDBRANCH  24  39
ENDBRANCH   1  24
BRANCH   7  42
HETATM   42  C19 UNL     1      17.201  38.493  17.201  1.00  0.00     0.029 C 
HETATM   43  C20 UNL     1      16.401  38.638  18.463  1.00  0.00     0.007 C 
ENDBRANCH   7  42
TORSDOF 13
ENDMDL
MODEL 2
REMARK VINA RESULT: -8.785956500      4.540     11.254
REMARK  13 active torsions:
REMARK  status: ('A' for Active; 'I' for Inactive)
REMARK    1  A    between atoms: C2_2  and  C3_3 
REMARK    2  A    between atoms: C2_2  and  C6_9 
REMARK    3  A    between atoms: C3_3  and  O2_5 
REMARK    4  A    between atoms: O2_5  and  C4_6 
REMARK    5  A    between atoms: C6_9  and  C7_10 
REMARK    6  A    between atoms: C6_9  and  O4_13 
REMARK    7  A    between atoms: C7_10  and  C8_11 
REMARK    8  A    between atoms: O4_13  and  C10_14 
REMARK    9  A    between atoms: C10_14  and  C11_15 
REMARK   10  A    between atoms: C11_15  and  C12_16 
REMARK   11  A    between atoms: C11_15  and  C15_19 
REMARK   12  A    between atoms: C12_16  and  C13_17 
REMARK   13  A    between atoms: C18_25  and  C19_26 
ROOT
HETATM    1  C15 UNL     1      18.864  29.358  12.806  1.00  0.00     0.170 C 
HETATM    2  O5  UNL     1      19.140  28.636  13.962  1.00  0.00    -0.305 OA
HETATM    3  C16 UNL     1      20.398  28.510  14.537  1.00  0.00     0.332 C 
HETATM    4  O6  UNL     1      20.412  28.379  15.813  1.00  0.00    -0.256 OA
HETATM    5  C17 UNL     1      21.660  28.513  13.865  1.00  0.00     0.246 C 
HETATM    6  O7  UNL     1      22.561  29.308  14.319  1.00  0.00    -0.284 OA
HETATM    7  C18 UNL     1      22.076  27.711  12.697  1.00  0.00     0.164 C 
HETATM    8  N1  UNL     1      21.481  26.397  12.679  1.00  0.00    -0.347 N 
ATOM      9  H1  UNL     1      21.043  26.089  13.547  1.00  0.00     0.163 HD
HETATM   10  C21 UNL     1      21.435  25.503  11.617  1.00  0.00     0.240 C 
HETATM   11  O8  UNL     1      21.675  24.269  11.860  1.00  0.00    -0.271 OA
HETATM   12  C22 UNL     1      21.134  25.810  10.198  1.00  0.00     0.172 C 
HETATM   13  C23 UNL     1      22.456  25.600   9.444  1.00  0.00     0.042 C 
HETATM   14  N2  UNL     1      20.105  24.946   9.659  1.00  0.00    -0.348 N 
ATOM     15  H2  UNL     1      20.320  24.490   8.773  1.00  0.00     0.163 HD
HETATM   16  C24 UNL     1      18.858  24.663  10.206  1.00  0.00     0.225 C 
HETATM   17  O9  UNL     1      18.477  23.460  10.292  1.00  0.00    -0.273 OA
HETATM   18  C25 UNL     1      17.868  25.676  10.727  1.00  0.00     0.096 C 
HETATM   19  C26 UNL     1      16.504  25.201  10.180  1.00  0.00     0.024 C 
HETATM   20  C27 UNL     1      18.191  27.020  10.207  1.00  0.00    -0.017 C 
HETATM   21  C28 UNL     1      18.127  28.185  10.729  1.00  0.00    -0.023 C 
HETATM   22  C29 UNL     1      17.714  28.701  12.045  1.00  0.00     0.038 C 
HETATM   23  C30 UNL     1      17.078  27.718  12.980  1.00  0.00     0.017 C 
ENDROOT
BRANCH   1  24
HETATM   24  C11 UNL     1      18.749  30.801  13.025  1.00  0.00    -0.028 C 
BRANCH  24  25
HETATM   25  C10 UNL     1      19.876  31.706  13.186  1.00  0.00     0.141 C 
BRANCH  25  26
HETATM   26  O4  UNL     1      20.682  31.936  14.166  1.00  0.00    -0.353 OA
BRANCH  26  27
HETATM   27  C6  UNL     1      20.911  33.056  14.869  1.00  0.00     0.166 C 
BRANCH  27  28
HETATM   28  C2  UNL     1      20.671  32.870  16.335  1.00  0.00     0.037 C 
HETATM   29  C1  UNL     1      20.909  31.724  16.910  1.00  0.00     0.028 C 
BRANCH  28  30
HETATM   30  C3  UNL     1      20.138  33.933  17.122  1.00  0.00     0.298 C 
HETATM   31  O1  UNL     1      20.696  35.057  17.289  1.00  0.00    -0.259 OA
BRANCH  30  32
HETATM   32  O2  UNL     1      18.922  33.778  17.774  1.00  0.00    -0.241 OA
BRANCH  32  33
HETATM   33  C4  UNL     1      18.107  34.824  18.137  1.00  0.00     0.262 C 
HETATM   34  C5  UNL     1      17.229  35.475  17.119  1.00  0.00     0.126 C 
HETATM   35  O3  UNL     1      18.125  35.206  19.329  1.00  0.00    -0.265 OA
ENDBRANCH  32  33
ENDBRANCH  30  32
ENDBRANCH  28  30
ENDBRANCH  27  28
BRANCH  27  36
HETATM   36  C7  UNL     1      22.214  33.646  14.508  1.00  0.00     0.037 C 
BRANCH  36  37
HETATM   37  C8  UNL     1      23.428  32.776  14.503  1.00  0.00    -0.002 C 
HETATM   38  C9  UNL     1      24.656  33.240  15.175  1.00  0.00     0.005 C 
ENDBRANCH  36  37
ENDBRANCH  27  36
ENDBRANCH  26  27
ENDBRANCH  25  26
ENDBRANCH  24  25
BRANCH  24  39
HETATM   39  C12 UNL     1      17.594  31.252  13.904  1.00  0.00     0.038 C 
BRANCH  39  40
HETATM   40  C13 UNL     1      17.721  30.994  15.351  1.00  0.00    -0.000 C 
HETATM   41  C14 UNL     1      16.718  31.861  16.154  1.00  0.00     0.005 C 
ENDBRANCH  39  40
ENDBRANCH  24  39
ENDBRANCH   1  24
BRANCH   7  42
HETATM   42  C19 UNL     1      23.597  27.474  12.750  1.00  0.00     0.029 C 
HETATM   43  C20 UNL     1      24.260  27.866  11.461  1.00  0.00     0.007 C 
ENDBRANCH   7  42
TORSDOF 13
ENDMDL
MODEL 3
REMARK VINA RESULT: -8.764742361      0.982      1.331
REMARK  13 active torsions:
REMARK  status: ('A' for Active; 'I' for Inactive)
REMARK    1  A    between atoms: C2_2  and  C3_3 
REMARK    2  A    between atoms: C2_2  and  C6_9 
REMARK    3  A    between atoms: C3_3  and  O2_5 
REMARK    4  A    between atoms: O2_5  and  C4_6 
REMARK    5  A    between atoms: C6_9  and  C7_10 
REMARK    6  A    between atoms: C6_9  and  O4_13 
REMARK    7  A    between atoms: C7_10  and  C8_11 
REMARK    8  A    between atoms: O4_13  and  C10_14 
REMARK    9  A    between atoms: C10_14  and  C11_15 
REMARK   10  A    between atoms: C11_15  and  C12_16 
REMARK   11  A    between atoms: C11_15  and  C15_19 
REMARK   12  A    between atoms: C12_16  and  C13_17 
REMARK   13  A    between atoms: C18_25  and  C19_26 
ROOT
HETATM    1  C15 UNL     1      20.803  35.270  17.149  1.00  0.00     0.170 C 
HETATM    2  O5  UNL     1      19.979  35.148  18.264  1.00  0.00    -0.305 OA
HETATM    3  C16 UNL     1      18.645  35.531  18.309  1.00  0.00     0.332 C 
HETATM    4  O6  UNL     1      17.898  34.844  19.095  1.00  0.00    -0.256 OA
HETATM    5  C17 UNL     1      18.025  36.595  17.580  1.00  0.00     0.246 C 
HETATM    6  O7  UNL     1      16.951  36.312  16.936  1.00  0.00    -0.284 OA
HETATM    7  C18 UNL     1      18.461  38.001  17.468  1.00  0.00     0.164 C 
HETATM    8  N1  UNL     1      19.088  38.491  18.671  1.00  0.00    -0.347 N 
ATOM      9  H1  UNL     1      18.963  37.922  19.508  1.00  0.00     0.163 HD
HETATM   10  C21 UNL     1      19.843  39.648  18.822  1.00  0.00     0.240 C 
HETATM   11  O8  UNL     1      19.638  40.368  19.860  1.00  0.00    -0.271 OA
HETATM   12  C22 UNL     1      20.884  40.166  17.902  1.00  0.00     0.172 C 
HETATM   13  C23 UNL     1      20.287  41.438  17.281  1.00  0.00     0.042 C 
HETATM   14  N2  UNL     1      22.118  40.475  18.593  1.00  0.00    -0.348 N 
ATOM     15  H2  UNL     1      22.513  41.398  18.416  1.00  0.00     0.163 HD
HETATM   16  C24 UNL     1      22.829  39.663  19.472  1.00  0.00     0.225 C 
HETATM   17  O9  UNL     1      23.211  40.136  20.582  1.00  0.00    -0.273 OA
HETATM   18  C25 UNL     1      23.210  38.223  19.235  1.00  0.00     0.096 C 
HETATM   19  C26 UNL     1      24.677  38.129  19.711  1.00  0.00     0.024 C 
HETATM   20  C27 UNL     1      23.114  37.898  17.797  1.00  0.00    -0.017 C 
HETATM   21  C28 UNL     1      22.736  36.848  17.174  1.00  0.00    -0.023 C 
HETATM   22  C29 UNL     1      22.241  35.526  17.592  1.00  0.00     0.038 C 
HETATM   23  C30 UNL     1      22.307  35.219  19.057  1.00  0.00     0.017 C 
ENDROOT
BRANCH   1  24
HETATM   24  C11 UNL     1      20.614  34.210  16.157  1.00  0.00    -0.028 C 
BRANCH  24  25
HETATM   25  C10 UNL     1      19.370  33.488  15.943  1.00  0.00     0.141 C 
BRANCH  25  26
HETATM   26  O4  UNL     1      18.883  32.861  14.926  1.00  0.00    -0.353 OA
BRANCH  26  27
HETATM   27  C6  UNL     1      17.941  31.908  14.852  1.00  0.00     0.166 C 
BRANCH  27  28
HETATM   28  C2  UNL     1      18.499  30.585  14.430  1.00  0.00     0.037 C 
HETATM   29  C1  UNL     1      19.082  29.800  15.292  1.00  0.00     0.028 C 
BRANCH  28  30
HETATM   30  C3  UNL     1      18.440  30.178  13.064  1.00  0.00     0.298 C 
HETATM   31  O1  UNL     1      17.378  29.868  12.449  1.00  0.00    -0.259 OA
BRANCH  30  32
HETATM   32  O2  UNL     1      19.601  30.099  12.308  1.00  0.00    -0.241 OA
BRANCH  32  33
HETATM   33  C4  UNL     1      20.673  30.949  12.456  1.00  0.00     0.262 C 
HETATM   34  C5  UNL     1      21.958  30.437  13.019  1.00  0.00     0.126 C 
HETATM   35  O3  UNL     1      20.537  32.144  12.111  1.00  0.00    -0.265 OA
ENDBRANCH  32  33
ENDBRANCH  30  32
ENDBRANCH  28  30
ENDBRANCH  27  28
BRANCH  27  36
HETATM   36  C7  UNL     1      17.117  31.889  16.077  1.00  0.00     0.037 C 
BRANCH  36  37
HETATM   37  C8  UNL     1      15.802  32.599  16.078  1.00  0.00    -0.002 C 
HETATM   38  C9  UNL     1      15.381  33.340  17.281  1.00  0.00     0.005 C 
ENDBRANCH  36  37
ENDBRANCH  27  36
ENDBRANCH  26  27
ENDBRANCH  25  26
ENDBRANCH  24  25
BRANCH  24  39
HETATM   39  C12 UNL     1      21.796  33.277  15.946  1.00  0.00     0.038 C 
BRANCH  39  40
HETATM   40  C13 UNL     1      22.586  33.474  14.717  1.00  0.00    -0.000 C 
HETATM   41  C14 UNL     1      24.083  33.157  14.969  1.00  0.00     0.005 C 
ENDBRANCH  39  40
ENDBRANCH  24  39
ENDBRANCH   1  24
BRANCH   7  42
HETATM   42  C19 UNL     1      17.234  38.905  17.245  1.00  0.00     0.029 C 
HETATM   43  C20 UNL     1      16.461  39.107  18.516  1.00  0.00     0.007 C 
ENDBRANCH   7  42
TORSDOF 13
ENDMDL
MODEL 4
REMARK VINA RESULT: -8.655952809      1.896      3.638
REMARK  13 active torsions:
REMARK  status: ('A' for Active; 'I' for Inactive)
REMARK    1  A    between atoms: C2_2  and  C3_3 
REMARK    2  A    between atoms: C2_2  and  C6_9 
REMARK    3  A    between atoms: C3_3  and  O2_5 
REMARK    4  A    between atoms: O2_5  and  C4_6 
REMARK    5  A    between atoms: C6_9  and  C7_10 
REMARK    6  A    between atoms: C6_9  and  O4_13 
REMARK    7  A    between atoms: C7_10  and  C8_11 
REMARK    8  A    between atoms: O4_13  and  C10_14 
REMARK    9  A    between atoms: C10_14  and  C11_15 
REMARK   10  A    between atoms: C11_15  and  C12_16 
REMARK   11  A    between atoms: C11_15  and  C15_19 
REMARK   12  A    between atoms: C12_16  and  C13_17 
REMARK   13  A    between atoms: C18_25  and  C19_26 
ROOT
HETATM    1  C15 UNL     1      21.420  36.114  17.212  1.00  0.00     0.170 C 
HETATM    2  O5  UNL     1      21.437  36.082  18.603  1.00  0.00    -0.305 OA
HETATM    3  C16 UNL     1      20.364  35.705  19.400  1.00  0.00     0.332 C 
HETATM    4  O6  UNL     1      20.671  35.151  20.516  1.00  0.00    -0.256 OA
HETATM    5  C17 UNL     1      18.972  35.867  19.111  1.00  0.00     0.246 C 
HETATM    6  O7  UNL     1      18.225  34.831  19.241  1.00  0.00    -0.284 OA
HETATM    7  C18 UNL     1      18.265  37.089  18.677  1.00  0.00     0.164 C 
HETATM    8  N1  UNL     1      18.822  38.291  19.247  1.00  0.00    -0.347 N 
ATOM      9  H1  UNL     1      19.462  38.164  20.031  1.00  0.00     0.163 HD
HETATM   10  C21 UNL     1      18.587  39.602  18.853  1.00  0.00     0.240 C 
HETATM   11  O8  UNL     1      18.402  40.480  19.766  1.00  0.00    -0.271 OA
HETATM   12  C22 UNL     1      18.522  40.124  17.466  1.00  0.00     0.172 C 
HETATM   13  C23 UNL     1      17.050  40.499  17.238  1.00  0.00     0.042 C 
HETATM   14  N2  UNL     1      19.371  41.282  17.279  1.00  0.00    -0.348 N 
ATOM     15  H2  UNL     1      18.933  42.094  16.846  1.00  0.00     0.163 HD
HETATM   16  C24 UNL     1      20.713  41.418  17.620  1.00  0.00     0.225 C 
HETATM   17  O9  UNL     1      21.090  42.442  18.260  1.00  0.00    -0.273 OA
HETATM   18  C25 UNL     1      21.814  40.439  17.294  1.00  0.00     0.096 C 
HETATM   19  C26 UNL     1      22.989  41.322  16.821  1.00  0.00     0.024 C 
HETATM   20  C27 UNL     1      21.385  39.530  16.212  1.00  0.00    -0.017 C 
HETATM   21  C28 UNL     1      21.593  38.287  15.997  1.00  0.00    -0.023 C 
HETATM   22  C29 UNL     1      22.331  37.229  16.707  1.00  0.00     0.038 C 
HETATM   23  C30 UNL     1      23.172  37.664  17.869  1.00  0.00     0.017 C 
ENDROOT
BRANCH   1  24
HETATM   24  C11 UNL     1      21.603  34.802  16.589  1.00  0.00    -0.028 C 
BRANCH  24  25
HETATM   25  C10 UNL     1      20.536  33.842  16.351  1.00  0.00     0.141 C 
BRANCH  25  26
HETATM   26  O4  UNL     1      19.956  33.423  15.277  1.00  0.00    -0.353 OA
BRANCH  26  27
HETATM   27  C6  UNL     1      19.927  32.204  14.716  1.00  0.00     0.166 C 
BRANCH  27  28
HETATM   28  C2  UNL     1      18.584  31.554  14.833  1.00  0.00     0.037 C 
HETATM   29  C1  UNL     1      18.032  30.973  13.805  1.00  0.00     0.028 C 
BRANCH  28  30
HETATM   30  C3  UNL     1      17.864  31.596  16.063  1.00  0.00     0.298 C 
HETATM   31  O1  UNL     1      18.321  31.212  17.179  1.00  0.00    -0.259 OA
BRANCH  30  32
HETATM   32  O2  UNL     1      16.565  32.083  16.096  1.00  0.00    -0.241 OA
BRANCH  32  33
HETATM   33  C4  UNL     1      16.235  33.365  16.472  1.00  0.00     0.262 C 
HETATM   34  C5  UNL     1      16.626  34.520  15.610  1.00  0.00     0.126 C 
HETATM   35  O3  UNL     1      15.607  33.528  17.543  1.00  0.00    -0.265 OA
ENDBRANCH  32  33
ENDBRANCH  30  32
ENDBRANCH  28  30
ENDBRANCH  27  28
BRANCH  27  36
HETATM   36  C7  UNL     1      20.501  32.238  13.357  1.00  0.00     0.037 C 
BRANCH  36  37
HETATM   37  C8  UNL     1      21.631  31.320  13.023  1.00  0.00    -0.002 C 
HETATM   38  C9  UNL     1      21.973  30.224  13.949  1.00  0.00     0.005 C 
ENDBRANCH  36  37
ENDBRANCH  27  36
ENDBRANCH  26  27
ENDBRANCH  25  26
ENDBRANCH  24  25
BRANCH  24  39
HETATM   39  C12 UNL     1      22.887  34.069  16.943  1.00  0.00     0.038 C 
BRANCH  39  40
HETATM   40  C13 UNL     1      23.219  32.882  16.133  1.00  0.00    -0.000 C 
HETATM   41  C14 UNL     1      24.228  33.245  15.014  1.00  0.00     0.005 C 
ENDBRANCH  39  40
ENDBRANCH  24  39
ENDBRANCH   1  24
BRANCH   7  42
HETATM   42  C19 UNL     1      16.805  37.039  19.163  1.00  0.00     0.029 C 
HETATM   43  C20 UNL     1      15.841  37.084  18.012  1.00  0.00     0.007 C 
ENDBRANCH   7  42
TORSDOF 13
ENDMDL
MODEL 5
REMARK VINA RESULT: -8.621639822      1.553      2.049
REMARK  13 active torsions:
REMARK  status: ('A' for Active; 'I' for Inactive)
REMARK    1  A    between atoms: C2_2  and  C3_3 
REMARK    2  A    between atoms: C2_2  and  C6_9 
REMARK    3  A    between atoms: C3_3  and  O2_5 
REMARK    4  A    between atoms: O2_5  and  C4_6 
REMARK    5  A    between atoms: C6_9  and  C7_10 
REMARK    6  A    between atoms: C6_9  and  O4_13 
REMARK    7  A    between atoms: C7_10  and  C8_11 
REMARK    8  A    between atoms: O4_13  and  C10_14 
REMARK    9  A    between atoms: C10_14  and  C11_15 
REMARK   10  A    between atoms: C11_15  and  C12_16 
REMARK   11  A    between atoms: C11_15  and  C15_19 
REMARK   12  A    between atoms: C12_16  and  C13_17 
REMARK   13  A    between atoms: C18_25  and  C19_26 
ROOT
HETATM    1  C15 UNL     1      21.366  36.029  17.270  1.00  0.00     0.170 C 
HETATM    2  O5  UNL     1      21.370  36.037  18.661  1.00  0.00    -0.305 OA
HETATM    3  C16 UNL     1      20.284  35.697  19.459  1.00  0.00     0.332 C 
HETATM    4  O6  UNL     1      20.575  35.170  20.593  1.00  0.00    -0.256 OA
HETATM    5  C17 UNL     1      18.898  35.867  19.151  1.00  0.00     0.246 C 
HETATM    6  O7  UNL     1      18.137  34.844  19.303  1.00  0.00    -0.284 OA
HETATM    7  C18 UNL     1      18.210  37.084  18.675  1.00  0.00     0.164 C 
HETATM    8  N1  UNL     1      18.776  38.295  19.216  1.00  0.00    -0.347 N 
ATOM      9  H1  UNL     1      19.407  38.183  20.009  1.00  0.00     0.163 HD
HETATM   10  C21 UNL     1      18.561  39.597  18.782  1.00  0.00     0.240 C 
HETATM   11  O8  UNL     1      18.378  40.503  19.667  1.00  0.00    -0.271 OA
HETATM   12  C22 UNL     1      18.517  40.080  17.380  1.00  0.00     0.172 C 
HETATM   13  C23 UNL     1      17.051  40.466  17.127  1.00  0.00     0.042 C 
HETATM   14  N2  UNL     1      19.381  41.221  17.169  1.00  0.00    -0.348 N 
ATOM     15  H2  UNL     1      18.958  42.026  16.708  1.00  0.00     0.163 HD
HETATM   16  C24 UNL     1      20.722  41.351  17.519  1.00  0.00     0.225 C 
HETATM   17  O9  UNL     1      21.104  42.389  18.133  1.00  0.00    -0.273 OA
HETATM   18  C25 UNL     1      21.813  40.349  17.232  1.00  0.00     0.096 C 
HETATM   19  C26 UNL     1      23.004  41.205  16.746  1.00  0.00     0.024 C 
HETATM   20  C27 UNL     1      21.384  39.415  16.172  1.00  0.00    -0.017 C 
HETATM   21  C28 UNL     1      21.578  38.164  15.995  1.00  0.00    -0.023 C 
HETATM   22  C29 UNL     1      22.296  37.118  16.743  1.00  0.00     0.038 C 
HETATM   23  C30 UNL     1      23.131  37.577  17.900  1.00  0.00     0.017 C 
ENDROOT
BRANCH   1  24
HETATM   24  C11 UNL     1      21.539  34.697  16.687  1.00  0.00    -0.028 C 
BRANCH  24  25
HETATM   25  C10 UNL     1      20.602  33.596  16.845  1.00  0.00     0.141 C 
BRANCH  25  26
HETATM   26  O4  UNL     1      19.525  33.264  16.219  1.00  0.00    -0.353 OA
BRANCH  26  27
HETATM   27  C6  UNL     1      19.197  33.370  14.922  1.00  0.00     0.166 C 
BRANCH  27  28
HETATM   28  C2  UNL     1      19.326  32.069  14.192  1.00  0.00     0.037 C 
HETATM   29  C1  UNL     1      18.519  31.078  14.447  1.00  0.00     0.028 C 
BRANCH  28  30
HETATM   30  C3  UNL     1      20.364  31.878  13.232  1.00  0.00     0.298 C 
HETATM   31  O1  UNL     1      20.320  32.279  12.033  1.00  0.00    -0.259 OA
BRANCH  30  32
HETATM   32  O2  UNL     1      21.528  31.210  13.587  1.00  0.00    -0.241 OA
BRANCH  32  33
HETATM   33  C4  UNL     1      21.771  29.886  13.301  1.00  0.00     0.262 C 
HETATM   34  C5  UNL     1      21.750  28.870  14.396  1.00  0.00     0.126 C 
HETATM   35  O3  UNL     1      22.006  29.567  12.114  1.00  0.00    -0.265 OA
ENDBRANCH  32  33
ENDBRANCH  30  32
ENDBRANCH  28  30
ENDBRANCH  27  28
BRANCH  27  36
HETATM   36  C7  UNL     1      17.904  34.063  14.762  1.00  0.00     0.037 C 
BRANCH  36  37
HETATM   37  C8  UNL     1      17.002  34.200  15.945  1.00  0.00    -0.002 C 
HETATM   38  C9  UNL     1      15.927  33.214  16.154  1.00  0.00     0.005 C 
ENDBRANCH  36  37
ENDBRANCH  27  36
ENDBRANCH  26  27
ENDBRANCH  25  26
ENDBRANCH  24  25
BRANCH  24  39
HETATM   39  C12 UNL     1      22.963  34.164  16.653  1.00  0.00     0.038 C 
BRANCH  39  40
HETATM   40  C13 UNL     1      23.188  32.918  15.897  1.00  0.00    -0.000 C 
HETATM   41  C14 UNL     1      24.263  33.127  14.801  1.00  0.00     0.005 C 
ENDBRANCH  39  40
ENDBRANCH  24  39
ENDBRANCH   1  24
BRANCH   7  42
HETATM   42  C19 UNL     1      16.745  37.066  19.147  1.00  0.00     0.029 C 
HETATM   43  C20 UNL     1      15.793  37.011  17.987  1.00  0.00     0.007 C 
ENDBRANCH   7  42
TORSDOF 13
ENDMDL
