MODEL 1
REMARK VINA RESULT: -9.276522547      0.000      0.000
REMARK  12 active torsions:
REMARK  status: ('A' for Active; 'I' for Inactive)
REMARK    1  A    between atoms: O1_2  and  C2_3 
REMARK    2  A    between atoms: C3_4  and  C4_5 
REMARK    3  A    between atoms: C4_5  and  N1_6 
REMARK    4  A    between atoms: N2_9  and  C7_10 
REMARK    5  A    between atoms: C7_10  and  C8_11 
REMARK    6  A    between atoms: C14_17  and  C15_18 
REMARK    7  A    between atoms: C17_22  and  C18_23 
REMARK    8  A    between atoms: C21_28  and  N5_29 
REMARK    9  A    between atoms: N5_29  and  C22_31 
REMARK   10  A    between atoms: C22_31  and  C23_32 
REMARK   11  A    between atoms: C23_32  and  C24_33 
REMARK   12  A    between atoms: C24_33  and  N6_34 
ROOT
HETATM    1  C18 UNL     1      21.192  29.836  14.043  1.00  0.00     0.122 A 
HETATM    2  N4  UNL     1      21.731  31.069  13.782  1.00  0.00    -0.338 N 
ATOM      3  H4  UNL     1      22.198  31.329  12.914  1.00  0.00     0.167 HD
HETATM    4  C19 UNL     1      21.554  31.887  14.838  1.00  0.00     0.083 A 
HETATM    5  C20 UNL     1      21.910  33.215  15.078  1.00  0.00     0.083 A 
HETATM    6  C21 UNL     1      21.583  33.785  16.282  1.00  0.00     0.117 A 
HETATM    7  N7  UNL     1      20.919  32.978  17.169  1.00  0.00    -0.284 N 
ATOM      8  H7  UNL     1      20.663  33.373  18.074  1.00  0.00     0.188 HD
HETATM    9  N8  UNL     1      20.591  31.731  16.930  1.00  0.00    -0.282 N 
ATOM     10  H8  UNL     1      20.095  31.205  17.649  1.00  0.00     0.188 HD
HETATM   11  C30 UNL     1      20.886  31.123  15.767  1.00  0.00     0.150 A 
HETATM   12  N9  UNL     1      20.671  29.865  15.266  1.00  0.00    -0.320 N 
HETATM   13  C31 UNL     1      20.020  28.808  16.036  1.00  0.00     0.159 C 
ENDROOT
BRANCH   1  14
HETATM   14  C17 UNL     1      21.313  28.758  13.072  1.00  0.00     0.043 A 
HETATM   15  C2  UNL     1      20.345  28.409  12.180  1.00  0.00     0.090 A 
HETATM   16  C3  UNL     1      20.540  27.399  11.194  1.00  0.00    -0.005 A 
HETATM   17  C13 UNL     1      21.763  26.787  11.185  1.00  0.00     0.028 A 
HETATM   18  C14 UNL     1      22.789  27.097  12.065  1.00  0.00     0.030 A 
HETATM   19  C16 UNL     1      22.538  28.070  12.983  1.00  0.00     0.034 A 
BRANCH  15  20
HETATM   20  O1  UNL     1      19.115  28.997  12.148  1.00  0.00    -0.354 OA
HETATM   21  C1  UNL     1      18.033  28.830  13.019  1.00  0.00     0.210 C 
ENDBRANCH  15  20
BRANCH  16  22
HETATM   22  C4  UNL     1      19.431  27.114  10.250  1.00  0.00     0.158 C 
BRANCH  22  23
HETATM   23  N1  UNL     1      18.513  26.161  10.748  1.00  0.00    -0.405 N 
HETATM   24  C5  UNL     1      17.146  26.318  10.410  1.00  0.00     0.147 C 
HETATM   25  C6  UNL     1      16.656  25.380   9.326  1.00  0.00     0.291 C 
HETATM   26  N2  UNL     1      17.014  24.007   9.621  1.00  0.00     0.091 N 
HETATM   27  C11 UNL     1      18.472  23.967   9.653  1.00  0.00     0.291 C 
HETATM   28  C12 UNL     1      18.993  24.803  10.797  1.00  0.00     0.147 C 
BRANCH  26  29
HETATM   29  C7  UNL     1      16.435  23.639  10.875  1.00  0.00     0.276 C 
BRANCH  29  30
HETATM   30  C8  UNL     1      15.514  22.437  10.750  1.00  0.00     0.006 C 
HETATM   31  C9  UNL     1      14.249  22.748  10.005  1.00  0.00     0.011 C 
HETATM   32  C10 UNL     1      15.165  21.956  12.139  1.00  0.00     0.011 C 
ENDBRANCH  29  30
ENDBRANCH  26  29
ENDBRANCH  22  23
ENDBRANCH  16  22
BRANCH  18  33
HETATM   33  C15 UNL     1      24.065  26.384  11.977  1.00  0.00     0.265 C 
HETATM   34  N3  UNL     1      25.287  27.068  11.917  1.00  0.00    -0.057 NA
HETATM   35  O2  UNL     1      24.080  25.117  11.953  1.00  0.00    -0.271 OA
ENDBRANCH  18  33
ENDBRANCH   1  14
BRANCH   6  36
HETATM   36  N5  UNL     1      21.858  34.996  16.616  1.00  0.00    -0.375 N 
ATOM     37  H5  UNL     1      22.452  35.538  15.989  1.00  0.00     0.161 HD
BRANCH  36  38
HETATM   38  C22 UNL     1      21.392  35.632  17.798  1.00  0.00     0.123 C 
BRANCH  38  39
HETATM   39  C23 UNL     1      20.128  36.467  17.526  1.00  0.00     0.039 C 
BRANCH  39  40
HETATM   40  C24 UNL     1      18.953  35.861  18.242  1.00  0.00     0.118 C 
BRANCH  40  41
HETATM   41  N6  UNL     1      17.897  35.490  17.372  1.00  0.00    -0.412 N 
HETATM   42  C25 UNL     1      17.403  34.155  17.596  1.00  0.00     0.117 C 
HETATM   43  C26 UNL     1      15.995  34.021  17.007  1.00  0.00     0.019 C 
HETATM   44  C27 UNL     1      15.106  34.864  17.893  1.00  0.00     0.003 C 
HETATM   45  C28 UNL     1      15.604  36.269  17.892  1.00  0.00     0.019 C 
HETATM   46  C29 UNL     1      16.878  36.431  17.095  1.00  0.00     0.117 C 
ENDBRANCH  40  41
ENDBRANCH  39  40
ENDBRANCH  38  39
ENDBRANCH  36  38
ENDBRANCH   6  36
TORSDOF 12
ENDMDL
MODEL 2
REMARK VINA RESULT: -9.253845784      1.696      2.710
REMARK  12 active torsions:
REMARK  status: ('A' for Active; 'I' for Inactive)
REMARK    1  A    between atoms: O1_2  and  C2_3 
REMARK    2  A    between atoms: C3_4  and  C4_5 
REMARK    3  A    between atoms: C4_5  and  N1_6 
REMARK    4  A    between atoms: N2_9  and  C7_10 
REMARK    5  A    between atoms: C7_10  and  C8_11 
REMARK    6  A    between atoms: C14_17  and  C15_18 
REMARK    7  A    between atoms: C17_22  and  C18_23 
REMARK    8  A    between atoms: C21_28  and  N5_29 
REMARK    9  A    between atoms: N5_29  and  C22_31 
REMARK   10  A    between atoms: C22_31  and  C23_32 
REMARK   11  A    between atoms: C23_32  and  C24_33 
REMARK   12  A    between atoms: C24_33  and  N6_34 
ROOT
HETATM    1  C18 UNL     1      21.352  30.224  14.110  1.00  0.00     0.122 A 
HETATM    2  N4  UNL     1      21.682  30.309  15.438  1.00  0.00    -0.338 N 
ATOM      3  H4  UNL     1      22.013  29.530  16.007  1.00  0.00     0.167 HD
HETATM    4  C19 UNL     1      21.505  31.569  15.881  1.00  0.00     0.083 A 
HETATM    5  C20 UNL     1      21.691  32.170  17.127  1.00  0.00     0.083 A 
HETATM    6  C21 UNL     1      21.417  33.506  17.271  1.00  0.00     0.117 A 
HETATM    7  N7  UNL     1      20.971  34.152  16.147  1.00  0.00    -0.284 N 
ATOM      8  H7  UNL     1      20.757  35.147  16.221  1.00  0.00     0.188 HD
HETATM    9  N8  UNL     1      20.801  33.574  14.982  1.00  0.00    -0.282 N 
ATOM     10  H8  UNL     1      20.465  34.134  14.198  1.00  0.00     0.188 HD
HETATM   11  C30 UNL     1      21.054  32.268  14.786  1.00  0.00     0.150 A 
HETATM   12  N9  UNL     1      20.963  31.429  13.705  1.00  0.00    -0.320 N 
HETATM   13  C31 UNL     1      20.472  31.870  12.402  1.00  0.00     0.159 C 
ENDROOT
BRANCH   1  14
HETATM   14  C17 UNL     1      21.402  28.945  13.418  1.00  0.00     0.043 A 
HETATM   15  C2  UNL     1      20.312  28.276  12.950  1.00  0.00     0.090 A 
HETATM   16  C3  UNL     1      20.417  27.065  12.205  1.00  0.00    -0.005 A 
HETATM   17  C13 UNL     1      21.683  26.599  11.980  1.00  0.00     0.028 A 
HETATM   18  C14 UNL     1      22.832  27.232  12.429  1.00  0.00     0.030 A 
HETATM   19  C16 UNL     1      22.662  28.384  13.134  1.00  0.00     0.034 A 
BRANCH  15  20
HETATM   20  O1  UNL     1      19.034  28.708  13.144  1.00  0.00    -0.354 OA
HETATM   21  C1  UNL     1      18.270  28.708  14.316  1.00  0.00     0.210 C 
ENDBRANCH  15  20
BRANCH  16  22
HETATM   22  C4  UNL     1      19.169  26.430  11.715  1.00  0.00     0.158 C 
BRANCH  22  23
HETATM   23  N1  UNL     1      18.894  26.726  10.360  1.00  0.00    -0.405 N 
HETATM   24  C5  UNL     1      19.545  25.951   9.367  1.00  0.00     0.147 C 
HETATM   25  C6  UNL     1      18.670  24.897   8.721  1.00  0.00     0.291 C 
HETATM   26  N2  UNL     1      17.416  25.462   8.268  1.00  0.00     0.091 N 
HETATM   27  C11 UNL     1      16.743  25.963   9.461  1.00  0.00     0.291 C 
HETATM   28  C12 UNL     1      17.533  27.097  10.069  1.00  0.00     0.147 C 
BRANCH  26  29
HETATM   29  C7  UNL     1      17.692  26.503   7.327  1.00  0.00     0.276 C 
BRANCH  29  30
HETATM   30  C8  UNL     1      18.070  25.954   5.962  1.00  0.00     0.006 C 
HETATM   31  C9  UNL     1      19.356  26.527   5.439  1.00  0.00     0.011 C 
HETATM   32  C10 UNL     1      16.957  26.275   4.992  1.00  0.00     0.011 C 
ENDBRANCH  29  30
ENDBRANCH  26  29
ENDBRANCH  22  23
ENDBRANCH  16  22
BRANCH  18  33
HETATM   33  C15 UNL     1      24.145  26.654  12.138  1.00  0.00     0.265 C 
HETATM   34  N3  UNL     1      24.301  25.289  11.857  1.00  0.00    -0.057 NA
HETATM   35  O2  UNL     1      25.175  27.392  12.138  1.00  0.00    -0.271 OA
ENDBRANCH  18  33
ENDBRANCH   1  14
BRANCH   6  36
HETATM   36  N5  UNL     1      21.550  34.167  18.366  1.00  0.00    -0.375 N 
ATOM     37  H5  UNL     1      22.065  33.724  19.127  1.00  0.00     0.161 HD
BRANCH  36  38
HETATM   38  C22 UNL     1      21.030  35.470  18.590  1.00  0.00     0.123 C 
BRANCH  38  39
HETATM   39  C23 UNL     1      19.536  35.424  18.956  1.00  0.00     0.039 C 
BRANCH  39  40
HETATM   40  C24 UNL     1      18.759  36.328  18.040  1.00  0.00     0.118 C 
BRANCH  40  41
HETATM   41  N6  UNL     1      17.773  35.645  17.283  1.00  0.00    -0.412 N 
HETATM   42  C25 UNL     1      17.549  34.288  17.714  1.00  0.00     0.117 C 
HETATM   43  C26 UNL     1      16.180  33.811  17.220  1.00  0.00     0.019 C 
HETATM   44  C27 UNL     1      15.167  34.593  18.025  1.00  0.00     0.003 C 
HETATM   45  C28 UNL     1      15.386  36.051  17.805  1.00  0.00     0.019 C 
HETATM   46  C29 UNL     1      16.588  36.329  16.931  1.00  0.00     0.117 C 
ENDBRANCH  40  41
ENDBRANCH  39  40
ENDBRANCH  38  39
ENDBRANCH  36  38
ENDBRANCH   6  36
TORSDOF 12
ENDMDL
MODEL 3
REMARK VINA RESULT: -9.229873581      1.699      2.798
REMARK  12 active torsions:
REMARK  status: ('A' for Active; 'I' for Inactive)
REMARK    1  A    between atoms: O1_2  and  C2_3 
REMARK    2  A    between atoms: C3_4  and  C4_5 
REMARK    3  A    between atoms: C4_5  and  N1_6 
REMARK    4  A    between atoms: N2_9  and  C7_10 
REMARK    5  A    between atoms: C7_10  and  C8_11 
REMARK    6  A    between atoms: C14_17  and  C15_18 
REMARK    7  A    between atoms: C17_22  and  C18_23 
REMARK    8  A    between atoms: C21_28  and  N5_29 
REMARK    9  A    between atoms: N5_29  and  C22_31 
REMARK   10  A    between atoms: C22_31  and  C23_32 
REMARK   11  A    between atoms: C23_32  and  C24_33 
REMARK   12  A    between atoms: C24_33  and  N6_34 
ROOT
HETATM    1  C18 UNL     1      21.459  30.146  14.068  1.00  0.00     0.122 A 
HETATM    2  N4  UNL     1      21.766  30.230  15.401  1.00  0.00    -0.338 N 
ATOM      3  H4  UNL     1      22.058  29.444  15.982  1.00  0.00     0.167 HD
HETATM    4  C19 UNL     1      21.624  31.498  15.832  1.00  0.00     0.083 A 
HETATM    5  C20 UNL     1      21.806  32.101  17.078  1.00  0.00     0.083 A 
HETATM    6  C21 UNL     1      21.575  33.447  17.207  1.00  0.00     0.117 A 
HETATM    7  N7  UNL     1      21.173  34.100  16.070  1.00  0.00    -0.284 N 
ATOM      8  H7  UNL     1      20.993  35.102  16.133  1.00  0.00     0.188 HD
HETATM    9  N8  UNL     1      21.006  33.520  14.906  1.00  0.00    -0.282 N 
ATOM     10  H8  UNL     1      20.706  34.085  14.112  1.00  0.00     0.188 HD
HETATM   11  C30 UNL     1      21.218  32.204  14.724  1.00  0.00     0.150 A 
HETATM   12  N9  UNL     1      21.120  31.361  13.646  1.00  0.00    -0.320 N 
HETATM   13  C31 UNL     1      20.671  31.809  12.331  1.00  0.00     0.159 C 
ENDROOT
BRANCH   1  14
HETATM   14  C17 UNL     1      21.479  28.861  13.385  1.00  0.00     0.043 A 
HETATM   15  C2  UNL     1      20.373  28.211  12.927  1.00  0.00     0.090 A 
HETATM   16  C3  UNL     1      20.449  26.993  12.192  1.00  0.00    -0.005 A 
HETATM   17  C13 UNL     1      21.704  26.499  11.963  1.00  0.00     0.028 A 
HETATM   18  C14 UNL     1      22.868  27.112  12.402  1.00  0.00     0.030 A 
HETATM   19  C16 UNL     1      22.725  28.272  13.099  1.00  0.00     0.034 A 
BRANCH  15  20
HETATM   20  O1  UNL     1      19.105  28.672  13.125  1.00  0.00    -0.354 OA
HETATM   21  C1  UNL     1      18.323  28.635  14.284  1.00  0.00     0.210 C 
ENDBRANCH  15  20
BRANCH  16  22
HETATM   22  C4  UNL     1      19.186  26.381  11.714  1.00  0.00     0.158 C 
BRANCH  22  23
HETATM   23  N1  UNL     1      18.907  26.676  10.358  1.00  0.00    -0.405 N 
HETATM   24  C5  UNL     1      19.530  25.881   9.365  1.00  0.00     0.147 C 
HETATM   25  C6  UNL     1      18.624  24.845   8.731  1.00  0.00     0.291 C 
HETATM   26  N2  UNL     1      17.381  25.439   8.286  1.00  0.00     0.091 N 
HETATM   27  C11 UNL     1      16.730  25.962   9.482  1.00  0.00     0.291 C 
HETATM   28  C12 UNL     1      17.552  27.080  10.078  1.00  0.00     0.147 C 
BRANCH  26  29
HETATM   29  C7  UNL     1      17.674  26.468   7.337  1.00  0.00     0.276 C 
BRANCH  29  30
HETATM   30  C8  UNL     1      18.054  25.903   5.979  1.00  0.00     0.006 C 
HETATM   31  C9  UNL     1      19.311  26.510   5.425  1.00  0.00     0.011 C 
HETATM   32  C10 UNL     1      16.917  26.161   5.019  1.00  0.00     0.011 C 
ENDBRANCH  29  30
ENDBRANCH  26  29
ENDBRANCH  22  23
ENDBRANCH  16  22
BRANCH  18  33
HETATM   33  C15 UNL     1      24.167  26.504  12.109  1.00  0.00     0.265 C 
HETATM   34  N3  UNL     1      25.310  27.284  11.883  1.00  0.00    -0.057 NA
HETATM   35  O2  UNL     1      24.276  25.242  12.053  1.00  0.00    -0.271 OA
ENDBRANCH  18  33
ENDBRANCH   1  14
BRANCH   6  36
HETATM   36  N5  UNL     1      21.708  34.111  18.300  1.00  0.00    -0.375 N 
ATOM     37  H5  UNL     1      22.266  33.692  19.044  1.00  0.00     0.161 HD
BRANCH  36  38
HETATM   38  C22 UNL     1      21.134  35.387  18.544  1.00  0.00     0.123 C 
BRANCH  38  39
HETATM   39  C23 UNL     1      19.778  35.266  19.262  1.00  0.00     0.039 C 
BRANCH  39  40
HETATM   40  C24 UNL     1      18.661  35.527  18.289  1.00  0.00     0.118 C 
BRANCH  40  41
HETATM   41  N6  UNL     1      17.733  34.458  18.202  1.00  0.00    -0.412 N 
HETATM   42  C25 UNL     1      16.356  34.882  18.238  1.00  0.00     0.117 C 
HETATM   43  C26 UNL     1      15.465  33.787  17.643  1.00  0.00     0.019 C 
HETATM   44  C27 UNL     1      15.776  33.775  16.164  1.00  0.00     0.003 C 
HETATM   45  C28 UNL     1      17.230  33.508  15.971  1.00  0.00     0.019 C 
HETATM   46  C29 UNL     1      17.980  33.415  17.279  1.00  0.00     0.117 C 
ENDBRANCH  40  41
ENDBRANCH  39  40
ENDBRANCH  38  39
ENDBRANCH  36  38
ENDBRANCH   6  36
TORSDOF 12
ENDMDL
MODEL 4
REMARK VINA RESULT: -8.952119976      2.964     11.942
REMARK  12 active torsions:
REMARK  status: ('A' for Active; 'I' for Inactive)
REMARK    1  A    between atoms: O1_2  and  C2_3 
REMARK    2  A    between atoms: C3_4  and  C4_5 
REMARK    3  A    between atoms: C4_5  and  N1_6 
REMARK    4  A    between atoms: N2_9  and  C7_10 
REMARK    5  A    between atoms: C7_10  and  C8_11 
REMARK    6  A    between atoms: C14_17  and  C15_18 
REMARK    7  A    between atoms: C17_22  and  C18_23 
REMARK    8  A    between atoms: C21_28  and  N5_29 
REMARK    9  A    between atoms: N5_29  and  C22_31 
REMARK   10  A    between atoms: C22_31  and  C23_32 
REMARK   11  A    between atoms: C23_32  and  C24_33 
REMARK   12  A    between atoms: C24_33  and  N6_34 
ROOT
HETATM    1  C18 UNL     1      18.678  31.352  15.178  1.00  0.00     0.122 A 
HETATM    2  N4  UNL     1      18.221  30.093  15.471  1.00  0.00    -0.338 N 
ATOM      3  H4  UNL     1      17.804  29.817  16.360  1.00  0.00     0.167 HD
HETATM    4  C19 UNL     1      18.403  29.275  14.416  1.00  0.00     0.083 A 
HETATM    5  C20 UNL     1      18.118  27.925  14.204  1.00  0.00     0.083 A 
HETATM    6  C21 UNL     1      18.430  27.360  12.994  1.00  0.00     0.117 A 
HETATM    7  N7  UNL     1      19.012  28.194  12.074  1.00  0.00    -0.284 N 
ATOM      8  H7  UNL     1      19.257  27.803  11.164  1.00  0.00     0.188 HD
HETATM    9  N8  UNL     1      19.274  29.460  12.287  1.00  0.00    -0.282 N 
ATOM     10  H8  UNL     1      19.709  30.006  11.543  1.00  0.00     0.188 HD
HETATM   11  C30 UNL     1      18.989  30.064  13.455  1.00  0.00     0.150 A 
HETATM   12  N9  UNL     1      19.154  31.338  13.936  1.00  0.00    -0.320 N 
HETATM   13  C31 UNL     1      19.789  32.400  13.161  1.00  0.00     0.159 C 
ENDROOT
BRANCH   1  14
HETATM   14  C17 UNL     1      18.646  32.401  16.185  1.00  0.00     0.043 A 
HETATM   15  C2  UNL     1      19.737  33.089  16.621  1.00  0.00     0.090 A 
HETATM   16  C3  UNL     1      19.645  34.166  17.550  1.00  0.00    -0.005 A 
HETATM   17  C13 UNL     1      18.389  34.481  17.991  1.00  0.00     0.028 A 
HETATM   18  C14 UNL     1      17.239  33.820  17.587  1.00  0.00     0.030 A 
HETATM   19  C16 UNL     1      17.397  32.801  16.699  1.00  0.00     0.034 A 
BRANCH  15  20
HETATM   20  O1  UNL     1      21.005  32.815  16.201  1.00  0.00    -0.354 OA
HETATM   21  C1  UNL     1      21.936  31.916  16.732  1.00  0.00     0.210 C 
ENDBRANCH  15  20
BRANCH  16  22
HETATM   22  C4  UNL     1      20.892  34.869  17.937  1.00  0.00     0.158 C 
BRANCH  22  23
HETATM   23  N1  UNL     1      20.910  36.225  17.535  1.00  0.00    -0.405 N 
HETATM   24  C5  UNL     1      20.650  37.212  18.518  1.00  0.00     0.147 C 
HETATM   25  C6  UNL     1      21.881  37.938  19.019  1.00  0.00     0.291 C 
HETATM   26  N2  UNL     1      22.682  38.431  17.918  1.00  0.00     0.091 N 
HETATM   27  C11 UNL     1      23.105  37.255  17.166  1.00  0.00     0.291 C 
HETATM   28  C12 UNL     1      21.908  36.568  16.554  1.00  0.00     0.147 C 
BRANCH  26  29
HETATM   29  C7  UNL     1      21.886  39.320  17.129  1.00  0.00     0.276 C 
BRANCH  29  30
HETATM   30  C8  UNL     1      22.732  40.187  16.213  1.00  0.00     0.006 C 
HETATM   31  C9  UNL     1      23.178  41.463  16.865  1.00  0.00     0.011 C 
HETATM   32  C10 UNL     1      21.919  40.518  14.983  1.00  0.00     0.011 C 
ENDBRANCH  29  30
ENDBRANCH  26  29
ENDBRANCH  22  23
ENDBRANCH  16  22
BRANCH  18  33
HETATM   33  C15 UNL     1      15.938  34.230  18.118  1.00  0.00     0.265 C 
HETATM   34  N3  UNL     1      15.829  35.164  19.159  1.00  0.00    -0.057 NA
HETATM   35  O2  UNL     1      14.875  33.736  17.636  1.00  0.00    -0.271 OA
ENDBRANCH  18  33
ENDBRANCH   1  14
BRANCH   6  36
HETATM   36  N5  UNL     1      18.215  26.131  12.683  1.00  0.00    -0.375 N 
ATOM     37  H5  UNL     1      17.721  25.550  13.360  1.00  0.00     0.161 HD
BRANCH  36  38
HETATM   38  C22 UNL     1      18.619  25.525  11.462  1.00  0.00     0.123 C 
BRANCH  38  39
HETATM   39  C23 UNL     1      19.878  24.661  11.652  1.00  0.00     0.039 C 
BRANCH  39  40
HETATM   40  C24 UNL     1      21.015  25.235  10.853  1.00  0.00     0.118 C 
BRANCH  40  41
HETATM   41  N6  UNL     1      22.144  25.569  11.644  1.00  0.00    -0.412 N 
HETATM   42  C25 UNL     1      23.404  25.271  11.011  1.00  0.00     0.117 C 
HETATM   43  C26 UNL     1      24.517  26.094  11.666  1.00  0.00     0.019 C 
HETATM   44  C27 UNL     1      24.258  27.524  11.247  1.00  0.00     0.003 C 
HETATM   45  C28 UNL     1      22.896  27.928  11.698  1.00  0.00     0.019 C 
HETATM   46  C29 UNL     1      22.142  26.793  12.352  1.00  0.00     0.117 C 
ENDBRANCH  40  41
ENDBRANCH  39  40
ENDBRANCH  38  39
ENDBRANCH  36  38
ENDBRANCH   6  36
TORSDOF 12
ENDMDL
MODEL 5
REMARK VINA RESULT: -8.770299825      1.741      2.647
REMARK  12 active torsions:
REMARK  status: ('A' for Active; 'I' for Inactive)
REMARK    1  A    between atoms: O1_2  and  C2_3 
REMARK    2  A    between atoms: C3_4  and  C4_5 
REMARK    3  A    between atoms: C4_5  and  N1_6 
REMARK    4  A    between atoms: N2_9  and  C7_10 
REMARK    5  A    between atoms: C7_10  and  C8_11 
REMARK    6  A    between atoms: C14_17  and  C15_18 
REMARK    7  A    between atoms: C17_22  and  C18_23 
REMARK    8  A    between atoms: C21_28  and  N5_29 
REMARK    9  A    between atoms: N5_29  and  C22_31 
REMARK   10  A    between atoms: C22_31  and  C23_32 
REMARK   11  A    between atoms: C23_32  and  C24_33 
REMARK   12  A    between atoms: C24_33  and  N6_34 
ROOT
HETATM    1  C18 UNL     1      20.934  29.706  14.164  1.00  0.00     0.122 A 
HETATM    2  N4  UNL     1      21.335  30.956  13.772  1.00  0.00    -0.338 N 
ATOM      3  H4  UNL     1      21.751  31.178  12.867  1.00  0.00     0.167 HD
HETATM    4  C19 UNL     1      21.103  31.849  14.753  1.00  0.00     0.083 A 
HETATM    5  C20 UNL     1      21.327  33.223  14.857  1.00  0.00     0.083 A 
HETATM    6  C21 UNL     1      20.975  33.870  16.015  1.00  0.00     0.117 A 
HETATM    7  N7  UNL     1      20.421  33.088  16.995  1.00  0.00    -0.284 N 
ATOM      8  H7  UNL     1      20.150  33.540  17.869  1.00  0.00     0.188 HD
HETATM    9  N8  UNL     1      20.217  31.798  16.884  1.00  0.00    -0.282 N 
ATOM     10  H8  UNL     1      19.798  31.296  17.666  1.00  0.00     0.188 HD
HETATM   11  C30 UNL     1      20.543  31.114  15.772  1.00  0.00     0.150 A 
HETATM   12  N9  UNL     1      20.445  29.799  15.397  1.00  0.00    -0.320 N 
HETATM   13  C31 UNL     1      19.927  28.761  16.285  1.00  0.00     0.159 C 
ENDROOT
BRANCH   1  14
HETATM   14  C17 UNL     1      21.139  28.558  13.293  1.00  0.00     0.043 A 
HETATM   15  C2  UNL     1      20.150  27.922  12.606  1.00  0.00     0.090 A 
HETATM   16  C3  UNL     1      20.410  26.852  11.702  1.00  0.00    -0.005 A 
HETATM   17  C13 UNL     1      21.721  26.489  11.553  1.00  0.00     0.028 A 
HETATM   18  C14 UNL     1      22.772  27.096  12.222  1.00  0.00     0.030 A 
HETATM   19  C16 UNL     1      22.455  28.110  13.072  1.00  0.00     0.034 A 
BRANCH  15  20
HETATM   20  O1  UNL     1      18.833  28.257  12.718  1.00  0.00    -0.354 OA
HETATM   21  C1  UNL     1      17.865  27.754  13.593  1.00  0.00     0.210 C 
ENDBRANCH  15  20
BRANCH  16  22
HETATM   22  C4  UNL     1      19.265  26.246  10.981  1.00  0.00     0.158 C 
BRANCH  22  23
HETATM   23  N1  UNL     1      19.344  26.412   9.578  1.00  0.00    -0.405 N 
HETATM   24  C5  UNL     1      19.874  25.343   8.813  1.00  0.00     0.147 C 
HETATM   25  C6  UNL     1      18.834  24.518   8.083  1.00  0.00     0.291 C 
HETATM   26  N2  UNL     1      17.931  25.363   7.329  1.00  0.00     0.091 N 
HETATM   27  C11 UNL     1      17.257  26.209   8.307  1.00  0.00     0.291 C 
HETATM   28  C12 UNL     1      18.250  27.129   8.975  1.00  0.00     0.147 C 
BRANCH  26  29
HETATM   29  C7  UNL     1      18.691  26.125   6.387  1.00  0.00     0.276 C 
BRANCH  29  30
HETATM   30  C8  UNL     1      17.825  27.102   5.609  1.00  0.00     0.006 C 
HETATM   31  C9  UNL     1      17.125  26.462   4.445  1.00  0.00     0.011 C 
HETATM   32  C10 UNL     1      18.704  28.221   5.103  1.00  0.00     0.011 C 
ENDBRANCH  29  30
ENDBRANCH  26  29
ENDBRANCH  22  23
ENDBRANCH  16  22
BRANCH  18  33
HETATM   33  C15 UNL     1      24.144  26.634  11.998  1.00  0.00     0.265 C 
HETATM   34  N3  UNL     1      25.128  27.481  11.470  1.00  0.00    -0.057 NA
HETATM   35  O2  UNL     1      24.463  25.440  12.281  1.00  0.00    -0.271 OA
ENDBRANCH  18  33
ENDBRANCH   1  14
BRANCH   6  36
HETATM   36  N5  UNL     1      21.133  35.129  16.226  1.00  0.00    -0.375 N 
ATOM     37  H5  UNL     1      21.313  35.726  15.419  1.00  0.00     0.161 HD
BRANCH  36  38
HETATM   38  C22 UNL     1      21.072  35.746  17.504  1.00  0.00     0.123 C 
BRANCH  38  39
HETATM   39  C23 UNL     1      19.828  36.643  17.637  1.00  0.00     0.039 C 
BRANCH  39  40
HETATM   40  C24 UNL     1      18.723  35.884  18.317  1.00  0.00     0.118 C 
BRANCH  40  41
HETATM   41  N6  UNL     1      17.704  35.460  17.426  1.00  0.00    -0.412 N 
HETATM   42  C25 UNL     1      17.172  34.156  17.733  1.00  0.00     0.117 C 
HETATM   43  C26 UNL     1      15.793  33.997  17.085  1.00  0.00     0.019 C 
HETATM   44  C27 UNL     1      14.879  34.924  17.852  1.00  0.00     0.003 C 
HETATM   45  C28 UNL     1      15.405  36.316  17.762  1.00  0.00     0.019 C 
HETATM   46  C29 UNL     1      16.720  36.391  17.022  1.00  0.00     0.117 C 
ENDBRANCH  40  41
ENDBRANCH  39  40
ENDBRANCH  38  39
ENDBRANCH  36  38
ENDBRANCH   6  36
TORSDOF 12
ENDMDL
