MODEL 1
REMARK VINA RESULT: -9.369496850      0.000      0.000
REMARK  11 active torsions:
REMARK  status: ('A' for Active; 'I' for Inactive)
REMARK    1  A    between atoms: C2_2  and  C3_3 
REMARK    2  A    between atoms: C3_3  and  N1_4 
REMARK    3  A    between atoms: N2_7  and  C6_8 
REMARK    4  A    between atoms: C6_8  and  C7_9 
REMARK    5  A    between atoms: C7_9  and  C8_10 
REMARK    6  A    between atoms: C8_10  and  N3_11 
REMARK       I    between atoms: N3_11  and  C9_13 
REMARK    7  A    between atoms: C9_13  and  C10_15 
REMARK    8  A    between atoms: C10_15  and  S1_16 
REMARK    9  A    between atoms: S1_16  and  C11_17 
REMARK   10  A    between atoms: C12_22  and  C13_23 
REMARK   11  A    between atoms: N6_25  and  C15_26 
ROOT
HETATM    1  C11 UNL     1      15.276  21.358  18.655  1.00  0.00     0.161 A 
HETATM    2  N4  UNL     1      14.597  22.415  19.086  1.00  0.00    -0.278 N 
ATOM      3  H4  UNL     1      13.712  22.387  19.591  1.00  0.00     0.189 HD
HETATM    4  N5  UNL     1      15.264  23.515  18.749  1.00  0.00    -0.283 N 
ATOM      5  H5  UNL     1      14.981  24.474  18.949  1.00  0.00     0.188 HD
HETATM    6  C12 UNL     1      16.384  23.131  18.094  1.00  0.00     0.137 A 
HETATM    7  N8  UNL     1      16.380  21.809  18.043  1.00  0.00    -0.320 N 
ATOM      8  H8  UNL     1      17.099  21.229  17.610  1.00  0.00     0.169 HD
ENDROOT
BRANCH   6   9
HETATM    9  C13 UNL     1      17.374  24.079  17.563  1.00  0.00     0.076 A 
HETATM   10  C14 UNL     1      17.278  24.652  16.325  1.00  0.00     0.110 A 
HETATM   11  N6  UNL     1      18.207  25.519  15.862  1.00  0.00    -0.355 N 
HETATM   12  C17 UNL     1      19.257  25.820  16.651  1.00  0.00     0.049 A 
HETATM   13  C18 UNL     1      20.197  26.696  16.161  1.00  0.00     0.031 A 
HETATM   14  C22 UNL     1      19.413  25.260  17.939  1.00  0.00     0.049 A 
HETATM   15  C19 UNL     1      21.276  27.025  16.914  1.00  0.00     0.010 A 
HETATM   16  C20 UNL     1      21.421  26.487  18.150  1.00  0.00    -0.049 A 
HETATM   17  C21 UNL     1      20.507  25.582  18.731  1.00  0.00    -0.034 A 
HETATM   18  C28 UNL     1      22.674  26.972  18.801  1.00  0.00     0.069 C 
HETATM   19  C24 UNL     1      20.494  24.917  20.019  1.00  0.00     0.070 C 
HETATM   20  C25 UNL     1      21.783  25.436  20.742  1.00  0.00     0.276 C 
HETATM   21  N7  UNL     1      22.965  24.936  20.137  1.00  0.00     0.084 N 
HETATM   22  C26 UNL     1      23.898  24.334  21.049  1.00  0.00     0.309 C 
HETATM   23  C27 UNL     1      23.577  25.824  19.191  1.00  0.00     0.276 C 
HETATM   24  C23 UNL     1      18.463  24.387  18.389  1.00  0.00     0.200 A 
HETATM   25  O2  UNL     1      18.542  23.857  19.517  1.00  0.00    -0.286 OA
BRANCH  11  26
HETATM   26  C15 UNL     1      18.028  26.098  14.534  1.00  0.00     0.124 C 
HETATM   27  C16 UNL     1      17.114  25.222  13.692  1.00  0.00     0.027 C 
ENDBRANCH  11  26
ENDBRANCH   6   9
BRANCH   1  28
HETATM   28  S1  UNL     1      14.787  19.662  18.862  1.00  0.00    -0.083 SA
BRANCH  28  29
HETATM   29  C10 UNL     1      13.705  19.469  20.282  1.00  0.00     0.185 C 
BRANCH  29  30
HETATM   30  C9  UNL     1      12.393  18.854  19.907  1.00  0.00     0.227 C 
HETATM   31  N3  UNL     1      12.179  18.336  18.600  1.00  0.00    -0.360 N 
ATOM     32  H3  UNL     1      12.930  18.386  17.911  1.00  0.00     0.162 HD
HETATM   33  O1  UNL     1      11.473  18.796  20.757  1.00  0.00    -0.273 OA
BRANCH  31  34
HETATM   34  C8  UNL     1      10.929  17.747  18.234  1.00  0.00     0.124 C 
BRANCH  34  35
HETATM   35  C7  UNL     1      10.532  18.136  16.826  1.00  0.00     0.039 C 
BRANCH  35  36
HETATM   36  C6  UNL     1      10.726  19.616  16.693  1.00  0.00     0.118 C 
BRANCH  36  37
HETATM   37  N2  UNL     1      11.280  20.030  15.430  1.00  0.00    -0.409 N 
HETATM   38  C5  UNL     1      12.623  19.617  15.218  1.00  0.00     0.147 C 
HETATM   39  C4  UNL     1      13.675  20.646  15.448  1.00  0.00     0.291 C 
HETATM   40  N1  UNL     1      13.248  22.007  15.209  1.00  0.00     0.091 N 
HETATM   41  C30 UNL     1      12.116  22.071  14.329  1.00  0.00     0.291 C 
HETATM   42  C29 UNL     1      10.963  21.369  15.054  1.00  0.00     0.147 C 
BRANCH  40  43
HETATM   43  C3  UNL     1      14.352  22.859  14.810  1.00  0.00     0.272 C 
BRANCH  43  44
HETATM   44  C2  UNL     1      15.435  21.925  14.270  1.00  0.00     0.026 C 
HETATM   45  C1  UNL     1      15.481  22.053  12.774  1.00  0.00     0.007 C 
ENDBRANCH  43  44
ENDBRANCH  40  43
ENDBRANCH  36  37
ENDBRANCH  35  36
ENDBRANCH  34  35
ENDBRANCH  31  34
ENDBRANCH  29  30
ENDBRANCH  28  29
ENDBRANCH   1  28
TORSDOF 11
ENDMDL
MODEL 2
REMARK VINA RESULT: -9.334134175      2.513     10.287
REMARK  11 active torsions:
REMARK  status: ('A' for Active; 'I' for Inactive)
REMARK    1  A    between atoms: C2_2  and  C3_3 
REMARK    2  A    between atoms: C3_3  and  N1_4 
REMARK    3  A    between atoms: N2_7  and  C6_8 
REMARK    4  A    between atoms: C6_8  and  C7_9 
REMARK    5  A    between atoms: C7_9  and  C8_10 
REMARK    6  A    between atoms: C8_10  and  N3_11 
REMARK       I    between atoms: N3_11  and  C9_13 
REMARK    7  A    between atoms: C9_13  and  C10_15 
REMARK    8  A    between atoms: C10_15  and  S1_16 
REMARK    9  A    between atoms: S1_16  and  C11_17 
REMARK   10  A    between atoms: C12_22  and  C13_23 
REMARK   11  A    between atoms: N6_25  and  C15_26 
ROOT
HETATM    1  C11 UNL     1      14.859  22.771  14.694  1.00  0.00     0.161 A 
HETATM    2  N4  UNL     1      14.060  23.617  15.333  1.00  0.00    -0.278 N 
ATOM      3  H4  UNL     1      13.904  24.593  15.080  1.00  0.00     0.189 HD
HETATM    4  N5  UNL     1      13.497  22.982  16.355  1.00  0.00    -0.283 N 
ATOM      5  H5  UNL     1      12.836  23.381  17.022  1.00  0.00     0.188 HD
HETATM    6  C12 UNL     1      13.958  21.710  16.351  1.00  0.00     0.137 A 
HETATM    7  N8  UNL     1      14.791  21.593  15.329  1.00  0.00    -0.320 N 
ATOM      8  H8  UNL     1      15.297  20.746  15.069  1.00  0.00     0.169 HD
ENDROOT
BRANCH   6   9
HETATM    9  C13 UNL     1      13.556  20.701  17.342  1.00  0.00     0.076 A 
HETATM   10  C14 UNL     1      14.015  20.689  18.630  1.00  0.00     0.110 A 
HETATM   11  N6  UNL     1      13.629  19.746  19.519  1.00  0.00    -0.355 N 
HETATM   12  C17 UNL     1      12.769  18.791  19.115  1.00  0.00     0.049 A 
HETATM   13  C18 UNL     1      12.394  17.835  20.029  1.00  0.00     0.031 A 
HETATM   14  C22 UNL     1      12.260  18.750  17.797  1.00  0.00     0.049 A 
HETATM   15  C19 UNL     1      11.536  16.850  19.668  1.00  0.00     0.010 A 
HETATM   16  C20 UNL     1      11.049  16.815  18.403  1.00  0.00    -0.049 A 
HETATM   17  C21 UNL     1      11.378  17.753  17.402  1.00  0.00    -0.034 A 
HETATM   18  C28 UNL     1      10.133  15.650  18.215  1.00  0.00     0.069 C 
HETATM   19  C24 UNL     1      10.960  17.876  16.019  1.00  0.00     0.070 C 
HETATM   20  C25 UNL     1       9.967  16.684  15.802  1.00  0.00     0.276 C 
HETATM   21  N7  UNL     1      10.632  15.431  15.824  1.00  0.00     0.084 N 
HETATM   22  C26 UNL     1      10.342  14.578  14.706  1.00  0.00     0.309 C 
HETATM   23  C27 UNL     1      10.597  14.755  17.088  1.00  0.00     0.276 C 
HETATM   24  C23 UNL     1      12.660  19.712  16.913  1.00  0.00     0.200 A 
HETATM   25  O2  UNL     1      12.249  19.732  15.735  1.00  0.00    -0.286 OA
BRANCH  11  26
HETATM   26  C15 UNL     1      14.154  19.807  20.881  1.00  0.00     0.124 C 
HETATM   27  C16 UNL     1      15.193  20.910  21.000  1.00  0.00     0.027 C 
ENDBRANCH  11  26
ENDBRANCH   6   9
BRANCH   1  28
HETATM   28  S1  UNL     1      15.837  23.156  13.260  1.00  0.00    -0.083 SA
BRANCH  28  29
HETATM   29  C10 UNL     1      16.832  24.625  13.532  1.00  0.00     0.185 C 
BRANCH  29  30
HETATM   30  C9  UNL     1      17.438  24.647  14.900  1.00  0.00     0.227 C 
HETATM   31  N3  UNL     1      16.864  25.431  15.938  1.00  0.00    -0.360 N 
ATOM     32  H3  UNL     1      16.030  25.986  15.745  1.00  0.00     0.162 HD
HETATM   33  O1  UNL     1      18.463  23.963  15.132  1.00  0.00    -0.273 OA
BRANCH  31  34
HETATM   34  C8  UNL     1      17.435  25.456  17.248  1.00  0.00     0.124 C 
BRANCH  34  35
HETATM   35  C7  UNL     1      16.529  24.776  18.253  1.00  0.00     0.039 C 
BRANCH  35  36
HETATM   36  C6  UNL     1      16.911  23.328  18.300  1.00  0.00     0.118 C 
BRANCH  36  37
HETATM   37  N2  UNL     1      17.554  22.924  19.524  1.00  0.00    -0.409 N 
HETATM   38  C5  UNL     1      18.141  23.992  20.256  1.00  0.00     0.147 C 
HETATM   39  C4  UNL     1      19.616  24.152  20.121  1.00  0.00     0.291 C 
HETATM   40  N1  UNL     1      20.333  22.923  19.854  1.00  0.00     0.091 N 
HETATM   41  C30 UNL     1      19.596  21.767  20.276  1.00  0.00     0.291 C 
HETATM   42  C29 UNL     1      18.324  21.728  19.424  1.00  0.00     0.147 C 
BRANCH  40  43
HETATM   43  C3  UNL     1      21.693  22.970  20.355  1.00  0.00     0.272 C 
BRANCH  43  44
HETATM   44  C2  UNL     1      22.008  24.447  20.590  1.00  0.00     0.026 C 
HETATM   45  C1  UNL     1      23.479  24.588  20.862  1.00  0.00     0.007 C 
ENDBRANCH  43  44
ENDBRANCH  40  43
ENDBRANCH  36  37
ENDBRANCH  35  36
ENDBRANCH  34  35
ENDBRANCH  31  34
ENDBRANCH  29  30
ENDBRANCH  28  29
ENDBRANCH   1  28
TORSDOF 11
ENDMDL
MODEL 3
REMARK VINA RESULT: -9.261551504      1.298      1.451
REMARK  11 active torsions:
REMARK  status: ('A' for Active; 'I' for Inactive)
REMARK    1  A    between atoms: C2_2  and  C3_3 
REMARK    2  A    between atoms: C3_3  and  N1_4 
REMARK    3  A    between atoms: N2_7  and  C6_8 
REMARK    4  A    between atoms: C6_8  and  C7_9 
REMARK    5  A    between atoms: C7_9  and  C8_10 
REMARK    6  A    between atoms: C8_10  and  N3_11 
REMARK       I    between atoms: N3_11  and  C9_13 
REMARK    7  A    between atoms: C9_13  and  C10_15 
REMARK    8  A    between atoms: C10_15  and  S1_16 
REMARK    9  A    between atoms: S1_16  and  C11_17 
REMARK   10  A    between atoms: C12_22  and  C13_23 
REMARK   11  A    between atoms: N6_25  and  C15_26 
ROOT
HETATM    1  C11 UNL     1      15.792  22.675  18.955  1.00  0.00     0.161 A 
HETATM    2  N4  UNL     1      15.057  23.759  18.737  1.00  0.00    -0.278 N 
ATOM      3  H4  UNL     1      14.056  23.844  18.914  1.00  0.00     0.189 HD
HETATM    4  N5  UNL     1      15.842  24.715  18.251  1.00  0.00    -0.283 N 
ATOM      5  H5  UNL     1      15.552  25.657  17.989  1.00  0.00     0.188 HD
HETATM    6  C12 UNL     1      17.095  24.212  18.165  1.00  0.00     0.137 A 
HETATM    7  N8  UNL     1      17.052  22.963  18.599  1.00  0.00    -0.320 N 
ATOM      8  H8  UNL     1      17.846  22.325  18.654  1.00  0.00     0.169 HD
ENDROOT
BRANCH   6   9
HETATM    9  C13 UNL     1      18.243  24.982  17.664  1.00  0.00     0.076 A 
HETATM   10  C14 UNL     1      18.269  25.578  16.433  1.00  0.00     0.110 A 
HETATM   11  N6  UNL     1      19.341  26.278  15.998  1.00  0.00    -0.355 N 
HETATM   12  C17 UNL     1      20.413  26.386  16.808  1.00  0.00     0.049 A 
HETATM   13  C18 UNL     1      21.497  27.094  16.347  1.00  0.00     0.031 A 
HETATM   14  C22 UNL     1      20.446  25.793  18.091  1.00  0.00     0.049 A 
HETATM   15  C19 UNL     1      22.602  27.225  17.122  1.00  0.00     0.010 A 
HETATM   16  C20 UNL     1      22.629  26.656  18.353  1.00  0.00    -0.049 A 
HETATM   17  C21 UNL     1      21.564  25.914  18.905  1.00  0.00    -0.034 A 
HETATM   18  C28 UNL     1      23.935  26.913  19.031  1.00  0.00     0.069 C 
HETATM   19  C24 UNL     1      21.413  25.247  20.184  1.00  0.00     0.070 C 
HETATM   20  C25 UNL     1      22.758  25.530  20.935  1.00  0.00     0.276 C 
HETATM   21  N7  UNL     1      23.849  24.842  20.343  1.00  0.00     0.084 N 
HETATM   22  C26 UNL     1      24.647  24.079  21.262  1.00  0.00     0.309 C 
HETATM   23  C27 UNL     1      24.621  25.623  19.420  1.00  0.00     0.276 C 
HETATM   24  C23 UNL     1      19.353  25.090  18.513  1.00  0.00     0.200 A 
HETATM   25  O2  UNL     1      19.318  24.543  19.634  1.00  0.00    -0.286 OA
BRANCH  11  26
HETATM   26  C15 UNL     1      19.289  26.895  14.676  1.00  0.00     0.124 C 
HETATM   27  C16 UNL     1      18.168  26.284  13.850  1.00  0.00     0.027 C 
ENDBRANCH  11  26
ENDBRANCH   6   9
BRANCH   1  28
HETATM   28  S1  UNL     1      15.191  21.132  19.600  1.00  0.00    -0.083 SA
BRANCH  28  29
HETATM   29  C10 UNL     1      15.122  19.878  18.317  1.00  0.00     0.185 C 
BRANCH  29  30
HETATM   30  C9  UNL     1      13.751  19.292  18.181  1.00  0.00     0.227 C 
HETATM   31  N3  UNL     1      12.627  20.121  17.915  1.00  0.00    -0.360 N 
ATOM     32  H3  UNL     1      12.759  21.128  17.817  1.00  0.00     0.162 HD
HETATM   33  O1  UNL     1      13.596  18.053  18.302  1.00  0.00    -0.273 OA
BRANCH  31  34
HETATM   34  C8  UNL     1      11.316  19.568  17.782  1.00  0.00     0.124 C 
BRANCH  34  35
HETATM   35  C7  UNL     1      10.671  19.997  16.481  1.00  0.00     0.039 C 
BRANCH  35  36
HETATM   36  C6  UNL     1      11.413  19.327  15.365  1.00  0.00     0.118 C 
BRANCH  36  37
HETATM   37  N2  UNL     1      11.974  20.234  14.397  1.00  0.00    -0.409 N 
HETATM   38  C5  UNL     1      13.351  20.017  14.122  1.00  0.00     0.147 C 
HETATM   39  C4  UNL     1      14.312  20.934  14.796  1.00  0.00     0.291 C 
HETATM   40  N1  UNL     1      13.787  22.253  15.078  1.00  0.00     0.091 N 
HETATM   41  C30 UNL     1      12.683  22.588  14.226  1.00  0.00     0.291 C 
HETATM   42  C29 UNL     1      11.566  21.592  14.551  1.00  0.00     0.147 C 
BRANCH  40  43
HETATM   43  C3  UNL     1      14.834  23.257  15.108  1.00  0.00     0.272 C 
BRANCH  43  44
HETATM   44  C2  UNL     1      15.974  22.707  14.250  1.00  0.00     0.026 C 
HETATM   45  C1  UNL     1      16.019  23.474  12.959  1.00  0.00     0.007 C 
ENDBRANCH  43  44
ENDBRANCH  40  43
ENDBRANCH  36  37
ENDBRANCH  35  36
ENDBRANCH  34  35
ENDBRANCH  31  34
ENDBRANCH  29  30
ENDBRANCH  28  29
ENDBRANCH   1  28
TORSDOF 11
ENDMDL
MODEL 4
REMARK VINA RESULT: -9.238778061      1.822      2.330
REMARK  11 active torsions:
REMARK  status: ('A' for Active; 'I' for Inactive)
REMARK    1  A    between atoms: C2_2  and  C3_3 
REMARK    2  A    between atoms: C3_3  and  N1_4 
REMARK    3  A    between atoms: N2_7  and  C6_8 
REMARK    4  A    between atoms: C6_8  and  C7_9 
REMARK    5  A    between atoms: C7_9  and  C8_10 
REMARK    6  A    between atoms: C8_10  and  N3_11 
REMARK       I    between atoms: N3_11  and  C9_13 
REMARK    7  A    between atoms: C9_13  and  C10_15 
REMARK    8  A    between atoms: C10_15  and  S1_16 
REMARK    9  A    between atoms: S1_16  and  C11_17 
REMARK   10  A    between atoms: C12_22  and  C13_23 
REMARK   11  A    between atoms: N6_25  and  C15_26 
ROOT
HETATM    1  C11 UNL     1      17.289  22.891  19.722  1.00  0.00     0.161 A 
HETATM    2  N4  UNL     1      17.638  23.882  20.533  1.00  0.00    -0.278 N 
ATOM      3  H4  UNL     1      17.439  23.930  21.532  1.00  0.00     0.189 HD
HETATM    4  N5  UNL     1      18.288  24.801  19.827  1.00  0.00    -0.283 N 
ATOM      5  H5  UNL     1      18.674  25.674  20.185  1.00  0.00     0.188 HD
HETATM    6  C12 UNL     1      18.344  24.370  18.545  1.00  0.00     0.137 A 
HETATM    7  N8  UNL     1      17.730  23.199  18.494  1.00  0.00    -0.320 N 
ATOM      8  H8  UNL     1      17.611  22.626  17.658  1.00  0.00     0.169 HD
ENDROOT
BRANCH   6   9
HETATM    9  C13 UNL     1      18.989  25.129  17.464  1.00  0.00     0.076 A 
HETATM   10  C14 UNL     1      18.381  25.400  16.270  1.00  0.00     0.110 A 
HETATM   11  N6  UNL     1      19.001  26.099  15.292  1.00  0.00    -0.355 N 
HETATM   12  C17 UNL     1      20.257  26.536  15.509  1.00  0.00     0.049 A 
HETATM   13  C18 UNL     1      20.876  27.237  14.502  1.00  0.00     0.031 A 
HETATM   14  C22 UNL     1      20.939  26.287  16.722  1.00  0.00     0.049 A 
HETATM   15  C19 UNL     1      22.142  27.692  14.669  1.00  0.00     0.010 A 
HETATM   16  C20 UNL     1      22.792  27.453  15.835  1.00  0.00    -0.049 A 
HETATM   17  C21 UNL     1      22.235  26.744  16.920  1.00  0.00    -0.034 A 
HETATM   18  C28 UNL     1      24.169  28.029  15.807  1.00  0.00     0.069 C 
HETATM   19  C24 UNL     1      22.768  26.400  18.224  1.00  0.00     0.070 C 
HETATM   20  C25 UNL     1      24.204  27.024  18.239  1.00  0.00     0.276 C 
HETATM   21  N7  UNL     1      25.081  26.353  17.348  1.00  0.00     0.084 N 
HETATM   22  C26 UNL     1      26.330  25.946  17.929  1.00  0.00     0.309 C 
HETATM   23  C27 UNL     1      25.219  26.971  16.061  1.00  0.00     0.276 C 
HETATM   24  C23 UNL     1      20.295  25.580  17.698  1.00  0.00     0.200 A 
HETATM   25  O2  UNL     1      20.841  25.326  18.792  1.00  0.00    -0.286 OA
BRANCH  11  26
HETATM   26  C15 UNL     1      18.282  26.358  14.048  1.00  0.00     0.124 C 
HETATM   27  C16 UNL     1      17.217  25.296  13.820  1.00  0.00     0.027 C 
ENDBRANCH  11  26
ENDBRANCH   6   9
BRANCH   1  28
HETATM   28  S1  UNL     1      16.396  21.430  20.200  1.00  0.00    -0.083 SA
BRANCH  28  29
HETATM   29  C10 UNL     1      15.597  20.668  18.785  1.00  0.00     0.185 C 
BRANCH  29  30
HETATM   30  C9  UNL     1      14.277  20.062  19.146  1.00  0.00     0.227 C 
HETATM   31  N3  UNL     1      13.274  19.861  18.158  1.00  0.00    -0.360 N 
ATOM     32  H3  UNL     1      13.458  20.135  17.193  1.00  0.00     0.162 HD
HETATM   33  O1  UNL     1      14.056  19.728  20.334  1.00  0.00    -0.273 OA
BRANCH  31  34
HETATM   34  C8  UNL     1      12.011  19.282  18.495  1.00  0.00     0.124 C 
BRANCH  34  35
HETATM   35  C7  UNL     1      10.953  19.647  17.475  1.00  0.00     0.039 C 
BRANCH  35  36
HETATM   36  C6  UNL     1      11.238  18.867  16.228  1.00  0.00     0.118 C 
BRANCH  36  37
HETATM   37  N2  UNL     1      11.445  19.678  15.056  1.00  0.00    -0.409 N 
HETATM   38  C5  UNL     1      12.686  19.453  14.401  1.00  0.00     0.147 C 
HETATM   39  C4  UNL     1      13.763  20.447  14.667  1.00  0.00     0.291 C 
HETATM   40  N1  UNL     1      13.290  21.781  14.969  1.00  0.00     0.091 N 
HETATM   41  C30 UNL     1      11.969  22.012  14.460  1.00  0.00     0.291 C 
HETATM   42  C29 UNL     1      11.043  21.039  15.198  1.00  0.00     0.147 C 
BRANCH  40  43
HETATM   43  C3  UNL     1      14.253  22.796  14.589  1.00  0.00     0.272 C 
BRANCH  43  44
HETATM   44  C2  UNL     1      15.232  22.116  13.632  1.00  0.00     0.026 C 
HETATM   45  C1  UNL     1      15.017  22.666  12.251  1.00  0.00     0.007 C 
ENDBRANCH  43  44
ENDBRANCH  40  43
ENDBRANCH  36  37
ENDBRANCH  35  36
ENDBRANCH  34  35
ENDBRANCH  31  34
ENDBRANCH  29  30
ENDBRANCH  28  29
ENDBRANCH   1  28
TORSDOF 11
ENDMDL
MODEL 5
REMARK VINA RESULT: -9.230109994      1.919      2.455
REMARK  11 active torsions:
REMARK  status: ('A' for Active; 'I' for Inactive)
REMARK    1  A    between atoms: C2_2  and  C3_3 
REMARK    2  A    between atoms: C3_3  and  N1_4 
REMARK    3  A    between atoms: N2_7  and  C6_8 
REMARK    4  A    between atoms: C6_8  and  C7_9 
REMARK    5  A    between atoms: C7_9  and  C8_10 
REMARK    6  A    between atoms: C8_10  and  N3_11 
REMARK       I    between atoms: N3_11  and  C9_13 
REMARK    7  A    between atoms: C9_13  and  C10_15 
REMARK    8  A    between atoms: C10_15  and  S1_16 
REMARK    9  A    between atoms: S1_16  and  C11_17 
REMARK   10  A    between atoms: C12_22  and  C13_23 
REMARK   11  A    between atoms: N6_25  and  C15_26 
ROOT
HETATM    1  C11 UNL     1      17.363  22.996  19.529  1.00  0.00     0.161 A 
HETATM    2  N4  UNL     1      17.710  23.832  20.501  1.00  0.00    -0.278 N 
ATOM      3  H4  UNL     1      17.425  23.759  21.477  1.00  0.00     0.189 HD
HETATM    4  N5  UNL     1      18.489  24.779  19.990  1.00  0.00    -0.283 N 
ATOM      5  H5  UNL     1      18.906  25.557  20.502  1.00  0.00     0.188 HD
HETATM    6  C12 UNL     1      18.630  24.525  18.668  1.00  0.00     0.137 A 
HETATM    7  N8  UNL     1      17.937  23.431  18.398  1.00  0.00    -0.320 N 
ATOM      8  H8  UNL     1      17.853  22.992  17.481  1.00  0.00     0.169 HD
ENDROOT
BRANCH   6   9
HETATM    9  C13 UNL     1      19.427  25.367  17.764  1.00  0.00     0.076 A 
HETATM   10  C14 UNL     1      18.964  25.828  16.563  1.00  0.00     0.110 A 
HETATM   11  N6  UNL     1      19.722  26.598  15.750  1.00  0.00    -0.355 N 
HETATM   12  C17 UNL     1      20.971  26.916  16.143  1.00  0.00     0.049 A 
HETATM   13  C18 UNL     1      21.731  27.693  15.301  1.00  0.00     0.031 A 
HETATM   14  C22 UNL     1      21.507  26.470  17.372  1.00  0.00     0.049 A 
HETATM   15  C19 UNL     1      22.996  28.033  15.649  1.00  0.00     0.010 A 
HETATM   16  C20 UNL     1      23.506  27.604  16.829  1.00  0.00    -0.049 A 
HETATM   17  C21 UNL     1      22.799  26.806  17.753  1.00  0.00    -0.034 A 
HETATM   18  C28 UNL     1      24.909  28.082  17.011  1.00  0.00     0.069 C 
HETATM   19  C24 UNL     1      23.172  26.265  19.045  1.00  0.00     0.070 C 
HETATM   20  C25 UNL     1      24.633  26.780  19.280  1.00  0.00     0.276 C 
HETATM   21  N7  UNL     1      25.558  26.165  18.398  1.00  0.00     0.084 N 
HETATM   22  C26 UNL     1      26.714  25.602  19.037  1.00  0.00     0.309 C 
HETATM   23  C27 UNL     1      25.864  26.929  17.222  1.00  0.00     0.276 C 
HETATM   24  C23 UNL     1      20.725  25.693  18.180  1.00  0.00     0.200 A 
HETATM   25  O2  UNL     1      21.138  25.266  19.278  1.00  0.00    -0.286 OA
BRANCH  11  26
HETATM   26  C15 UNL     1      19.152  27.062  14.488  1.00  0.00     0.124 C 
HETATM   27  C16 UNL     1      18.067  26.107  14.014  1.00  0.00     0.027 C 
ENDBRANCH  11  26
ENDBRANCH   6   9
BRANCH   1  28
HETATM   28  S1  UNL     1      16.322  21.567  19.717  1.00  0.00    -0.083 SA
BRANCH  28  29
HETATM   29  C10 UNL     1      14.691  21.861  19.028  1.00  0.00     0.185 C 
BRANCH  29  30
HETATM   30  C9  UNL     1      14.066  20.602  18.514  1.00  0.00     0.227 C 
HETATM   31  N3  UNL     1      12.748  20.609  17.981  1.00  0.00    -0.360 N 
ATOM     32  H3  UNL     1      12.224  21.483  17.950  1.00  0.00     0.162 HD
HETATM   33  O1  UNL     1      14.714  19.529  18.556  1.00  0.00    -0.273 OA
BRANCH  31  34
HETATM   34  C8  UNL     1      12.144  19.411  17.487  1.00  0.00     0.124 C 
BRANCH  34  35
HETATM   35  C7  UNL     1      11.003  19.723  16.541  1.00  0.00     0.039 C 
BRANCH  35  36
HETATM   36  C6  UNL     1      11.375  19.189  15.191  1.00  0.00     0.118 C 
BRANCH  36  37
HETATM   37  N2  UNL     1      11.885  20.182  14.282  1.00  0.00    -0.409 N 
HETATM   38  C5  UNL     1      13.241  19.987  13.904  1.00  0.00     0.147 C 
HETATM   39  C4  UNL     1      14.250  20.832  14.602  1.00  0.00     0.291 C 
HETATM   40  N1  UNL     1      13.756  22.120  15.038  1.00  0.00     0.091 N 
HETATM   41  C30 UNL     1      12.605  22.539  14.290  1.00  0.00     0.291 C 
HETATM   42  C29 UNL     1      11.500  21.521  14.587  1.00  0.00     0.147 C 
BRANCH  40  43
HETATM   43  C3  UNL     1      14.811  23.113  15.099  1.00  0.00     0.272 C 
BRANCH  43  44
HETATM   44  C2  UNL     1      15.956  22.568  14.243  1.00  0.00     0.026 C 
HETATM   45  C1  UNL     1      16.002  23.338  12.954  1.00  0.00     0.007 C 
ENDBRANCH  43  44
ENDBRANCH  40  43
ENDBRANCH  36  37
ENDBRANCH  35  36
ENDBRANCH  34  35
ENDBRANCH  31  34
ENDBRANCH  29  30
ENDBRANCH  28  29
ENDBRANCH   1  28
TORSDOF 11
ENDMDL
