MODEL 1
REMARK VINA RESULT: -9.622681963      0.000      0.000
REMARK  12 active torsions:
REMARK  status: ('A' for Active; 'I' for Inactive)
REMARK    1  A    between atoms: O1_2  and  C2_3 
REMARK    2  A    between atoms: C4_5  and  C5_6 
REMARK    3  A    between atoms: C5_6  and  C6_7 
REMARK    4  A    between atoms: C6_7  and  N1_8 
REMARK    5  A    between atoms: C12_17  and  N3_18 
REMARK    6  A    between atoms: N3_18  and  C13_20 
REMARK    7  A    between atoms: C13_20  and  C14_21 
REMARK    8  A    between atoms: C14_21  and  C15_22 
REMARK    9  A    between atoms: C15_22  and  N4_23 
REMARK   10  A    between atoms: N5_26  and  C18_27 
REMARK   11  A    between atoms: C28_43  and  O2_44 
REMARK   12  A    between atoms: C30_46  and  O3_47 
ROOT
HETATM    1  N1  UNL     1      14.352  19.864  20.532  1.00  0.00    -0.226 N 
ATOM      2  H1  UNL     1      14.511  20.262  21.457  1.00  0.00     0.177 HD
HETATM    3  C7  UNL     1      14.678  20.608  19.542  1.00  0.00     0.678 A 
HETATM    4  N2  UNL     1      15.199  21.846  19.804  1.00  0.00    -0.201 N 
ATOM      5  H2  UNL     1      15.318  22.152  20.769  1.00  0.00     0.183 HD
HETATM    6  C8  UNL     1      15.557  22.662  18.793  1.00  0.00     0.120 A 
HETATM    7  C9  UNL     1      15.418  22.300  17.471  1.00  0.00     0.008 A 
HETATM    8  C10 UNL     1      15.777  23.120  16.419  1.00  0.00     0.032 A 
HETATM    9  C11 UNL     1      15.628  22.730  15.103  1.00  0.00     0.035 A 
HETATM   10  C12 UNL     1      15.996  23.578  14.039  1.00  0.00     0.114 A 
HETATM   11  N6  UNL     1      15.846  23.197  12.763  1.00  0.00    -0.338 N 
ATOM     12  H6  UNL     1      16.113  23.809  11.992  1.00  0.00     0.168 HD
HETATM   13  C23 UNL     1      15.325  21.964  12.538  1.00  0.00     0.182 A 
HETATM   14  N7  UNL     1      14.973  21.153  13.547  1.00  0.00    -0.351 N 
ATOM     15  H7  UNL     1      14.586  20.235  13.324  1.00  0.00     0.166 HD
HETATM   16  C24 UNL     1      15.107  21.497  14.834  1.00  0.00     0.049 A 
HETATM   17  C25 UNL     1      14.744  20.668  15.889  1.00  0.00     0.061 A 
HETATM   18  C26 UNL     1      14.889  21.043  17.214  1.00  0.00     0.063 A 
HETATM   19  N8  UNL     1      14.552  20.275  18.247  1.00  0.00    -0.191 N 
ATOM     20  H8  UNL     1      14.164  19.355  18.037  1.00  0.00     0.184 HD
ENDROOT
BRANCH   1  21
HETATM   21  C6  UNL     1      13.801  18.556  20.509  1.00  0.00     0.142 C 
BRANCH  21  22
HETATM   22  C5  UNL     1      12.304  18.598  20.514  1.00  0.00     0.059 C 
BRANCH  22  23
HETATM   23  C4  UNL     1      11.737  18.258  19.171  1.00  0.00    -0.051 A 
HETATM   24  C3  UNL     1      11.268  19.210  18.293  1.00  0.00     0.047 A 
HETATM   25  C2  UNL     1      10.750  18.846  17.051  1.00  0.00     0.104 A 
HETATM   26  C30 UNL     1      10.686  17.524  16.653  1.00  0.00     0.135 A 
HETATM   27  C28 UNL     1      11.155  16.573  17.534  1.00  0.00     0.104 A 
HETATM   28  C27 UNL     1      11.668  16.939  18.766  1.00  0.00     0.047 A 
BRANCH  25  29
HETATM   29  O1  UNL     1      10.273  19.796  16.154  1.00  0.00    -0.353 OA
HETATM   30  C1  UNL     1      11.243  20.544  15.406  1.00  0.00     0.210 C 
ENDBRANCH  25  29
BRANCH  26  31
HETATM   31  O3  UNL     1      10.163  17.191  15.409  1.00  0.00    -0.351 OA
HETATM   32  C31 UNL     1      11.027  17.016  14.306  1.00  0.00     0.210 C 
ENDBRANCH  26  31
BRANCH  27  33
HETATM   33  O2  UNL     1      11.088  15.247  17.127  1.00  0.00    -0.353 OA
HETATM   34  C29 UNL     1       9.997  14.465  17.593  1.00  0.00     0.210 C 
ENDBRANCH  27  33
ENDBRANCH  22  23
ENDBRANCH  21  22
ENDBRANCH   1  21
BRANCH  10  35
HETATM   35  N3  UNL     1      16.479  24.707  14.370  1.00  0.00    -0.376 N 
ATOM     36  H3  UNL     1      16.008  25.238  15.103  1.00  0.00     0.161 HD
BRANCH  35  37
HETATM   37  C13 UNL     1      17.643  25.267  13.770  1.00  0.00     0.123 C 
BRANCH  37  38
HETATM   38  C14 UNL     1      18.291  26.195  14.777  1.00  0.00     0.050 C 
BRANCH  38  39
HETATM   39  C15 UNL     1      18.246  25.650  16.170  1.00  0.00     0.274 C 
BRANCH  39  40
HETATM   40  N4  UNL     1      19.413  24.846  16.412  1.00  0.00     0.091 N 
HETATM   41  C16 UNL     1      19.201  23.756  17.306  1.00  0.00     0.291 C 
HETATM   42  C17 UNL     1      19.287  24.151  18.783  1.00  0.00     0.147 C 
HETATM   43  N5  UNL     1      20.452  24.890  19.064  1.00  0.00    -0.405 N 
HETATM   44  C21 UNL     1      20.662  25.974  18.183  1.00  0.00     0.147 C 
HETATM   45  C22 UNL     1      20.523  25.688  16.722  1.00  0.00     0.291 C 
BRANCH  43  46
HETATM   46  C18 UNL     1      21.574  24.110  19.422  1.00  0.00     0.079 A 
HETATM   47  C19 UNL     1      22.093  24.224  20.822  1.00  0.00     0.027 A 
HETATM   48  C20 UNL     1      21.516  22.925  20.274  1.00  0.00     0.027 A 
ENDBRANCH  43  46
ENDBRANCH  39  40
ENDBRANCH  38  39
ENDBRANCH  37  38
ENDBRANCH  35  37
ENDBRANCH  10  35
TORSDOF 12
ENDMDL
MODEL 2
REMARK VINA RESULT: -9.579297684      0.209      1.922
REMARK  12 active torsions:
REMARK  status: ('A' for Active; 'I' for Inactive)
REMARK    1  A    between atoms: O1_2  and  C2_3 
REMARK    2  A    between atoms: C4_5  and  C5_6 
REMARK    3  A    between atoms: C5_6  and  C6_7 
REMARK    4  A    between atoms: C6_7  and  N1_8 
REMARK    5  A    between atoms: C12_17  and  N3_18 
REMARK    6  A    between atoms: N3_18  and  C13_20 
REMARK    7  A    between atoms: C13_20  and  C14_21 
REMARK    8  A    between atoms: C14_21  and  C15_22 
REMARK    9  A    between atoms: C15_22  and  N4_23 
REMARK   10  A    between atoms: N5_26  and  C18_27 
REMARK   11  A    between atoms: C28_43  and  O2_44 
REMARK   12  A    between atoms: C30_46  and  O3_47 
ROOT
HETATM    1  N1  UNL     1      14.336  19.798  20.652  1.00  0.00    -0.226 N 
ATOM      2  H1  UNL     1      14.507  20.169  21.587  1.00  0.00     0.177 HD
HETATM    3  C7  UNL     1      14.695  20.551  19.681  1.00  0.00     0.678 A 
HETATM    4  N2  UNL     1      15.264  21.761  19.972  1.00  0.00    -0.201 N 
ATOM      5  H2  UNL     1      15.391  22.040  20.944  1.00  0.00     0.183 HD
HETATM    6  C8  UNL     1      15.657  22.585  18.981  1.00  0.00     0.120 A 
HETATM    7  C9  UNL     1      15.510  22.259  17.651  1.00  0.00     0.008 A 
HETATM    8  C10 UNL     1      15.905  23.087  16.619  1.00  0.00     0.032 A 
HETATM    9  C11 UNL     1      15.745  22.734  15.294  1.00  0.00     0.035 A 
HETATM   10  C12 UNL     1      16.151  23.590  14.251  1.00  0.00     0.114 A 
HETATM   11  N6  UNL     1      15.991  23.245  12.966  1.00  0.00    -0.338 N 
ATOM     12  H6  UNL     1      16.285  23.863  12.211  1.00  0.00     0.168 HD
HETATM   13  C23 UNL     1      15.423  22.039  12.711  1.00  0.00     0.182 A 
HETATM   14  N7  UNL     1      15.035  21.220  13.700  1.00  0.00    -0.351 N 
ATOM     15  H7  UNL     1      14.613  20.324  13.455  1.00  0.00     0.166 HD
HETATM   16  C24 UNL     1      15.178  21.529  14.996  1.00  0.00     0.049 A 
HETATM   17  C25 UNL     1      14.778  20.691  16.030  1.00  0.00     0.061 A 
HETATM   18  C26 UNL     1      14.932  21.030  17.364  1.00  0.00     0.063 A 
HETATM   19  N8  UNL     1      14.561  20.253  18.378  1.00  0.00    -0.191 N 
ATOM     20  H8  UNL     1      14.138  19.354  18.146  1.00  0.00     0.184 HD
ENDROOT
BRANCH   1  21
HETATM   21  C6  UNL     1      13.733  18.514  20.597  1.00  0.00     0.142 C 
BRANCH  21  22
HETATM   22  C5  UNL     1      12.241  18.617  20.554  1.00  0.00     0.059 C 
BRANCH  22  23
HETATM   23  C4  UNL     1      11.697  18.204  19.221  1.00  0.00    -0.051 A 
HETATM   24  C3  UNL     1      11.637  16.890  18.812  1.00  0.00     0.047 A 
HETATM   25  C2  UNL     1      11.121  16.553  17.561  1.00  0.00     0.104 A 
HETATM   26  C30 UNL     1      10.651  17.516  16.688  1.00  0.00     0.135 A 
HETATM   27  C28 UNL     1      10.714  18.830  17.101  1.00  0.00     0.104 A 
HETATM   28  C27 UNL     1      11.227  19.160  18.342  1.00  0.00     0.047 A 
BRANCH  25  29
HETATM   29  O1  UNL     1      11.052  15.231  17.134  1.00  0.00    -0.353 OA
HETATM   30  C1  UNL     1       9.945  14.443  17.596  1.00  0.00     0.210 C 
ENDBRANCH  25  29
BRANCH  26  31
HETATM   31  O3  UNL     1      10.142  17.149  15.448  1.00  0.00    -0.351 OA
HETATM   32  C31 UNL     1      11.011  16.997  14.347  1.00  0.00     0.210 C 
ENDBRANCH  26  31
BRANCH  27  33
HETATM   33  O2  UNL     1      10.240  19.793  16.218  1.00  0.00    -0.353 OA
HETATM   34  C29 UNL     1      11.194  20.535  15.473  1.00  0.00     0.210 C 
ENDBRANCH  27  33
ENDBRANCH  22  23
ENDBRANCH  21  22
ENDBRANCH   1  21
BRANCH  10  35
HETATM   35  N3  UNL     1      16.677  24.692  14.610  1.00  0.00    -0.376 N 
ATOM     36  H3  UNL     1      16.471  25.045  15.544  1.00  0.00     0.161 HD
BRANCH  35  37
HETATM   37  C13 UNL     1      17.539  25.456  13.772  1.00  0.00     0.123 C 
BRANCH  37  38
HETATM   38  C14 UNL     1      18.497  26.224  14.660  1.00  0.00     0.050 C 
BRANCH  38  39
HETATM   39  C15 UNL     1      18.448  25.770  16.085  1.00  0.00     0.274 C 
BRANCH  39  40
HETATM   40  N4  UNL     1      19.636  25.024  16.396  1.00  0.00     0.091 N 
HETATM   41  C16 UNL     1      19.428  23.930  17.285  1.00  0.00     0.291 C 
HETATM   42  C17 UNL     1      19.416  24.336  18.761  1.00  0.00     0.147 C 
HETATM   43  N5  UNL     1      20.527  25.132  19.099  1.00  0.00    -0.405 N 
HETATM   44  C21 UNL     1      20.733  26.219  18.222  1.00  0.00     0.147 C 
HETATM   45  C22 UNL     1      20.687  25.919  16.758  1.00  0.00     0.291 C 
BRANCH  43  46
HETATM   46  C18 UNL     1      21.664  24.408  19.523  1.00  0.00     0.079 A 
HETATM   47  C19 UNL     1      22.171  24.643  20.913  1.00  0.00     0.027 A 
HETATM   48  C20 UNL     1      21.627  23.292  20.464  1.00  0.00     0.027 A 
ENDBRANCH  43  46
ENDBRANCH  39  40
ENDBRANCH  38  39
ENDBRANCH  37  38
ENDBRANCH  35  37
ENDBRANCH  10  35
TORSDOF 12
ENDMDL
MODEL 3
REMARK VINA RESULT: -9.563703040      0.973      1.400
REMARK  12 active torsions:
REMARK  status: ('A' for Active; 'I' for Inactive)
REMARK    1  A    between atoms: O1_2  and  C2_3 
REMARK    2  A    between atoms: C4_5  and  C5_6 
REMARK    3  A    between atoms: C5_6  and  C6_7 
REMARK    4  A    between atoms: C6_7  and  N1_8 
REMARK    5  A    between atoms: C12_17  and  N3_18 
REMARK    6  A    between atoms: N3_18  and  C13_20 
REMARK    7  A    between atoms: C13_20  and  C14_21 
REMARK    8  A    between atoms: C14_21  and  C15_22 
REMARK    9  A    between atoms: C15_22  and  N4_23 
REMARK   10  A    between atoms: N5_26  and  C18_27 
REMARK   11  A    between atoms: C28_43  and  O2_44 
REMARK   12  A    between atoms: C30_46  and  O3_47 
ROOT
HETATM    1  N1  UNL     1      14.335  19.726  20.658  1.00  0.00    -0.226 N 
ATOM      2  H1  UNL     1      14.471  20.047  21.616  1.00  0.00     0.177 HD
HETATM    3  C7  UNL     1      14.714  20.536  19.741  1.00  0.00     0.678 A 
HETATM    4  N2  UNL     1      15.257  21.735  20.118  1.00  0.00    -0.201 N 
ATOM      5  H2  UNL     1      15.350  21.961  21.107  1.00  0.00     0.183 HD
HETATM    6  C8  UNL     1      15.671  22.618  19.187  1.00  0.00     0.120 A 
HETATM    7  C9  UNL     1      15.569  22.364  17.836  1.00  0.00     0.008 A 
HETATM    8  C10 UNL     1      15.986  23.253  16.866  1.00  0.00     0.032 A 
HETATM    9  C11 UNL     1      15.873  22.973  15.519  1.00  0.00     0.035 A 
HETATM   10  C12 UNL     1      16.300  23.890  14.538  1.00  0.00     0.114 A 
HETATM   11  N6  UNL     1      16.185  23.615  13.232  1.00  0.00    -0.338 N 
ATOM     12  H6  UNL     1      16.495  24.278  12.521  1.00  0.00     0.168 HD
HETATM   13  C23 UNL     1      15.641  22.419  12.892  1.00  0.00     0.182 A 
HETATM   14  N7  UNL     1      15.233  21.541  13.821  1.00  0.00    -0.351 N 
ATOM     15  H7  UNL     1      14.831  20.655  13.514  1.00  0.00     0.166 HD
HETATM   16  C24 UNL     1      15.331  21.779  15.136  1.00  0.00     0.049 A 
HETATM   17  C25 UNL     1      14.910  20.881  16.109  1.00  0.00     0.061 A 
HETATM   18  C26 UNL     1      15.017  21.146  17.464  1.00  0.00     0.063 A 
HETATM   19  N8  UNL     1      14.625  20.310  18.421  1.00  0.00    -0.191 N 
ATOM     20  H8  UNL     1      14.221  19.421  18.126  1.00  0.00     0.184 HD
ENDROOT
BRANCH   1  21
HETATM   21  C6  UNL     1      13.751  18.441  20.513  1.00  0.00     0.142 C 
BRANCH  21  22
HETATM   22  C5  UNL     1      12.257  18.523  20.490  1.00  0.00     0.059 C 
BRANCH  22  23
HETATM   23  C4  UNL     1      11.706  18.198  19.136  1.00  0.00    -0.051 A 
HETATM   24  C3  UNL     1      11.260  19.161  18.259  1.00  0.00     0.047 A 
HETATM   25  C2  UNL     1      10.756  18.811  17.007  1.00  0.00     0.104 A 
HETATM   26  C30 UNL     1      10.684  17.493  16.598  1.00  0.00     0.135 A 
HETATM   27  C28 UNL     1      11.131  16.531  17.479  1.00  0.00     0.104 A 
HETATM   28  C27 UNL     1      11.630  16.883  18.721  1.00  0.00     0.047 A 
BRANCH  25  29
HETATM   29  O1  UNL     1      10.303  19.772  16.109  1.00  0.00    -0.353 OA
HETATM   30  C1  UNL     1      11.292  20.543  15.410  1.00  0.00     0.210 C 
ENDBRANCH  25  29
BRANCH  26  31
HETATM   31  O3  UNL     1      10.177  17.174  15.344  1.00  0.00    -0.351 OA
HETATM   32  C31 UNL     1      11.055  16.994  14.254  1.00  0.00     0.210 C 
ENDBRANCH  26  31
BRANCH  27  33
HETATM   33  O2  UNL     1      11.056  15.208  17.062  1.00  0.00    -0.353 OA
HETATM   34  C29 UNL     1       9.958  14.431  17.517  1.00  0.00     0.210 C 
ENDBRANCH  27  33
ENDBRANCH  22  23
ENDBRANCH  21  22
ENDBRANCH   1  21
BRANCH  10  35
HETATM   35  N3  UNL     1      16.800  24.976  14.974  1.00  0.00    -0.376 N 
ATOM     36  H3  UNL     1      16.242  25.544  15.611  1.00  0.00     0.161 HD
BRANCH  35  37
HETATM   37  C13 UNL     1      18.098  25.439  14.616  1.00  0.00     0.123 C 
BRANCH  37  38
HETATM   38  C14 UNL     1      19.118  24.587  15.344  1.00  0.00     0.050 C 
BRANCH  38  39
HETATM   39  C15 UNL     1      20.221  25.401  15.945  1.00  0.00     0.274 C 
BRANCH  39  40
HETATM   40  N4  UNL     1      19.764  26.008  17.165  1.00  0.00     0.091 N 
HETATM   41  C16 UNL     1      20.594  27.064  17.643  1.00  0.00     0.291 C 
HETATM   42  C17 UNL     1      21.798  26.575  18.453  1.00  0.00     0.147 C 
HETATM   43  N5  UNL     1      21.424  25.656  19.453  1.00  0.00    -0.405 N 
HETATM   44  C21 UNL     1      20.604  24.607  18.980  1.00  0.00     0.147 C 
HETATM   45  C22 UNL     1      19.446  24.995  18.119  1.00  0.00     0.291 C 
BRANCH  43  46
HETATM   46  C18 UNL     1      21.089  26.240  20.695  1.00  0.00     0.079 A 
HETATM   47  C19 UNL     1      22.187  26.458  21.690  1.00  0.00     0.027 A 
HETATM   48  C20 UNL     1      21.409  27.614  21.073  1.00  0.00     0.027 A 
ENDBRANCH  43  46
ENDBRANCH  39  40
ENDBRANCH  38  39
ENDBRANCH  37  38
ENDBRANCH  35  37
ENDBRANCH  10  35
TORSDOF 12
ENDMDL
MODEL 4
REMARK VINA RESULT: -9.424219233      1.257      4.628
REMARK  12 active torsions:
REMARK  status: ('A' for Active; 'I' for Inactive)
REMARK    1  A    between atoms: O1_2  and  C2_3 
REMARK    2  A    between atoms: C4_5  and  C5_6 
REMARK    3  A    between atoms: C5_6  and  C6_7 
REMARK    4  A    between atoms: C6_7  and  N1_8 
REMARK    5  A    between atoms: C12_17  and  N3_18 
REMARK    6  A    between atoms: N3_18  and  C13_20 
REMARK    7  A    between atoms: C13_20  and  C14_21 
REMARK    8  A    between atoms: C14_21  and  C15_22 
REMARK    9  A    between atoms: C15_22  and  N4_23 
REMARK   10  A    between atoms: N5_26  and  C18_27 
REMARK   11  A    between atoms: C28_43  and  O2_44 
REMARK   12  A    between atoms: C30_46  and  O3_47 
ROOT
HETATM    1  N1  UNL     1      13.967  20.463  19.641  1.00  0.00    -0.226 N 
ATOM      2  H1  UNL     1      13.066  20.790  19.294  1.00  0.00     0.177 HD
HETATM    3  C7  UNL     1      14.941  21.285  19.524  1.00  0.00     0.678 A 
HETATM    4  N2  UNL     1      14.695  22.507  18.958  1.00  0.00    -0.201 N 
ATOM      5  H2  UNL     1      13.754  22.739  18.642  1.00  0.00     0.183 HD
HETATM    6  C8  UNL     1      15.690  23.405  18.816  1.00  0.00     0.120 A 
HETATM    7  C9  UNL     1      16.980  23.144  19.224  1.00  0.00     0.008 A 
HETATM    8  C10 UNL     1      18.014  24.049  19.089  1.00  0.00     0.032 A 
HETATM    9  C11 UNL     1      19.298  23.761  19.508  1.00  0.00     0.035 A 
HETATM   10  C12 UNL     1      20.345  24.692  19.361  1.00  0.00     0.114 A 
HETATM   11  N6  UNL     1      21.590  24.408  19.767  1.00  0.00    -0.338 N 
ATOM     12  H6  UNL     1      22.349  25.081  19.662  1.00  0.00     0.168 HD
HETATM   13  C23 UNL     1      21.801  23.187  20.323  1.00  0.00     0.182 A 
HETATM   14  N7  UNL     1      20.808  22.297  20.465  1.00  0.00    -0.351 N 
ATOM     15  H7  UNL     1      21.018  21.394  20.890  1.00  0.00     0.166 HD
HETATM   16  C24 UNL     1      19.551  22.544  20.073  1.00  0.00     0.049 A 
HETATM   17  C25 UNL     1      18.513  21.630  20.212  1.00  0.00     0.061 A 
HETATM   18  C26 UNL     1      17.220  21.903  19.797  1.00  0.00     0.063 A 
HETATM   19  N8  UNL     1      16.204  21.053  19.915  1.00  0.00    -0.191 N 
ATOM     20  H8  UNL     1      16.403  20.146  20.338  1.00  0.00     0.184 HD
ENDROOT
BRANCH   1  21
HETATM   21  C6  UNL     1      13.979  19.154  20.190  1.00  0.00     0.142 C 
BRANCH  21  22
HETATM   22  C5  UNL     1      12.589  18.636  20.390  1.00  0.00     0.059 C 
BRANCH  22  23
HETATM   23  C4  UNL     1      11.940  18.278  19.088  1.00  0.00    -0.051 A 
HETATM   24  C3  UNL     1      11.446  19.220  18.214  1.00  0.00     0.047 A 
HETATM   25  C2  UNL     1      10.851  18.839  17.012  1.00  0.00     0.104 A 
HETATM   26  C30 UNL     1      10.735  17.510  16.651  1.00  0.00     0.135 A 
HETATM   27  C28 UNL     1      11.231  16.569  17.529  1.00  0.00     0.104 A 
HETATM   28  C27 UNL     1      11.820  16.952  18.721  1.00  0.00     0.047 A 
BRANCH  25  29
HETATM   29  O1  UNL     1      10.347  19.779  16.118  1.00  0.00    -0.353 OA
HETATM   30  C1  UNL     1      11.296  20.569  15.386  1.00  0.00     0.210 C 
ENDBRANCH  25  29
BRANCH  26  31
HETATM   31  O3  UNL     1      10.137  17.160  15.446  1.00  0.00    -0.351 OA
HETATM   32  C31 UNL     1      10.932  16.964  14.296  1.00  0.00     0.210 C 
ENDBRANCH  26  31
BRANCH  27  33
HETATM   33  O2  UNL     1      11.111  15.235  17.159  1.00  0.00    -0.353 OA
HETATM   34  C29 UNL     1      10.042  14.486  17.720  1.00  0.00     0.210 C 
ENDBRANCH  27  33
ENDBRANCH  22  23
ENDBRANCH  21  22
ENDBRANCH   1  21
BRANCH  10  35
HETATM   35  N3  UNL     1      20.029  25.805  18.832  1.00  0.00    -0.376 N 
ATOM     36  H3  UNL     1      19.074  26.143  18.950  1.00  0.00     0.161 HD
BRANCH  35  37
HETATM   37  C13 UNL     1      20.942  26.604  18.085  1.00  0.00     0.123 C 
BRANCH  37  38
HETATM   38  C14 UNL     1      20.683  26.361  16.613  1.00  0.00     0.050 C 
BRANCH  38  39
HETATM   39  C15 UNL     1      19.226  26.206  16.304  1.00  0.00     0.274 C 
BRANCH  39  40
HETATM   40  N4  UNL     1      19.065  25.418  15.113  1.00  0.00     0.091 N 
HETATM   41  C16 UNL     1      17.925  25.763  14.329  1.00  0.00     0.291 C 
HETATM   42  C17 UNL     1      16.629  25.111  14.817  1.00  0.00     0.147 C 
HETATM   43  N5  UNL     1      16.777  23.725  15.016  1.00  0.00    -0.405 N 
HETATM   44  C21 UNL     1      17.903  23.381  15.795  1.00  0.00     0.147 C 
HETATM   45  C22 UNL     1      19.198  24.033  15.430  1.00  0.00     0.291 C 
BRANCH  43  46
HETATM   46  C18 UNL     1      16.501  22.934  13.878  1.00  0.00     0.079 A 
HETATM   47  C19 UNL     1      15.260  22.096  13.887  1.00  0.00     0.027 A 
HETATM   48  C20 UNL     1      15.464  23.235  12.896  1.00  0.00     0.027 A 
ENDBRANCH  43  46
ENDBRANCH  39  40
ENDBRANCH  38  39
ENDBRANCH  37  38
ENDBRANCH  35  37
ENDBRANCH  10  35
TORSDOF 12
ENDMDL
MODEL 5
REMARK VINA RESULT: -9.414716149      1.269      5.023
REMARK  12 active torsions:
REMARK  status: ('A' for Active; 'I' for Inactive)
REMARK    1  A    between atoms: O1_2  and  C2_3 
REMARK    2  A    between atoms: C4_5  and  C5_6 
REMARK    3  A    between atoms: C5_6  and  C6_7 
REMARK    4  A    between atoms: C6_7  and  N1_8 
REMARK    5  A    between atoms: C12_17  and  N3_18 
REMARK    6  A    between atoms: N3_18  and  C13_20 
REMARK    7  A    between atoms: C13_20  and  C14_21 
REMARK    8  A    between atoms: C14_21  and  C15_22 
REMARK    9  A    between atoms: C15_22  and  N4_23 
REMARK   10  A    between atoms: N5_26  and  C18_27 
REMARK   11  A    between atoms: C28_43  and  O2_44 
REMARK   12  A    between atoms: C30_46  and  O3_47 
ROOT
HETATM    1  N1  UNL     1      13.980  20.518  19.531  1.00  0.00    -0.226 N 
ATOM      2  H1  UNL     1      13.083  20.859  19.184  1.00  0.00     0.177 HD
HETATM    3  C7  UNL     1      14.958  21.340  19.445  1.00  0.00     0.678 A 
HETATM    4  N2  UNL     1      14.723  22.577  18.909  1.00  0.00    -0.201 N 
ATOM      5  H2  UNL     1      13.785  22.821  18.590  1.00  0.00     0.183 HD
HETATM    6  C8  UNL     1      15.722  23.474  18.800  1.00  0.00     0.120 A 
HETATM    7  C9  UNL     1      17.007  23.197  19.214  1.00  0.00     0.008 A 
HETATM    8  C10 UNL     1      18.047  24.101  19.112  1.00  0.00     0.032 A 
HETATM    9  C11 UNL     1      19.325  23.796  19.535  1.00  0.00     0.035 A 
HETATM   10  C12 UNL     1      20.377  24.726  19.424  1.00  0.00     0.114 A 
HETATM   11  N6  UNL     1      21.618  24.426  19.833  1.00  0.00    -0.338 N 
ATOM     12  H6  UNL     1      22.380  25.098  19.753  1.00  0.00     0.168 HD
HETATM   13  C23 UNL     1      21.818  23.190  20.359  1.00  0.00     0.182 A 
HETATM   14  N7  UNL     1      20.820  22.301  20.468  1.00  0.00    -0.351 N 
ATOM     15  H7  UNL     1      21.023  21.386  20.871  1.00  0.00     0.166 HD
HETATM   16  C24 UNL     1      19.568  22.564  20.070  1.00  0.00     0.049 A 
HETATM   17  C25 UNL     1      18.525  21.651  20.175  1.00  0.00     0.061 A 
HETATM   18  C26 UNL     1      17.237  21.940  19.756  1.00  0.00     0.063 A 
HETATM   19  N8  UNL     1      16.217  21.092  19.842  1.00  0.00    -0.191 N 
ATOM     20  H8  UNL     1      16.407  20.173  20.243  1.00  0.00     0.184 HD
ENDROOT
BRANCH   1  21
HETATM   21  C6  UNL     1      13.981  19.196  20.045  1.00  0.00     0.142 C 
BRANCH  21  22
HETATM   22  C5  UNL     1      12.587  18.695  20.260  1.00  0.00     0.059 C 
BRANCH  22  23
HETATM   23  C4  UNL     1      11.958  18.244  18.978  1.00  0.00    -0.051 A 
HETATM   24  C3  UNL     1      11.841  16.917  18.629  1.00  0.00     0.047 A 
HETATM   25  C2  UNL     1      11.246  16.544  17.424  1.00  0.00     0.104 A 
HETATM   26  C30 UNL     1      10.754  17.484  16.538  1.00  0.00     0.135 A 
HETATM   27  C28 UNL     1      10.874  18.811  16.891  1.00  0.00     0.104 A 
HETATM   28  C27 UNL     1      11.465  19.177  18.087  1.00  0.00     0.047 A 
BRANCH  25  29
HETATM   29  O1  UNL     1      11.119  15.208  17.057  1.00  0.00    -0.353 OA
HETATM   30  C1  UNL     1      10.036  14.464  17.635  1.00  0.00     0.210 C 
ENDBRANCH  25  29
BRANCH  26  31
HETATM   31  O3  UNL     1      10.166  17.082  15.344  1.00  0.00    -0.351 OA
HETATM   32  C31 UNL     1      10.947  16.980  14.174  1.00  0.00     0.210 C 
ENDBRANCH  26  31
BRANCH  27  33
HETATM   33  O2  UNL     1      10.377  19.750  15.996  1.00  0.00    -0.353 OA
HETATM   34  C29 UNL     1      11.308  20.601  15.343  1.00  0.00     0.210 C 
ENDBRANCH  27  33
ENDBRANCH  22  23
ENDBRANCH  21  22
ENDBRANCH   1  21
BRANCH  10  35
HETATM   35  N3  UNL     1      20.071  25.854  18.921  1.00  0.00    -0.376 N 
ATOM     36  H3  UNL     1      19.141  26.230  19.107  1.00  0.00     0.161 HD
BRANCH  35  37
HETATM   37  C13 UNL     1      20.961  26.619  18.113  1.00  0.00     0.123 C 
BRANCH  37  38
HETATM   38  C14 UNL     1      20.750  26.214  16.669  1.00  0.00     0.050 C 
BRANCH  38  39
HETATM   39  C15 UNL     1      19.305  26.217  16.277  1.00  0.00     0.274 C 
BRANCH  39  40
HETATM   40  N4  UNL     1      19.124  25.426  15.091  1.00  0.00     0.091 N 
HETATM   41  C16 UNL     1      17.987  25.787  14.311  1.00  0.00     0.291 C 
HETATM   42  C17 UNL     1      16.681  25.161  14.809  1.00  0.00     0.147 C 
HETATM   43  N5  UNL     1      16.805  23.774  15.014  1.00  0.00    -0.405 N 
HETATM   44  C21 UNL     1      17.929  23.414  15.790  1.00  0.00     0.147 C 
HETATM   45  C22 UNL     1      19.233  24.040  15.415  1.00  0.00     0.291 C 
BRANCH  43  46
HETATM   46  C18 UNL     1      16.510  22.981  13.882  1.00  0.00     0.079 A 
HETATM   47  C19 UNL     1      15.273  22.137  13.917  1.00  0.00     0.027 A 
HETATM   48  C20 UNL     1      15.450  23.278  12.922  1.00  0.00     0.027 A 
ENDBRANCH  43  46
ENDBRANCH  39  40
ENDBRANCH  38  39
ENDBRANCH  37  38
ENDBRANCH  35  37
ENDBRANCH  10  35
TORSDOF 12
ENDMDL
