MODEL 1
REMARK VINA RESULT: -9.222698808      0.000      0.000
REMARK  12 active torsions:
REMARK  status: ('A' for Active; 'I' for Inactive)
REMARK    1  A    between atoms: C2_2  and  C3_3 
REMARK    2  A    between atoms: C3_3  and  N1_4 
REMARK    3  A    between atoms: N1_4  and  C5_6 
REMARK    4  A    between atoms: C5_6  and  C6_7 
REMARK    5  A    between atoms: C6_7  and  N2_8 
REMARK    6  A    between atoms: N3_13  and  C10_14 
REMARK    7  A    between atoms: C10_14  and  C11_15 
REMARK    8  A    between atoms: N4_24  and  C19_25 
REMARK    9  A    between atoms: C25_33  and  N6_34 
REMARK   10  A    between atoms: N6_34  and  C26_36 
REMARK   11  A    between atoms: C26_36  and  C27_37 
REMARK   12  A    between atoms: C27_37  and  O3_38 
ROOT
HETATM    1  N2  UNL     1      17.845  21.741  19.328  1.00  0.00    -0.264 N 
HETATM    2  C7  UNL     1      16.594  21.614  19.797  1.00  0.00     0.260 A 
HETATM    3  O1  UNL     1      16.346  21.415  21.019  1.00  0.00    -0.267 OA
HETATM    4  C8  UNL     1      15.564  21.710  18.891  1.00  0.00     0.043 A 
HETATM    5  C9  UNL     1      15.795  21.931  17.521  1.00  0.00     0.070 A 
HETATM    6  N3  UNL     1      17.046  22.054  17.092  1.00  0.00    -0.276 N 
HETATM    7  C17 UNL     1      18.041  21.953  18.023  1.00  0.00     0.336 A 
HETATM    8  O2  UNL     1      19.262  22.062  17.654  1.00  0.00    -0.246 OA
HETATM    9  C18 UNL     1      14.803  22.010  16.477  1.00  0.00     0.123 C 
HETATM   10  N4  UNL     1      13.820  20.941  16.476  1.00  0.00    -0.335 N 
HETATM   11  C24 UNL     1      13.574  20.079  17.570  1.00  0.00     0.135 A 
HETATM   12  N5  UNL     1      13.130  18.879  17.178  1.00  0.00    -0.176 N 
ATOM     13  H5  UNL     1      13.027  18.696  16.180  1.00  0.00     0.186 HD
HETATM   14  C25 UNL     1      12.814  17.908  18.049  1.00  0.00     0.682 A 
HETATM   15  N7  UNL     1      12.927  18.084  19.397  1.00  0.00    -0.156 N 
ATOM     16  H7  UNL     1      12.685  17.344  20.057  1.00  0.00     0.187 HD
HETATM   17  C29 UNL     1      13.378  19.297  19.814  1.00  0.00     0.270 A 
HETATM   18  O4  UNL     1      13.497  19.497  21.053  1.00  0.00    -0.267 OA
HETATM   19  C30 UNL     1      13.700  20.281  18.933  1.00  0.00     0.059 A 
HETATM   20  C31 UNL     1      14.212  21.537  19.537  1.00  0.00     0.095 C 
ENDROOT
BRANCH   1  21
HETATM   21  C6  UNL     1      18.968  21.644  20.250  1.00  0.00     0.167 C 
BRANCH  21  22
HETATM   22  C5  UNL     1      19.287  22.965  20.883  1.00  0.00     0.292 C 
BRANCH  22  23
HETATM   23  N1  UNL     1      20.305  23.714  20.206  1.00  0.00     0.085 N 
HETATM   24  C4  UNL     1      20.331  25.099  20.652  1.00  0.00     0.309 C 
BRANCH  23  25
HETATM   25  C3  UNL     1      21.644  23.197  20.368  1.00  0.00     0.271 C 
BRANCH  25  26
HETATM   26  C2  UNL     1      22.594  24.315  20.765  1.00  0.00     0.026 C 
HETATM   27  C1  UNL     1      24.023  23.973  20.418  1.00  0.00     0.007 C 
ENDBRANCH  25  26
ENDBRANCH  23  25
ENDBRANCH  22  23
ENDBRANCH  21  22
ENDBRANCH   1  21
BRANCH   6  28
HETATM   28  C10 UNL     1      17.415  22.359  15.777  1.00  0.00     0.079 C 
BRANCH  28  29
HETATM   29  C11 UNL     1      17.789  23.799  15.519  1.00  0.00     0.025 C 
HETATM   30  C12 UNL     1      17.152  24.489  14.376  1.00  0.00     0.010 C 
HETATM   31  C13 UNL     1      17.568  25.949  14.286  1.00  0.00     0.001 C 
HETATM   32  C14 UNL     1      18.584  26.321  15.329  1.00  0.00     0.000 C 
HETATM   33  C15 UNL     1      19.720  25.365  15.423  1.00  0.00     0.001 C 
HETATM   34  C16 UNL     1      19.301  23.944  15.299  1.00  0.00     0.010 C 
ENDBRANCH  28  29
ENDBRANCH   6  28
BRANCH  10  35
HETATM   35  C19 UNL     1      13.024  20.719  15.287  1.00  0.00     0.091 C 
HETATM   36  C20 UNL     1      12.519  22.091  14.806  1.00  0.00     0.026 C 
HETATM   37  C21 UNL     1      13.292  22.437  13.589  1.00  0.00     0.002 C 
HETATM   38  C22 UNL     1      14.073  21.263  13.138  1.00  0.00     0.002 C 
HETATM   39  C23 UNL     1      13.724  20.202  14.103  1.00  0.00     0.026 C 
ENDBRANCH  10  35
BRANCH  14  40
HETATM   40  N6  UNL     1      12.385  16.772  17.632  1.00  0.00    -0.224 N 
ATOM     41  H6  UNL     1      13.047  16.023  17.432  1.00  0.00     0.177 HD
BRANCH  40  42
HETATM   42  C26 UNL     1      10.990  16.551  17.448  1.00  0.00     0.164 C 
BRANCH  42  43
HETATM   43  C27 UNL     1      10.466  16.610  16.064  1.00  0.00     0.187 C 
BRANCH  43  44
HETATM   44  O3  UNL     1      10.710  17.706  15.323  1.00  0.00    -0.394 OA
HETATM   45  C28 UNL     1      11.076  17.508  14.036  1.00  0.00     0.201 C 
ENDBRANCH  43  44
ENDBRANCH  42  43
ENDBRANCH  40  42
ENDBRANCH  14  40
TORSDOF 12
ENDMDL
MODEL 2
REMARK VINA RESULT: -9.212604463      0.689      1.225
REMARK  12 active torsions:
REMARK  status: ('A' for Active; 'I' for Inactive)
REMARK    1  A    between atoms: C2_2  and  C3_3 
REMARK    2  A    between atoms: C3_3  and  N1_4 
REMARK    3  A    between atoms: N1_4  and  C5_6 
REMARK    4  A    between atoms: C5_6  and  C6_7 
REMARK    5  A    between atoms: C6_7  and  N2_8 
REMARK    6  A    between atoms: N3_13  and  C10_14 
REMARK    7  A    between atoms: C10_14  and  C11_15 
REMARK    8  A    between atoms: N4_24  and  C19_25 
REMARK    9  A    between atoms: C25_33  and  N6_34 
REMARK   10  A    between atoms: N6_34  and  C26_36 
REMARK   11  A    between atoms: C26_36  and  C27_37 
REMARK   12  A    between atoms: C27_37  and  O3_38 
ROOT
HETATM    1  N2  UNL     1      17.918  21.744  19.167  1.00  0.00    -0.264 N 
HETATM    2  C7  UNL     1      16.696  21.605  19.703  1.00  0.00     0.260 A 
HETATM    3  O1  UNL     1      16.516  21.395  20.935  1.00  0.00    -0.267 OA
HETATM    4  C8  UNL     1      15.616  21.698  18.855  1.00  0.00     0.043 A 
HETATM    5  C9  UNL     1      15.771  21.930  17.476  1.00  0.00     0.070 A 
HETATM    6  N3  UNL     1      16.995  22.065  16.980  1.00  0.00    -0.276 N 
HETATM    7  C17 UNL     1      18.041  21.966  17.854  1.00  0.00     0.336 A 
HETATM    8  O2  UNL     1      19.239  22.087  17.420  1.00  0.00    -0.246 OA
HETATM    9  C18 UNL     1      14.723  22.008  16.489  1.00  0.00     0.123 C 
HETATM   10  N4  UNL     1      13.749  20.930  16.534  1.00  0.00    -0.335 N 
HETATM   11  C24 UNL     1      13.570  20.060  17.634  1.00  0.00     0.135 A 
HETATM   12  N5  UNL     1      13.114  18.859  17.258  1.00  0.00    -0.176 N 
ATOM     13  H5  UNL     1      12.958  18.681  16.266  1.00  0.00     0.186 HD
HETATM   14  C25 UNL     1      12.853  17.880  18.139  1.00  0.00     0.682 A 
HETATM   15  N7  UNL     1      13.038  18.048  19.480  1.00  0.00    -0.156 N 
ATOM     16  H7  UNL     1      12.839  17.303  20.147  1.00  0.00     0.187 HD
HETATM   17  C29 UNL     1      13.503  19.262  19.880  1.00  0.00     0.270 A 
HETATM   18  O4  UNL     1      13.688  19.455  21.112  1.00  0.00    -0.267 OA
HETATM   19  C30 UNL     1      13.768  20.255  18.989  1.00  0.00     0.059 A 
HETATM   20  C31 UNL     1      14.304  21.510  19.573  1.00  0.00     0.095 C 
ENDROOT
BRANCH   1  21
HETATM   21  C6  UNL     1      19.091  21.650  20.026  1.00  0.00     0.167 C 
BRANCH  21  22
HETATM   22  C5  UNL     1      19.224  22.844  20.922  1.00  0.00     0.292 C 
BRANCH  22  23
HETATM   23  N1  UNL     1      20.264  23.754  20.544  1.00  0.00     0.085 N 
HETATM   24  C4  UNL     1      21.381  23.059  19.924  1.00  0.00     0.309 C 
BRANCH  23  25
HETATM   25  C3  UNL     1      19.854  24.791  19.625  1.00  0.00     0.271 C 
BRANCH  25  26
HETATM   26  C2  UNL     1      21.000  25.149  18.691  1.00  0.00     0.026 C 
HETATM   27  C1  UNL     1      21.152  26.643  18.554  1.00  0.00     0.007 C 
ENDBRANCH  25  26
ENDBRANCH  23  25
ENDBRANCH  22  23
ENDBRANCH  21  22
ENDBRANCH   1  21
BRANCH   6  28
HETATM   28  C10 UNL     1      17.290  22.381  15.649  1.00  0.00     0.079 C 
BRANCH  28  29
HETATM   29  C11 UNL     1      17.775  23.789  15.403  1.00  0.00     0.025 C 
HETATM   30  C12 UNL     1      17.757  24.739  16.537  1.00  0.00     0.010 C 
HETATM   31  C13 UNL     1      18.342  26.091  16.159  1.00  0.00     0.001 C 
HETATM   32  C14 UNL     1      18.724  26.166  14.708  1.00  0.00     0.000 C 
HETATM   33  C15 UNL     1      17.663  25.677  13.785  1.00  0.00     0.001 C 
HETATM   34  C16 UNL     1      16.965  24.463  14.286  1.00  0.00     0.010 C 
ENDBRANCH  28  29
ENDBRANCH   6  28
BRANCH  10  35
HETATM   35  C19 UNL     1      12.891  20.710  15.389  1.00  0.00     0.091 C 
HETATM   36  C20 UNL     1      12.404  22.087  14.904  1.00  0.00     0.026 C 
HETATM   37  C21 UNL     1      13.128  22.385  13.644  1.00  0.00     0.002 C 
HETATM   38  C22 UNL     1      13.852  21.180  13.182  1.00  0.00     0.002 C 
HETATM   39  C23 UNL     1      13.518  20.149  14.184  1.00  0.00     0.026 C 
ENDBRANCH  10  35
BRANCH  14  40
HETATM   40  N6  UNL     1      12.411  16.744  17.739  1.00  0.00    -0.224 N 
ATOM     41  H6  UNL     1      13.066  16.017  17.451  1.00  0.00     0.177 HD
BRANCH  40  42
HETATM   42  C26 UNL     1      11.010  16.490  17.693  1.00  0.00     0.164 C 
BRANCH  42  43
HETATM   43  C27 UNL     1      10.342  16.578  16.374  1.00  0.00     0.187 C 
BRANCH  43  44
HETATM   44  O3  UNL     1      10.619  17.624  15.574  1.00  0.00    -0.394 OA
HETATM   45  C28 UNL     1      10.985  17.345  14.302  1.00  0.00     0.201 C 
ENDBRANCH  43  44
ENDBRANCH  42  43
ENDBRANCH  40  42
ENDBRANCH  14  40
TORSDOF 12
ENDMDL
MODEL 3
REMARK VINA RESULT: -9.085040507      1.215      1.722
REMARK  12 active torsions:
REMARK  status: ('A' for Active; 'I' for Inactive)
REMARK    1  A    between atoms: C2_2  and  C3_3 
REMARK    2  A    between atoms: C3_3  and  N1_4 
REMARK    3  A    between atoms: N1_4  and  C5_6 
REMARK    4  A    between atoms: C5_6  and  C6_7 
REMARK    5  A    between atoms: C6_7  and  N2_8 
REMARK    6  A    between atoms: N3_13  and  C10_14 
REMARK    7  A    between atoms: C10_14  and  C11_15 
REMARK    8  A    between atoms: N4_24  and  C19_25 
REMARK    9  A    between atoms: C25_33  and  N6_34 
REMARK   10  A    between atoms: N6_34  and  C26_36 
REMARK   11  A    between atoms: C26_36  and  C27_37 
REMARK   12  A    between atoms: C27_37  and  O3_38 
ROOT
HETATM    1  N2  UNL     1      17.558  21.564  19.168  1.00  0.00    -0.264 N 
HETATM    2  C7  UNL     1      16.334  21.420  19.701  1.00  0.00     0.260 A 
HETATM    3  O1  UNL     1      16.147  21.291  20.942  1.00  0.00    -0.267 OA
HETATM    4  C8  UNL     1      15.263  21.414  18.838  1.00  0.00     0.043 A 
HETATM    5  C9  UNL     1      15.427  21.554  17.447  1.00  0.00     0.070 A 
HETATM    6  N3  UNL     1      16.652  21.697  16.955  1.00  0.00    -0.276 N 
HETATM    7  C17 UNL     1      17.690  21.697  17.845  1.00  0.00     0.336 A 
HETATM    8  O2  UNL     1      18.888  21.830  17.415  1.00  0.00    -0.246 OA
HETATM    9  C18 UNL     1      14.389  21.524  16.446  1.00  0.00     0.123 C 
HETATM   10  N4  UNL     1      13.454  20.419  16.558  1.00  0.00    -0.335 N 
HETATM   11  C24 UNL     1      13.291  19.622  17.715  1.00  0.00     0.135 A 
HETATM   12  N5  UNL     1      12.881  18.382  17.421  1.00  0.00    -0.176 N 
ATOM     13  H5  UNL     1      12.745  18.130  16.442  1.00  0.00     0.186 HD
HETATM   14  C25 UNL     1      12.644  17.459  18.366  1.00  0.00     0.682 A 
HETATM   15  N7  UNL     1      12.807  17.728  19.693  1.00  0.00    -0.156 N 
ATOM     16  H7  UNL     1      12.625  17.025  20.409  1.00  0.00     0.187 HD
HETATM   17  C29 UNL     1      13.223  18.983  20.011  1.00  0.00     0.270 A 
HETATM   18  O4  UNL     1      13.386  19.269  21.228  1.00  0.00    -0.267 OA
HETATM   19  C30 UNL     1      13.465  19.919  19.055  1.00  0.00     0.059 A 
HETATM   20  C31 UNL     1      13.949  21.231  19.554  1.00  0.00     0.095 C 
ENDROOT
BRANCH   1  21
HETATM   21  C6  UNL     1      18.722  21.573  20.044  1.00  0.00     0.167 C 
BRANCH  21  22
HETATM   22  C5  UNL     1      18.809  22.836  20.845  1.00  0.00     0.292 C 
BRANCH  22  23
HETATM   23  N1  UNL     1      19.856  23.726  20.436  1.00  0.00     0.085 N 
HETATM   24  C4  UNL     1      20.999  22.995  19.910  1.00  0.00     0.309 C 
BRANCH  23  25
HETATM   25  C3  UNL     1      19.473  24.686  19.427  1.00  0.00     0.271 C 
BRANCH  25  26
HETATM   26  C2  UNL     1      20.485  24.688  18.292  1.00  0.00     0.026 C 
HETATM   27  C1  UNL     1      20.540  26.031  17.606  1.00  0.00     0.007 C 
ENDBRANCH  25  26
ENDBRANCH  23  25
ENDBRANCH  22  23
ENDBRANCH  21  22
ENDBRANCH   1  21
BRANCH   6  28
HETATM   28  C10 UNL     1      16.952  21.929  15.608  1.00  0.00     0.079 C 
BRANCH  28  29
HETATM   29  C11 UNL     1      17.239  23.365  15.239  1.00  0.00     0.025 C 
HETATM   30  C12 UNL     1      16.954  24.411  16.245  1.00  0.00     0.010 C 
HETATM   31  C13 UNL     1      17.361  25.795  15.761  1.00  0.00     0.001 C 
HETATM   32  C14 UNL     1      17.879  25.780  14.351  1.00  0.00     0.000 C 
HETATM   33  C15 UNL     1      17.011  25.029  13.403  1.00  0.00     0.001 C 
HETATM   34  C16 UNL     1      16.458  23.776  13.983  1.00  0.00     0.010 C 
ENDBRANCH  28  29
ENDBRANCH   6  28
BRANCH  10  35
HETATM   35  C19 UNL     1      12.618  20.088  15.423  1.00  0.00     0.091 C 
HETATM   36  C20 UNL     1      11.161  20.388  15.818  1.00  0.00     0.026 C 
HETATM   37  C21 UNL     1      10.757  21.617  15.091  1.00  0.00     0.002 C 
HETATM   38  C22 UNL     1      11.782  21.964  14.082  1.00  0.00     0.002 C 
HETATM   39  C23 UNL     1      12.793  20.895  14.207  1.00  0.00     0.026 C 
ENDBRANCH  10  35
BRANCH  14  40
HETATM   40  N6  UNL     1      12.247  16.283  18.042  1.00  0.00    -0.224 N 
ATOM     41  H6  UNL     1      12.931  15.552  17.850  1.00  0.00     0.177 HD
BRANCH  40  42
HETATM   42  C26 UNL     1      10.856  15.991  17.951  1.00  0.00     0.164 C 
BRANCH  42  43
HETATM   43  C27 UNL     1      10.440  14.931  17.003  1.00  0.00     0.187 C 
BRANCH  43  44
HETATM   44  O3  UNL     1      11.113  14.794  15.847  1.00  0.00    -0.394 OA
HETATM   45  C28 UNL     1      10.794  15.645  14.845  1.00  0.00     0.201 C 
ENDBRANCH  43  44
ENDBRANCH  42  43
ENDBRANCH  40  42
ENDBRANCH  14  40
TORSDOF 12
ENDMDL
MODEL 4
REMARK VINA RESULT: -9.078074181      1.888      2.729
REMARK  12 active torsions:
REMARK  status: ('A' for Active; 'I' for Inactive)
REMARK    1  A    between atoms: C2_2  and  C3_3 
REMARK    2  A    between atoms: C3_3  and  N1_4 
REMARK    3  A    between atoms: N1_4  and  C5_6 
REMARK    4  A    between atoms: C5_6  and  C6_7 
REMARK    5  A    between atoms: C6_7  and  N2_8 
REMARK    6  A    between atoms: N3_13  and  C10_14 
REMARK    7  A    between atoms: C10_14  and  C11_15 
REMARK    8  A    between atoms: N4_24  and  C19_25 
REMARK    9  A    between atoms: C25_33  and  N6_34 
REMARK   10  A    between atoms: N6_34  and  C26_36 
REMARK   11  A    between atoms: C26_36  and  C27_37 
REMARK   12  A    between atoms: C27_37  and  O3_38 
ROOT
HETATM    1  N2  UNL     1      19.170  23.899  19.369  1.00  0.00    -0.264 N 
HETATM    2  C7  UNL     1      17.892  23.659  19.699  1.00  0.00     0.260 A 
HETATM    3  O1  UNL     1      17.496  23.633  20.897  1.00  0.00    -0.267 OA
HETATM    4  C8  UNL     1      17.003  23.436  18.674  1.00  0.00     0.043 A 
HETATM    5  C9  UNL     1      17.401  23.456  17.325  1.00  0.00     0.070 A 
HETATM    6  N3  UNL     1      18.674  23.699  17.034  1.00  0.00    -0.276 N 
HETATM    7  C17 UNL     1      19.527  23.914  18.080  1.00  0.00     0.336 A 
HETATM    8  O2  UNL     1      20.763  24.149  17.848  1.00  0.00    -0.246 OA
HETATM    9  C18 UNL     1      16.572  23.200  16.173  1.00  0.00     0.123 C 
HETATM   10  N4  UNL     1      15.750  22.006  16.256  1.00  0.00    -0.335 N 
HETATM   11  C24 UNL     1      15.462  21.314  17.456  1.00  0.00     0.135 A 
HETATM   12  N5  UNL     1      15.243  20.010  17.246  1.00  0.00    -0.176 N 
ATOM     13  H5  UNL     1      15.314  19.646  16.296  1.00  0.00     0.186 HD
HETATM   14  C25 UNL     1      14.934  19.163  18.242  1.00  0.00     0.682 A 
HETATM   15  N7  UNL     1      14.824  19.581  19.535  1.00  0.00    -0.156 N 
ATOM     16  H7  UNL     1      14.588  18.935  20.289  1.00  0.00     0.187 HD
HETATM   17  C29 UNL     1      15.044  20.903  19.767  1.00  0.00     0.270 A 
HETATM   18  O4  UNL     1      14.952  21.326  20.951  1.00  0.00    -0.267 OA
HETATM   19  C30 UNL     1      15.358  21.761  18.760  1.00  0.00     0.059 A 
HETATM   20  C31 UNL     1      15.606  23.166  19.174  1.00  0.00     0.095 C 
ENDROOT
BRANCH   1  21
HETATM   21  C6  UNL     1      20.149  24.136  20.422  1.00  0.00     0.167 C 
BRANCH  21  22
HETATM   22  C5  UNL     1      20.297  25.597  20.727  1.00  0.00     0.292 C 
BRANCH  22  23
HETATM   23  N1  UNL     1      21.626  25.993  21.089  1.00  0.00     0.085 N 
HETATM   24  C4  UNL     1      22.588  24.934  20.826  1.00  0.00     0.309 C 
BRANCH  23  25
HETATM   25  C3  UNL     1      22.109  27.175  20.412  1.00  0.00     0.271 C 
BRANCH  25  26
HETATM   26  C2  UNL     1      21.397  27.345  19.079  1.00  0.00     0.026 C 
HETATM   27  C1  UNL     1      22.362  27.246  17.923  1.00  0.00     0.007 C 
ENDBRANCH  25  26
ENDBRANCH  23  25
ENDBRANCH  22  23
ENDBRANCH  21  22
ENDBRANCH   1  21
BRANCH   6  28
HETATM   28  C10 UNL     1      19.189  23.830  15.740  1.00  0.00     0.079 C 
BRANCH  28  29
HETATM   29  C11 UNL     1      19.453  25.245  15.281  1.00  0.00     0.025 C 
HETATM   30  C12 UNL     1      18.495  25.860  14.337  1.00  0.00     0.010 C 
HETATM   31  C13 UNL     1      18.849  27.305  14.024  1.00  0.00     0.001 C 
HETATM   32  C14 UNL     1      20.128  27.738  14.683  1.00  0.00     0.000 C 
HETATM   33  C15 UNL     1      21.250  26.778  14.498  1.00  0.00     0.001 C 
HETATM   34  C16 UNL     1      20.828  25.356  14.606  1.00  0.00     0.010 C 
ENDBRANCH  28  29
ENDBRANCH   6  28
BRANCH  10  35
HETATM   35  C19 UNL     1      15.174  21.463  15.044  1.00  0.00     0.091 C 
HETATM   36  C20 UNL     1      13.678  21.827  15.040  1.00  0.00     0.026 C 
HETATM   37  C21 UNL     1      13.492  22.895  14.027  1.00  0.00     0.002 C 
HETATM   38  C22 UNL     1      14.728  23.050  13.227  1.00  0.00     0.002 C 
HETATM   39  C23 UNL     1      15.644  22.028  13.771  1.00  0.00     0.026 C 
ENDBRANCH  10  35
BRANCH  14  40
HETATM   40  N6  UNL     1      14.725  17.921  17.998  1.00  0.00    -0.224 N 
ATOM     41  H6  UNL     1      15.331  17.423  17.346  1.00  0.00     0.177 HD
BRANCH  40  42
HETATM   42  C26 UNL     1      13.653  17.231  18.633  1.00  0.00     0.164 C 
BRANCH  42  43
HETATM   43  C27 UNL     1      12.276  17.694  18.345  1.00  0.00     0.187 C 
BRANCH  43  44
HETATM   44  O3  UNL     1      11.683  18.540  19.205  1.00  0.00    -0.394 OA
HETATM   45  C28 UNL     1      11.811  18.268  20.524  1.00  0.00     0.201 C 
ENDBRANCH  43  44
ENDBRANCH  42  43
ENDBRANCH  40  42
ENDBRANCH  14  40
TORSDOF 12
ENDMDL
MODEL 5
REMARK VINA RESULT: -8.783476975      2.293      8.670
REMARK  12 active torsions:
REMARK  status: ('A' for Active; 'I' for Inactive)
REMARK    1  A    between atoms: C2_2  and  C3_3 
REMARK    2  A    between atoms: C3_3  and  N1_4 
REMARK    3  A    between atoms: N1_4  and  C5_6 
REMARK    4  A    between atoms: C5_6  and  C6_7 
REMARK    5  A    between atoms: C6_7  and  N2_8 
REMARK    6  A    between atoms: N3_13  and  C10_14 
REMARK    7  A    between atoms: C10_14  and  C11_15 
REMARK    8  A    between atoms: N4_24  and  C19_25 
REMARK    9  A    between atoms: C25_33  and  N6_34 
REMARK   10  A    between atoms: N6_34  and  C26_36 
REMARK   11  A    between atoms: C26_36  and  C27_37 
REMARK   12  A    between atoms: C27_37  and  O3_38 
ROOT
HETATM    1  N2  UNL     1      15.526  22.284  18.604  1.00  0.00    -0.264 N 
HETATM    2  C7  UNL     1      16.778  22.020  19.011  1.00  0.00     0.260 A 
HETATM    3  O1  UNL     1      17.024  21.313  20.027  1.00  0.00    -0.267 OA
HETATM    4  C8  UNL     1      17.810  22.553  18.275  1.00  0.00     0.043 A 
HETATM    5  C9  UNL     1      17.581  23.347  17.137  1.00  0.00     0.070 A 
HETATM    6  N3  UNL     1      16.330  23.586  16.761  1.00  0.00    -0.276 N 
HETATM    7  C17 UNL     1      15.332  23.040  17.518  1.00  0.00     0.336 A 
HETATM    8  O2  UNL     1      14.111  23.246  17.195  1.00  0.00    -0.246 OA
HETATM    9  C18 UNL     1      18.577  23.987  16.313  1.00  0.00     0.123 C 
HETATM   10  N4  UNL     1      19.589  24.735  17.037  1.00  0.00    -0.335 N 
HETATM   11  C24 UNL     1      19.853  24.594  18.420  1.00  0.00     0.135 A 
HETATM   12  N5  UNL     1      20.334  25.721  18.959  1.00  0.00    -0.176 N 
ATOM     13  H5  UNL     1      20.448  26.541  18.364  1.00  0.00     0.186 HD
HETATM   14  C25 UNL     1      20.672  25.811  20.256  1.00  0.00     0.682 A 
HETATM   15  N7  UNL     1      20.546  24.754  21.108  1.00  0.00    -0.156 N 
ATOM     16  H7  UNL     1      20.805  24.825  22.093  1.00  0.00     0.187 HD
HETATM   17  C29 UNL     1      20.058  23.601  20.577  1.00  0.00     0.270 A 
HETATM   18  O4  UNL     1      19.926  22.602  21.335  1.00  0.00    -0.267 OA
HETATM   19  C30 UNL     1      19.714  23.508  19.265  1.00  0.00     0.059 A 
HETATM   20  C31 UNL     1      19.162  22.197  18.841  1.00  0.00     0.095 C 
ENDROOT
BRANCH   1  21
HETATM   21  C6  UNL     1      14.401  21.744  19.355  1.00  0.00     0.167 C 
BRANCH  21  22
HETATM   22  C5  UNL     1      14.118  20.318  18.988  1.00  0.00     0.292 C 
BRANCH  22  23
HETATM   23  N1  UNL     1      12.867  20.116  18.320  1.00  0.00     0.085 N 
HETATM   24  C4  UNL     1      13.046  19.990  16.882  1.00  0.00     0.309 C 
BRANCH  23  25
HETATM   25  C3  UNL     1      12.131  18.951  18.754  1.00  0.00     0.271 C 
BRANCH  25  26
HETATM   26  C2  UNL     1      12.232  18.798  20.263  1.00  0.00     0.026 C 
HETATM   27  C1  UNL     1      12.389  17.350  20.660  1.00  0.00     0.007 C 
ENDBRANCH  25  26
ENDBRANCH  23  25
ENDBRANCH  22  23
ENDBRANCH  21  22
ENDBRANCH   1  21
BRANCH   6  28
HETATM   28  C10 UNL     1      15.960  24.285  15.607  1.00  0.00     0.079 C 
BRANCH  28  29
HETATM   29  C11 UNL     1      15.518  23.434  14.440  1.00  0.00     0.025 C 
HETATM   30  C12 UNL     1      15.625  21.965  14.571  1.00  0.00     0.010 C 
HETATM   31  C13 UNL     1      15.076  21.241  13.352  1.00  0.00     0.001 C 
HETATM   32  C14 UNL     1      14.630  22.189  12.274  1.00  0.00     0.000 C 
HETATM   33  C15 UNL     1      15.627  23.249  11.961  1.00  0.00     0.001 C 
HETATM   34  C16 UNL     1      16.300  23.794  13.169  1.00  0.00     0.010 C 
ENDBRANCH  28  29
ENDBRANCH   6  28
BRANCH  10  35
HETATM   35  C19 UNL     1      20.399  25.699  16.321  1.00  0.00     0.091 C 
HETATM   36  C20 UNL     1      20.679  25.118  14.923  1.00  0.00     0.026 C 
HETATM   37  C21 UNL     1      19.850  25.882  13.959  1.00  0.00     0.002 C 
HETATM   38  C22 UNL     1      19.256  27.060  14.630  1.00  0.00     0.002 C 
HETATM   39  C23 UNL     1      19.776  26.994  16.010  1.00  0.00     0.026 C 
ENDBRANCH  10  35
BRANCH  14  40
HETATM   40  N6  UNL     1      21.136  26.908  20.734  1.00  0.00    -0.224 N 
ATOM     41  H6  UNL     1      20.678  27.791  20.510  1.00  0.00     0.177 HD
BRANCH  40  42
HETATM   42  C26 UNL     1      22.285  26.900  21.574  1.00  0.00     0.164 C 
BRANCH  42  43
HETATM   43  C27 UNL     1      23.581  26.537  20.957  1.00  0.00     0.187 C 
BRANCH  43  44
HETATM   44  O3  UNL     1      23.993  27.208  19.867  1.00  0.00    -0.394 OA
HETATM   45  C28 UNL     1      24.115  26.502  18.720  1.00  0.00     0.201 C 
ENDBRANCH  43  44
ENDBRANCH  42  43
ENDBRANCH  40  42
ENDBRANCH  14  40
TORSDOF 12
ENDMDL
