MODEL 1
REMARK VINA RESULT: -4.395906778      0.000      0.000
REMARK  6 active torsions:
REMARK  status: ('A' for Active; 'I' for Inactive)
REMARK    1  A    between atoms: N1_1  and  C1_5 
REMARK    2  A    between atoms: C1_5  and  C2_6 
REMARK    3  A    between atoms: C2_6  and  C3_7 
REMARK    4  A    between atoms: C3_7  and  C4_8 
REMARK    5  A    between atoms: C7_14  and  C8_15 
REMARK    6  A    between atoms: C8_15  and  N3_16 
ROOT
HETATM    1  C4  UNL     1      13.042  27.417  31.686  1.00  0.00     0.012 C 
HETATM    2  C5  UNL     1      11.621  27.883  31.623  1.00  0.00     0.237 C 
HETATM    3  N2  UNL     1      11.507  29.302  31.384  1.00  0.00    -0.074 N 
ATOM      4  H21 UNL     1      10.592  29.667  31.645  1.00  0.00     0.277 HD
ATOM      5  H22 UNL     1      11.473  29.526  30.389  1.00  0.00     0.277 HD
HETATM    6  C6  UNL     1      12.574  29.979  32.056  1.00  0.00     0.238 C 
HETATM    7  C7  UNL     1      13.869  29.758  31.293  1.00  0.00     0.037 C 
HETATM    8  C9  UNL     1      13.981  28.315  30.901  1.00  0.00     0.014 C 
ENDROOT
BRANCH   1   9
HETATM    9  C3  UNL     1      13.114  26.043  31.040  1.00  0.00     0.008 C 
BRANCH   9  10
HETATM   10  C2  UNL     1      12.927  26.176  29.563  1.00  0.00     0.027 C 
BRANCH  10  11
HETATM   11  C1  UNL     1      12.020  25.134  28.974  1.00  0.00     0.229 C 
BRANCH  11  12
HETATM   12  N1  UNL     1      10.778  25.841  28.619  1.00  0.00    -0.079 N 
ATOM     13  H13 UNL     1       9.933  25.294  28.790  1.00  0.00     0.274 HD
ATOM     14  H12 UNL     1      10.553  26.611  29.248  1.00  0.00     0.274 HD
ATOM     15  H11 UNL     1      10.890  26.127  27.646  1.00  0.00     0.274 HD
ENDBRANCH  11  12
ENDBRANCH  10  11
ENDBRANCH   9  10
ENDBRANCH   1   9
BRANCH   7  16
HETATM   16  C8  UNL     1      13.855  30.685  30.096  1.00  0.00     0.236 C 
BRANCH  16  17
HETATM   17  N3  UNL     1      13.733  29.931  28.860  1.00  0.00    -0.079 N 
ATOM     18  H33 UNL     1      14.511  30.117  28.227  1.00  0.00     0.274 HD
ATOM     19  H32 UNL     1      13.889  28.935  29.008  1.00  0.00     0.274 HD
ATOM     20  H31 UNL     1      12.833  30.110  28.413  1.00  0.00     0.274 HD
ENDBRANCH  16  17
ENDBRANCH   7  16
TORSDOF 6
ENDMDL
MODEL 2
REMARK VINA RESULT: -4.319355953      2.146      4.739
REMARK  6 active torsions:
REMARK  status: ('A' for Active; 'I' for Inactive)
REMARK    1  A    between atoms: N1_1  and  C1_5 
REMARK    2  A    between atoms: C1_5  and  C2_6 
REMARK    3  A    between atoms: C2_6  and  C3_7 
REMARK    4  A    between atoms: C3_7  and  C4_8 
REMARK    5  A    between atoms: C7_14  and  C8_15 
REMARK    6  A    between atoms: C8_15  and  N3_16 
ROOT
HETATM    1  C4  UNL     1      13.221  29.742  32.294  1.00  0.00     0.012 C 
HETATM    2  C5  UNL     1      13.049  30.553  31.048  1.00  0.00     0.237 C 
HETATM    3  N2  UNL     1      12.918  29.739  29.863  1.00  0.00    -0.074 N 
ATOM      4  H21 UNL     1      13.111  30.263  29.009  1.00  0.00     0.277 HD
ATOM      5  H22 UNL     1      11.947  29.495  29.666  1.00  0.00     0.277 HD
HETATM    6  C6  UNL     1      13.752  28.584  29.991  1.00  0.00     0.238 C 
HETATM    7  C7  UNL     1      13.113  27.609  30.967  1.00  0.00     0.037 C 
HETATM    8  C9  UNL     1      12.616  28.355  32.169  1.00  0.00     0.014 C 
ENDROOT
BRANCH   1   9
HETATM    9  C3  UNL     1      12.474  30.442  33.417  1.00  0.00     0.008 C 
BRANCH   9  10
HETATM   10  C2  UNL     1      12.065  29.439  34.445  1.00  0.00     0.027 C 
BRANCH  10  11
HETATM   11  C1  UNL     1      10.757  29.757  35.112  1.00  0.00     0.229 C 
BRANCH  11  12
HETATM   12  N1  UNL     1      10.950  31.064  35.764  1.00  0.00    -0.079 N 
ATOM     13  H13 UNL     1      10.441  31.161  36.643  1.00  0.00     0.274 HD
ATOM     14  H12 UNL     1      11.884  31.194  36.149  1.00  0.00     0.274 HD
ATOM     15  H11 UNL     1      10.694  31.762  35.065  1.00  0.00     0.274 HD
ENDBRANCH  11  12
ENDBRANCH  10  11
ENDBRANCH   9  10
ENDBRANCH   1   9
BRANCH   7  16
HETATM   16  C8  UNL     1      12.003  26.892  30.230  1.00  0.00     0.236 C 
BRANCH  16  17
HETATM   17  N3  UNL     1      12.531  26.144  29.100  1.00  0.00    -0.079 N 
ATOM     18  H33 UNL     1      11.859  26.095  28.334  1.00  0.00     0.274 HD
ATOM     19  H32 UNL     1      13.272  26.657  28.623  1.00  0.00     0.274 HD
ATOM     20  H31 UNL     1      12.840  25.217  29.392  1.00  0.00     0.274 HD
ENDBRANCH  16  17
ENDBRANCH   7  16
TORSDOF 6
ENDMDL
MODEL 3
REMARK VINA RESULT: -4.254653778      2.093      4.130
REMARK  6 active torsions:
REMARK  status: ('A' for Active; 'I' for Inactive)
REMARK    1  A    between atoms: N1_1  and  C1_5 
REMARK    2  A    between atoms: C1_5  and  C2_6 
REMARK    3  A    between atoms: C2_6  and  C3_7 
REMARK    4  A    between atoms: C3_7  and  C4_8 
REMARK    5  A    between atoms: C7_14  and  C8_15 
REMARK    6  A    between atoms: C8_15  and  N3_16 
ROOT
HETATM    1  C4  UNL     1      11.551  27.709  32.051  1.00  0.00     0.012 C 
HETATM    2  C5  UNL     1      12.846  27.025  32.364  1.00  0.00     0.237 C 
HETATM    3  N2  UNL     1      13.915  27.416  31.477  1.00  0.00    -0.074 N 
ATOM      4  H21 UNL     1      14.685  26.748  31.480  1.00  0.00     0.277 HD
ATOM      5  H22 UNL     1      14.427  28.228  31.820  1.00  0.00     0.277 HD
HETATM    6  C6  UNL     1      13.384  27.625  30.165  1.00  0.00     0.238 C 
HETATM    7  C7  UNL     1      12.620  28.938  30.135  1.00  0.00     0.037 C 
HETATM    8  C9  UNL     1      11.755  29.044  31.356  1.00  0.00     0.014 C 
ENDROOT
BRANCH   1   9
HETATM    9  C3  UNL     1      10.847  28.007  33.364  1.00  0.00     0.008 C 
BRANCH   9  10
HETATM   10  C2  UNL     1      11.760  28.787  34.253  1.00  0.00     0.027 C 
BRANCH  10  11
HETATM   11  C1  UNL     1      11.067  29.873  35.025  1.00  0.00     0.229 C 
BRANCH  11  12
HETATM   12  N1  UNL     1      11.786  31.116  34.696  1.00  0.00    -0.079 N 
ATOM     13  H13 UNL     1      12.776  30.975  34.495  1.00  0.00     0.274 HD
ATOM     14  H12 UNL     1      11.532  31.507  33.790  1.00  0.00     0.274 HD
ATOM     15  H11 UNL     1      11.614  31.750  35.478  1.00  0.00     0.274 HD
ENDBRANCH  11  12
ENDBRANCH  10  11
ENDBRANCH   9  10
ENDBRANCH   1   9
BRANCH   7  16
HETATM   16  C8  UNL     1      13.638  30.053  30.047  1.00  0.00     0.236 C 
BRANCH  16  17
HETATM   17  N3  UNL     1      13.981  30.332  28.662  1.00  0.00    -0.079 N 
ATOM     18  H33 UNL     1      14.154  29.474  28.137  1.00  0.00     0.274 HD
ATOM     19  H32 UNL     1      13.178  30.675  28.137  1.00  0.00     0.274 HD
ATOM     20  H31 UNL     1      14.772  30.974  28.606  1.00  0.00     0.274 HD
ENDBRANCH  16  17
ENDBRANCH   7  16
TORSDOF 6
ENDMDL
MODEL 4
REMARK VINA RESULT: -4.244128617      2.814      4.741
REMARK  6 active torsions:
REMARK  status: ('A' for Active; 'I' for Inactive)
REMARK    1  A    between atoms: N1_1  and  C1_5 
REMARK    2  A    between atoms: C1_5  and  C2_6 
REMARK    3  A    between atoms: C2_6  and  C3_7 
REMARK    4  A    between atoms: C3_7  and  C4_8 
REMARK    5  A    between atoms: C7_14  and  C8_15 
REMARK    6  A    between atoms: C8_15  and  N3_16 
ROOT
HETATM    1  C4  UNL     1      12.506  29.286  32.972  1.00  0.00     0.012 C 
HETATM    2  C5  UNL     1      11.298  28.729  32.284  1.00  0.00     0.237 C 
HETATM    3  N2  UNL     1      10.208  28.464  33.192  1.00  0.00    -0.074 N 
ATOM      4  H21 UNL     1       9.526  27.816  32.800  1.00  0.00     0.277 HD
ATOM      5  H22 UNL     1       9.594  29.270  33.306  1.00  0.00     0.277 HD
HETATM    6  C6  UNL     1      10.737  28.005  34.440  1.00  0.00     0.238 C 
HETATM    7  C7  UNL     1      11.335  29.180  35.194  1.00  0.00     0.037 C 
HETATM    8  C9  UNL     1      12.154  30.016  34.256  1.00  0.00     0.014 C 
ENDROOT
BRANCH   1   9
HETATM    9  C3  UNL     1      13.140  30.314  32.048  1.00  0.00     0.008 C 
BRANCH   9  10
HETATM   10  C2  UNL     1      13.030  29.847  30.634  1.00  0.00     0.027 C 
BRANCH  10  11
HETATM   11  C1  UNL     1      14.116  30.373  29.739  1.00  0.00     0.229 C 
BRANCH  11  12
HETATM   12  N1  UNL     1      13.675  30.083  28.364  1.00  0.00    -0.079 N 
ATOM     13  H13 UNL     1      13.451  29.100  28.205  1.00  0.00     0.274 HD
ATOM     14  H12 UNL     1      12.752  30.455  28.143  1.00  0.00     0.274 HD
ATOM     15  H11 UNL     1      14.415  30.436  27.756  1.00  0.00     0.274 HD
ENDBRANCH  11  12
ENDBRANCH  10  11
ENDBRANCH   9  10
ENDBRANCH   1   9
BRANCH   7  16
HETATM   16  C8  UNL     1      10.190  29.954  35.811  1.00  0.00     0.236 C 
BRANCH  16  17
HETATM   17  N3  UNL     1      10.619  31.284  36.210  1.00  0.00    -0.079 N 
ATOM     18  H33 UNL     1      10.717  31.905  35.406  1.00  0.00     0.274 HD
ATOM     19  H32 UNL     1       9.882  31.785  36.704  1.00  0.00     0.274 HD
ATOM     20  H31 UNL     1      11.478  31.238  36.759  1.00  0.00     0.274 HD
ENDBRANCH  16  17
ENDBRANCH   7  16
TORSDOF 6
ENDMDL
MODEL 5
REMARK VINA RESULT: -4.241244708      2.735      4.555
REMARK  6 active torsions:
REMARK  status: ('A' for Active; 'I' for Inactive)
REMARK    1  A    between atoms: N1_1  and  C1_5 
REMARK    2  A    between atoms: C1_5  and  C2_6 
REMARK    3  A    between atoms: C2_6  and  C3_7 
REMARK    4  A    between atoms: C3_7  and  C4_8 
REMARK    5  A    between atoms: C7_14  and  C8_15 
REMARK    6  A    between atoms: C8_15  and  N3_16 
ROOT
HETATM    1  C4  UNL     1      12.141  28.189  33.291  1.00  0.00     0.012 C 
HETATM    2  C5  UNL     1      10.758  28.043  32.736  1.00  0.00     0.237 C 
HETATM    3  N2  UNL     1       9.739  28.526  33.638  1.00  0.00    -0.074 N 
ATOM      4  H21 UNL     1       8.816  28.156  33.414  1.00  0.00     0.277 HD
ATOM      5  H22 UNL     1       9.536  29.516  33.498  1.00  0.00     0.277 HD
HETATM    6  C6  UNL     1      10.128  28.237  34.984  1.00  0.00     0.238 C 
HETATM    7  C7  UNL     1      11.229  29.196  35.406  1.00  0.00     0.037 C 
HETATM    8  C9  UNL     1      12.242  29.312  34.306  1.00  0.00     0.014 C 
ENDROOT
BRANCH   1   9
HETATM    9  C3  UNL     1      13.070  28.554  32.144  1.00  0.00     0.008 C 
BRANCH   9  10
HETATM   10  C2  UNL     1      13.242  30.037  32.096  1.00  0.00     0.027 C 
BRANCH  10  11
HETATM   11  C1  UNL     1      13.562  30.563  30.726  1.00  0.00     0.229 C 
BRANCH  11  12
HETATM   12  N1  UNL     1      12.767  29.750  29.791  1.00  0.00    -0.079 N 
ATOM     13  H13 UNL     1      11.796  30.053  29.706  1.00  0.00     0.274 HD
ATOM     14  H12 UNL     1      13.022  29.885  28.813  1.00  0.00     0.274 HD
ATOM     15  H11 UNL     1      12.866  28.785  30.109  1.00  0.00     0.274 HD
ENDBRANCH  11  12
ENDBRANCH  10  11
ENDBRANCH   9  10
ENDBRANCH   1   9
BRANCH   7  16
HETATM   16  C8  UNL     1      10.575  30.520  35.736  1.00  0.00     0.236 C 
BRANCH  16  17
HETATM   17  N3  UNL     1      11.405  31.630  35.297  1.00  0.00    -0.079 N 
ATOM     18  H33 UNL     1      11.728  31.502  34.337  1.00  0.00     0.274 HD
ATOM     19  H32 UNL     1      10.857  32.479  35.163  1.00  0.00     0.274 HD
ATOM     20  H31 UNL     1      12.182  31.779  35.940  1.00  0.00     0.274 HD
ENDBRANCH  16  17
ENDBRANCH   7  16
TORSDOF 6
ENDMDL
