MODEL 1
REMARK VINA RESULT: -4.768322843      0.000      0.000
REMARK  6 active torsions:
REMARK  status: ('A' for Active; 'I' for Inactive)
REMARK    1  A    between atoms: C2_2  and  O1_3 
REMARK    2  A    between atoms: O1_3  and  C3_4 
REMARK    3  A    between atoms: C3_4  and  C4_5 
REMARK    4  A    between atoms: C4_5  and  N1_6 
REMARK    5  A    between atoms: N1_6  and  C5_8 
REMARK    6  A    between atoms: C8_15  and  N4_16 
ROOT
HETATM    1  C5  UNL     1      12.961  28.510  30.336  1.00  0.00     0.145 A 
HETATM    2  N2  UNL     1      12.570  28.368  31.609  1.00  0.00    -0.348 N 
ATOM      3  H2  UNL     1      12.290  27.451  31.956  1.00  0.00     0.167 HD
HETATM    4  C6  UNL     1      12.544  29.433  32.433  1.00  0.00     0.107 A 
HETATM    5  C7  UNL     1      12.916  30.706  32.004  1.00  0.00     0.107 A 
HETATM    6  N3  UNL     1      13.305  30.848  30.733  1.00  0.00    -0.348 N 
ATOM      7  H3  UNL     1      13.584  31.764  30.383  1.00  0.00     0.167 HD
HETATM    8  C8  UNL     1      13.330  29.767  29.906  1.00  0.00     0.143 A 
ENDROOT
BRANCH   1   9
HETATM    9  N1  UNL     1      13.015  27.556  29.487  1.00  0.00    -0.371 N 
ATOM     10  H1  UNL     1      12.869  27.802  28.508  1.00  0.00     0.161 HD
BRANCH   9  11
HETATM   11  C4  UNL     1      13.261  26.180  29.778  1.00  0.00     0.148 C 
BRANCH  11  12
HETATM   12  C3  UNL     1      11.968  25.357  29.712  1.00  0.00     0.194 C 
BRANCH  12  13
HETATM   13  O1  UNL     1      11.056  25.913  28.816  1.00  0.00    -0.362 OA
BRANCH  13  14
HETATM   14  C2  UNL     1      10.127  25.210  28.083  1.00  0.00     0.124 C 
HETATM   15  C1  UNL     1       8.984  24.783  28.620  1.00  0.00     0.037 C 
ENDBRANCH  13  14
ENDBRANCH  12  13
ENDBRANCH  11  12
ENDBRANCH   9  11
ENDBRANCH   1   9
BRANCH   8  16
HETATM   16  N4  UNL     1      13.719  29.997  28.699  1.00  0.00    -0.382 N 
ATOM     17  H42 UNL     1      14.333  29.292  28.292  1.00  0.00     0.157 HD
ATOM     18  H41 UNL     1      13.432  30.827  28.182  1.00  0.00     0.157 HD
ENDBRANCH   8  16
TORSDOF 6
ENDMDL
MODEL 2
REMARK VINA RESULT: -4.763982167      7.095      9.626
REMARK  6 active torsions:
REMARK  status: ('A' for Active; 'I' for Inactive)
REMARK    1  A    between atoms: C2_2  and  O1_3 
REMARK    2  A    between atoms: O1_3  and  C3_4 
REMARK    3  A    between atoms: C3_4  and  C4_5 
REMARK    4  A    between atoms: C4_5  and  N1_6 
REMARK    5  A    between atoms: N1_6  and  C5_8 
REMARK    6  A    between atoms: C8_15  and  N4_16 
ROOT
HETATM    1  C5  UNL     1      10.069  30.740  36.169  1.00  0.00     0.145 A 
HETATM    2  N2  UNL     1       8.852  30.287  36.496  1.00  0.00    -0.348 N 
ATOM      3  H2  UNL     1       8.344  30.711  37.271  1.00  0.00     0.167 HD
HETATM    4  C6  UNL     1       8.298  29.273  35.805  1.00  0.00     0.107 A 
HETATM    5  C7  UNL     1       8.957  28.662  34.739  1.00  0.00     0.107 A 
HETATM    6  N3  UNL     1      10.172  29.114  34.413  1.00  0.00    -0.348 N 
ATOM      7  H3  UNL     1      10.684  28.691  33.639  1.00  0.00     0.167 HD
HETATM    8  C8  UNL     1      10.725  30.139  35.115  1.00  0.00     0.143 A 
ENDROOT
BRANCH   1   9
HETATM    9  N1  UNL     1      10.669  31.696  36.769  1.00  0.00    -0.371 N 
ATOM     10  H1  UNL     1      11.624  31.900  36.473  1.00  0.00     0.161 HD
BRANCH   9  11
HETATM   11  C4  UNL     1      10.131  32.506  37.815  1.00  0.00     0.148 C 
BRANCH  11  12
HETATM   12  C3  UNL     1      10.340  31.854  39.189  1.00  0.00     0.194 C 
BRANCH  12  13
HETATM   13  O1  UNL     1      10.979  32.723  40.072  1.00  0.00    -0.362 OA
BRANCH  13  14
HETATM   14  C2  UNL     1      11.095  32.538  41.430  1.00  0.00     0.124 C 
HETATM   15  C1  UNL     1      11.567  31.404  41.949  1.00  0.00     0.037 C 
ENDBRANCH  13  14
ENDBRANCH  12  13
ENDBRANCH  11  12
ENDBRANCH   9  11
ENDBRANCH   1   9
BRANCH   8  16
HETATM   16  N4  UNL     1      11.899  30.510  34.732  1.00  0.00    -0.382 N 
ATOM     17  H42 UNL     1      12.110  30.357  33.746  1.00  0.00     0.157 HD
ATOM     18  H41 UNL     1      12.574  30.930  35.370  1.00  0.00     0.157 HD
ENDBRANCH   8  16
TORSDOF 6
ENDMDL
MODEL 3
REMARK VINA RESULT: -4.749715410      6.440      9.019
REMARK  6 active torsions:
REMARK  status: ('A' for Active; 'I' for Inactive)
REMARK    1  A    between atoms: C2_2  and  O1_3 
REMARK    2  A    between atoms: O1_3  and  C3_4 
REMARK    3  A    between atoms: C3_4  and  C4_5 
REMARK    4  A    between atoms: C4_5  and  N1_6 
REMARK    5  A    between atoms: N1_6  and  C5_8 
REMARK    6  A    between atoms: C8_15  and  N4_16 
ROOT
HETATM    1  C5  UNL     1      10.179  29.994  35.516  1.00  0.00     0.145 A 
HETATM    2  N2  UNL     1       8.964  29.431  35.491  1.00  0.00    -0.348 N 
ATOM      3  H2  UNL     1       8.267  29.695  36.187  1.00  0.00     0.167 HD
HETATM    4  C6  UNL     1       8.660  28.516  34.551  1.00  0.00     0.107 A 
HETATM    5  C7  UNL     1       9.581  28.123  33.581  1.00  0.00     0.107 A 
HETATM    6  N3  UNL     1      10.794  28.685  33.606  1.00  0.00    -0.348 N 
ATOM      7  H3  UNL     1      11.493  28.422  32.912  1.00  0.00     0.167 HD
HETATM    8  C8  UNL     1      11.094  29.609  34.559  1.00  0.00     0.143 A 
ENDROOT
BRANCH   1   9
HETATM    9  N1  UNL     1      10.552  30.868  36.371  1.00  0.00    -0.371 N 
ATOM     10  H1  UNL     1      11.434  31.346  36.187  1.00  0.00     0.161 HD
BRANCH   9  11
HETATM   11  C4  UNL     1       9.852  31.240  37.559  1.00  0.00     0.148 C 
BRANCH  11  12
HETATM   12  C3  UNL     1      10.193  32.676  37.980  1.00  0.00     0.194 C 
BRANCH  12  13
HETATM   13  O1  UNL     1      10.971  32.695  39.137  1.00  0.00    -0.362 OA
BRANCH  13  14
HETATM   14  C2  UNL     1      10.636  32.105  40.334  1.00  0.00     0.124 C 
HETATM   15  C1  UNL     1      11.018  32.618  41.504  1.00  0.00     0.037 C 
ENDBRANCH  13  14
ENDBRANCH  12  13
ENDBRANCH  11  12
ENDBRANCH   9  11
ENDBRANCH   1   9
BRANCH   8  16
HETATM   16  N4  UNL     1      12.286  30.098  34.508  1.00  0.00    -0.382 N 
ATOM     17  H42 UNL     1      13.027  29.491  34.856  1.00  0.00     0.157 HD
ATOM     18  H41 UNL     1      12.477  31.031  34.143  1.00  0.00     0.157 HD
ENDBRANCH   8  16
TORSDOF 6
ENDMDL
MODEL 4
REMARK VINA RESULT: -4.631041001      6.858      9.501
REMARK  6 active torsions:
REMARK  status: ('A' for Active; 'I' for Inactive)
REMARK    1  A    between atoms: C2_2  and  O1_3 
REMARK    2  A    between atoms: O1_3  and  C3_4 
REMARK    3  A    between atoms: C3_4  and  C4_5 
REMARK    4  A    between atoms: C4_5  and  N1_6 
REMARK    5  A    between atoms: N1_6  and  C5_8 
REMARK    6  A    between atoms: C8_15  and  N4_16 
ROOT
HETATM    1  C5  UNL     1       9.896  30.411  35.959  1.00  0.00     0.145 A 
HETATM    2  N2  UNL     1      11.116  30.647  35.461  1.00  0.00    -0.348 N 
ATOM      3  H2  UNL     1      11.695  31.383  35.863  1.00  0.00     0.167 HD
HETATM    4  C6  UNL     1      11.580  29.916  34.430  1.00  0.00     0.107 A 
HETATM    5  C7  UNL     1      10.824  28.900  33.847  1.00  0.00     0.107 A 
HETATM    6  N3  UNL     1       9.605  28.665  34.344  1.00  0.00    -0.348 N 
ATOM      7  H3  UNL     1       9.022  27.931  33.943  1.00  0.00     0.167 HD
HETATM    8  C8  UNL     1       9.142  29.408  35.386  1.00  0.00     0.143 A 
ENDROOT
BRANCH   1   9
HETATM    9  N1  UNL     1       9.377  31.055  36.934  1.00  0.00    -0.371 N 
ATOM     10  H1  UNL     1       8.474  31.499  36.765  1.00  0.00     0.161 HD
BRANCH   9  11
HETATM   11  C4  UNL     1       9.940  31.212  38.237  1.00  0.00     0.148 C 
BRANCH  11  12
HETATM   12  C3  UNL     1      10.418  32.652  38.467  1.00  0.00     0.194 C 
BRANCH  12  13
HETATM   13  O1  UNL     1      11.113  32.770  39.670  1.00  0.00    -0.362 OA
BRANCH  13  14
HETATM   14  C2  UNL     1      10.645  32.378  40.903  1.00  0.00     0.124 C 
HETATM   15  C1  UNL     1      11.386  31.652  41.740  1.00  0.00     0.037 C 
ENDBRANCH  13  14
ENDBRANCH  12  13
ENDBRANCH  11  12
ENDBRANCH   9  11
ENDBRANCH   1   9
BRANCH   8  16
HETATM   16  N4  UNL     1       7.958  29.112  35.801  1.00  0.00    -0.382 N 
ATOM     17  H42 UNL     1       7.237  29.807  35.611  1.00  0.00     0.157 HD
ATOM     18  H41 UNL     1       7.753  28.240  36.287  1.00  0.00     0.157 HD
ENDBRANCH   8  16
TORSDOF 6
ENDMDL
MODEL 5
REMARK VINA RESULT: -4.591722299      4.442      6.355
REMARK  6 active torsions:
REMARK  status: ('A' for Active; 'I' for Inactive)
REMARK    1  A    between atoms: C2_2  and  O1_3 
REMARK    2  A    between atoms: O1_3  and  C3_4 
REMARK    3  A    between atoms: C3_4  and  C4_5 
REMARK    4  A    between atoms: C4_5  and  N1_6 
REMARK    5  A    between atoms: N1_6  and  C5_8 
REMARK    6  A    between atoms: C8_15  and  N4_16 
ROOT
HETATM    1  C5  UNL     1      10.483  30.092  35.372  1.00  0.00     0.145 A 
HETATM    2  N2  UNL     1       9.765  29.072  34.884  1.00  0.00    -0.348 N 
ATOM      3  H2  UNL     1      10.148  28.493  34.137  1.00  0.00     0.167 HD
HETATM    4  C6  UNL     1       8.540  28.808  35.376  1.00  0.00     0.107 A 
HETATM    5  C7  UNL     1       7.976  29.573  36.396  1.00  0.00     0.107 A 
HETATM    6  N3  UNL     1       8.692  30.592  36.883  1.00  0.00    -0.348 N 
ATOM      7  H3  UNL     1       8.311  31.173  37.629  1.00  0.00     0.167 HD
HETATM    8  C8  UNL     1       9.929  30.852  36.381  1.00  0.00     0.143 A 
ENDROOT
BRANCH   1   9
HETATM    9  N1  UNL     1      11.651  30.413  34.965  1.00  0.00    -0.371 N 
ATOM     10  H1  UNL     1      12.076  31.239  35.388  1.00  0.00     0.161 HD
BRANCH   9  11
HETATM   11  C4  UNL     1      12.418  29.728  33.975  1.00  0.00     0.148 C 
BRANCH  11  12
HETATM   12  C3  UNL     1      12.563  30.570  32.700  1.00  0.00     0.194 C 
BRANCH  12  13
HETATM   13  O1  UNL     1      11.847  30.016  31.640  1.00  0.00    -0.362 OA
BRANCH  13  14
HETATM   14  C2  UNL     1      12.388  29.284  30.608  1.00  0.00     0.124 C 
HETATM   15  C1  UNL     1      13.513  29.654  29.996  1.00  0.00     0.037 C 
ENDBRANCH  13  14
ENDBRANCH  12  13
ENDBRANCH  11  12
ENDBRANCH   9  11
ENDBRANCH   1   9
BRANCH   8  16
HETATM   16  N4  UNL     1      10.547  31.852  36.910  1.00  0.00    -0.382 N 
ATOM     17  H42 UNL     1      11.553  31.887  36.745  1.00  0.00     0.157 HD
ATOM     18  H41 UNL     1      10.064  32.565  37.457  1.00  0.00     0.157 HD
ENDBRANCH   8  16
TORSDOF 6
ENDMDL
