MODEL 1
REMARK VINA RESULT: -4.752689297      0.000      0.000
REMARK  6 active torsions:
REMARK  status: ('A' for Active; 'I' for Inactive)
REMARK    1  A    between atoms: C3_3  and  N1_4 
REMARK    2  A    between atoms: C3_3  and  C4_8 
REMARK    3  A    between atoms: C3_3  and  C7_15 
REMARK    4  A    between atoms: C4_8  and  C5_9 
REMARK    5  A    between atoms: C5_9  and  C6_10 
REMARK    6  A    between atoms: C6_10  and  N2_11 
ROOT
HETATM    1  C1  UNL     1       9.509  28.053  33.536  1.00  0.00     0.015 C 
HETATM    2  C2  UNL     1      10.310  28.759  34.078  1.00  0.00    -0.072 C 
HETATM    3  C3  UNL     1      11.295  29.607  34.749  1.00  0.00     0.228 C 
ENDROOT
BRANCH   3   4
HETATM    4  N1  UNL     1      12.179  28.720  35.504  1.00  0.00    -0.054 N 
ATOM      5  H13 UNL     1      11.912  28.627  36.484  1.00  0.00     0.276 HD
ATOM      6  H12 UNL     1      12.077  27.739  35.247  1.00  0.00     0.276 HD
ATOM      7  H11 UNL     1      13.129  29.070  35.379  1.00  0.00     0.276 HD
ENDBRANCH   3   4
BRANCH   3   8
HETATM    8  C4  UNL     1      12.074  30.463  33.795  1.00  0.00     0.060 C 
BRANCH   8   9
HETATM    9  C5  UNL     1      12.980  29.669  32.888  1.00  0.00     0.031 C 
BRANCH   9  10
HETATM   10  C6  UNL     1      12.820  30.266  31.488  1.00  0.00     0.230 C 
BRANCH  10  11
HETATM   11  N2  UNL     1      11.813  29.498  30.800  1.00  0.00    -0.079 N 
ATOM     12  H23 UNL     1      11.878  28.498  30.990  1.00  0.00     0.274 HD
ATOM     13  H22 UNL     1      10.876  29.645  31.175  1.00  0.00     0.274 HD
ATOM     14  H21 UNL     1      11.883  29.718  29.806  1.00  0.00     0.274 HD
ENDBRANCH  10  11
ENDBRANCH   9  10
ENDBRANCH   8   9
ENDBRANCH   3   8
BRANCH   3  15
HETATM   15  C7  UNL     1      10.576  30.526  35.686  1.00  0.00     0.074 A 
HETATM   16  C8  UNL     1       9.440  30.211  36.415  1.00  0.00     0.117 A 
HETATM   17  N3  UNL     1       9.086  31.294  37.139  1.00  0.00    -0.360 N 
HETATM   18  C9  UNL     1       9.963  32.281  36.892  1.00  0.00     0.180 A 
ATOM     19  H3  UNL     1       8.287  31.354  37.769  1.00  0.00     0.166 HD
HETATM   20  N4  UNL     1      10.869  31.797  36.000  1.00  0.00    -0.352 N 
ATOM     21  H4  UNL     1      11.659  32.324  35.625  1.00  0.00     0.166 HD
ENDBRANCH   3  15
TORSDOF 6
ENDMDL
MODEL 2
REMARK VINA RESULT: -4.583904900      2.397      5.840
REMARK  6 active torsions:
REMARK  status: ('A' for Active; 'I' for Inactive)
REMARK    1  A    between atoms: C3_3  and  N1_4 
REMARK    2  A    between atoms: C3_3  and  C4_8 
REMARK    3  A    between atoms: C3_3  and  C7_15 
REMARK    4  A    between atoms: C4_8  and  C5_9 
REMARK    5  A    between atoms: C5_9  and  C6_10 
REMARK    6  A    between atoms: C6_10  and  N2_11 
ROOT
HETATM    1  C1  UNL     1      14.906  25.944  31.302  1.00  0.00     0.015 C 
HETATM    2  C2  UNL     1      14.030  26.758  31.349  1.00  0.00    -0.072 C 
HETATM    3  C3  UNL     1      12.950  27.743  31.396  1.00  0.00     0.228 C 
ENDROOT
BRANCH   3   4
HETATM    4  N1  UNL     1      11.768  27.109  30.815  1.00  0.00    -0.054 N 
ATOM      5  H13 UNL     1      11.907  26.121  30.601  1.00  0.00     0.276 HD
ATOM      6  H12 UNL     1      11.007  26.991  31.483  1.00  0.00     0.276 HD
ATOM      7  H11 UNL     1      11.504  27.662  30.000  1.00  0.00     0.276 HD
ENDBRANCH   3   4
BRANCH   3   8
HETATM    8  C4  UNL     1      12.671  28.236  32.785  1.00  0.00     0.060 C 
BRANCH   8   9
HETATM    9  C5  UNL     1      11.200  28.290  33.113  1.00  0.00     0.031 C 
BRANCH   9  10
HETATM   10  C6  UNL     1      11.042  29.343  34.212  1.00  0.00     0.230 C 
BRANCH  10  11
HETATM   11  N2  UNL     1      12.363  29.758  34.611  1.00  0.00    -0.079 N 
ATOM     12  H23 UNL     1      12.468  29.829  35.623  1.00  0.00     0.274 HD
ATOM     13  H22 UNL     1      13.070  29.039  34.453  1.00  0.00     0.274 HD
ATOM     14  H21 UNL     1      12.571  30.632  34.128  1.00  0.00     0.274 HD
ENDBRANCH  10  11
ENDBRANCH   9  10
ENDBRANCH   8   9
ENDBRANCH   3   8
BRANCH   3  15
HETATM   15  C7  UNL     1      13.347  28.929  30.575  1.00  0.00     0.074 A 
HETATM   16  C8  UNL     1      13.336  30.248  31.000  1.00  0.00     0.117 A 
HETATM   17  N3  UNL     1      13.754  31.027  29.980  1.00  0.00    -0.360 N 
HETATM   18  C9  UNL     1      14.031  30.242  28.926  1.00  0.00     0.180 A 
ATOM     19  H3  UNL     1      13.846  32.042  30.005  1.00  0.00     0.166 HD
HETATM   20  N4  UNL     1      13.777  28.960  29.305  1.00  0.00    -0.352 N 
ATOM     21  H4  UNL     1      13.897  28.140  28.709  1.00  0.00     0.166 HD
ENDBRANCH   3  15
TORSDOF 6
ENDMDL
MODEL 3
REMARK VINA RESULT: -4.390894864      3.239      5.199
REMARK  6 active torsions:
REMARK  status: ('A' for Active; 'I' for Inactive)
REMARK    1  A    between atoms: C3_3  and  N1_4 
REMARK    2  A    between atoms: C3_3  and  C4_8 
REMARK    3  A    between atoms: C3_3  and  C7_15 
REMARK    4  A    between atoms: C4_8  and  C5_9 
REMARK    5  A    between atoms: C5_9  and  C6_10 
REMARK    6  A    between atoms: C6_10  and  N2_11 
ROOT
HETATM    1  C1  UNL     1      14.150  30.107  29.015  1.00  0.00     0.015 C 
HETATM    2  C2  UNL     1      13.772  29.266  29.777  1.00  0.00    -0.072 C 
HETATM    3  C3  UNL     1      13.298  28.233  30.699  1.00  0.00     0.228 C 
ENDROOT
BRANCH   3   4
HETATM    4  N1  UNL     1      12.318  27.429  29.971  1.00  0.00    -0.054 N 
ATOM      5  H13 UNL     1      11.477  27.951  29.721  1.00  0.00     0.276 HD
ATOM      6  H12 UNL     1      12.613  27.197  29.023  1.00  0.00     0.276 HD
ATOM      7  H11 UNL     1      12.124  26.606  30.542  1.00  0.00     0.276 HD
ENDBRANCH   3   4
BRANCH   3   8
HETATM    8  C4  UNL     1      14.407  27.376  31.235  1.00  0.00     0.060 C 
BRANCH   8   9
HETATM    9  C5  UNL     1      14.594  26.094  30.464  1.00  0.00     0.031 C 
BRANCH   9  10
HETATM   10  C6  UNL     1      14.829  24.996  31.505  1.00  0.00     0.230 C 
BRANCH  10  11
HETATM   11  N2  UNL     1      16.179  25.137  31.988  1.00  0.00    -0.079 N 
ATOM     12  H23 UNL     1      16.574  26.058  31.801  1.00  0.00     0.274 HD
ATOM     13  H22 UNL     1      16.235  25.172  33.006  1.00  0.00     0.274 HD
ATOM     14  H21 UNL     1      16.732  24.379  31.586  1.00  0.00     0.274 HD
ENDBRANCH  10  11
ENDBRANCH   9  10
ENDBRANCH   8   9
ENDBRANCH   3   8
BRANCH   3  15
HETATM   15  C7  UNL     1      12.644  28.897  31.868  1.00  0.00     0.074 A 
HETATM   16  C8  UNL     1      11.507  28.449  32.522  1.00  0.00     0.117 A 
HETATM   17  N3  UNL     1      11.221  29.313  33.519  1.00  0.00    -0.360 N 
HETATM   18  C9  UNL     1      12.142  30.290  33.516  1.00  0.00     0.180 A 
ATOM     19  H3  UNL     1      10.437  29.236  34.167  1.00  0.00     0.166 HD
HETATM   20  N4  UNL     1      13.007  30.023  32.501  1.00  0.00    -0.352 N 
ATOM     21  H4  UNL     1      13.815  30.596  32.256  1.00  0.00     0.166 HD
ENDBRANCH   3  15
TORSDOF 6
ENDMDL
MODEL 4
REMARK VINA RESULT: -4.389988227      4.454      6.282
REMARK  6 active torsions:
REMARK  status: ('A' for Active; 'I' for Inactive)
REMARK    1  A    between atoms: C3_3  and  N1_4 
REMARK    2  A    between atoms: C3_3  and  C4_8 
REMARK    3  A    between atoms: C3_3  and  C7_15 
REMARK    4  A    between atoms: C4_8  and  C5_9 
REMARK    5  A    between atoms: C5_9  and  C6_10 
REMARK    6  A    between atoms: C6_10  and  N2_11 
ROOT
HETATM    1  C1  UNL     1      14.867  26.378  31.262  1.00  0.00     0.015 C 
HETATM    2  C2  UNL     1      13.743  26.787  31.211  1.00  0.00    -0.072 C 
HETATM    3  C3  UNL     1      12.367  27.282  31.164  1.00  0.00     0.228 C 
ENDROOT
BRANCH   3   4
HETATM    4  N1  UNL     1      11.894  27.358  32.545  1.00  0.00    -0.054 N 
ATOM      5  H13 UNL     1      12.647  27.309  33.231  1.00  0.00     0.276 HD
ATOM      6  H12 UNL     1      11.546  28.282  32.800  1.00  0.00     0.276 HD
ATOM      7  H11 UNL     1      11.197  26.621  32.662  1.00  0.00     0.276 HD
ENDBRANCH   3   4
BRANCH   3   8
HETATM    8  C4  UNL     1      12.249  28.612  30.479  1.00  0.00     0.060 C 
BRANCH   8   9
HETATM    9  C5  UNL     1      12.834  29.748  31.281  1.00  0.00     0.031 C 
BRANCH   9  10
HETATM   10  C6  UNL     1      13.849  30.441  30.369  1.00  0.00     0.230 C 
BRANCH  10  11
HETATM   11  N2  UNL     1      13.617  29.974  29.026  1.00  0.00    -0.079 N 
ATOM     12  H23 UNL     1      13.247  29.024  28.994  1.00  0.00     0.274 HD
ATOM     13  H22 UNL     1      12.830  30.439  28.573  1.00  0.00     0.274 HD
ATOM     14  H21 UNL     1      14.491  30.077  28.509  1.00  0.00     0.274 HD
ENDBRANCH  10  11
ENDBRANCH   9  10
ENDBRANCH   8   9
ENDBRANCH   3   8
BRANCH   3  15
HETATM   15  C7  UNL     1      11.533  26.309  30.393  1.00  0.00     0.074 A 
HETATM   16  C8  UNL     1      10.762  25.294  30.938  1.00  0.00     0.117 A 
HETATM   17  N3  UNL     1      10.161  24.628  29.929  1.00  0.00    -0.360 N 
HETATM   18  C9  UNL     1      10.527  25.191  28.766  1.00  0.00     0.180 A 
ATOM     19  H3  UNL     1       9.534  23.831  30.032  1.00  0.00     0.166 HD
HETATM   20  N4  UNL     1      11.367  26.219  29.064  1.00  0.00    -0.352 N 
ATOM     21  H4  UNL     1      11.806  26.832  28.378  1.00  0.00     0.166 HD
ENDBRANCH   3  15
TORSDOF 6
ENDMDL
MODEL 5
REMARK VINA RESULT: -4.349692131      3.962      5.808
REMARK  6 active torsions:
REMARK  status: ('A' for Active; 'I' for Inactive)
REMARK    1  A    between atoms: C3_3  and  N1_4 
REMARK    2  A    between atoms: C3_3  and  C4_8 
REMARK    3  A    between atoms: C3_3  and  C7_15 
REMARK    4  A    between atoms: C4_8  and  C5_9 
REMARK    5  A    between atoms: C5_9  and  C6_10 
REMARK    6  A    between atoms: C6_10  and  N2_11 
ROOT
HETATM    1  C1  UNL     1      10.611  28.448  33.053  1.00  0.00     0.015 C 
HETATM    2  C2  UNL     1      11.409  28.077  32.241  1.00  0.00    -0.072 C 
HETATM    3  C3  UNL     1      12.394  27.620  31.261  1.00  0.00     0.228 C 
ENDROOT
BRANCH   3   4
HETATM    4  N1  UNL     1      13.430  26.900  32.001  1.00  0.00    -0.054 N 
ATOM      5  H13 UNL     1      13.438  27.121  32.997  1.00  0.00     0.276 HD
ATOM      6  H12 UNL     1      13.239  25.903  32.090  1.00  0.00     0.276 HD
ATOM      7  H11 UNL     1      14.317  27.099  31.539  1.00  0.00     0.276 HD
ENDBRANCH   3   4
BRANCH   3   8
HETATM    8  C4  UNL     1      11.794  26.756  30.192  1.00  0.00     0.060 C 
BRANCH   8   9
HETATM    9  C5  UNL     1      11.087  25.541  30.736  1.00  0.00     0.031 C 
BRANCH   9  10
HETATM   10  C6  UNL     1      10.380  24.885  29.548  1.00  0.00     0.230 C 
BRANCH  10  11
HETATM   11  N2  UNL     1      10.587  25.729  28.398  1.00  0.00    -0.079 N 
ATOM     12  H23 UNL     1       9.779  25.758  27.777  1.00  0.00     0.274 HD
ATOM     13  H22 UNL     1      10.611  26.721  28.634  1.00  0.00     0.274 HD
ATOM     14  H21 UNL     1      11.436  25.410  27.931  1.00  0.00     0.274 HD
ENDBRANCH  10  11
ENDBRANCH   9  10
ENDBRANCH   8   9
ENDBRANCH   3   8
BRANCH   3  15
HETATM   15  C7  UNL     1      12.988  28.815  30.586  1.00  0.00     0.074 A 
HETATM   16  C8  UNL     1      13.027  30.101  31.103  1.00  0.00     0.117 A 
HETATM   17  N3  UNL     1      13.637  30.903  30.204  1.00  0.00    -0.360 N 
HETATM   18  C9  UNL     1      13.986  30.164  29.139  1.00  0.00     0.180 A 
ATOM     19  H3  UNL     1      13.805  31.902  30.316  1.00  0.00     0.166 HD
HETATM   20  N4  UNL     1      13.583  28.888  29.386  1.00  0.00    -0.352 N 
ATOM     21  H4  UNL     1      13.715  28.101  28.750  1.00  0.00     0.166 HD
ENDBRANCH   3  15
TORSDOF 6
ENDMDL
