MODEL 1
REMARK VINA RESULT: -5.035363617      0.000      0.000
REMARK  6 active torsions:
REMARK  status: ('A' for Active; 'I' for Inactive)
REMARK    1  A    between atoms: N1_1  and  C1_5 
REMARK    2  A    between atoms: C1_5  and  C2_6 
REMARK    3  A    between atoms: C4_12  and  N4_13 
REMARK    4  A    between atoms: N4_13  and  C5_15 
REMARK    5  A    between atoms: C5_15  and  C6_16 
REMARK    6  A    between atoms: C6_16  and  C7_17 
ROOT
HETATM    1  C2  UNL     1      12.589  29.411  31.915  1.00  0.00     0.029 A 
HETATM    2  C3  UNL     1      13.128  30.652  31.673  1.00  0.00     0.119 A 
HETATM    3  N2  UNL     1      13.301  30.823  30.354  1.00  0.00    -0.310 N 
ATOM      4  H2  UNL     1      13.669  31.663  29.906  1.00  0.00     0.186 HD
HETATM    5  N3  UNL     1      12.933  29.768  29.758  1.00  0.00    -0.286 N 
ATOM      6  H3  UNL     1      12.986  29.614  28.751  1.00  0.00     0.188 HD
HETATM    7  C4  UNL     1      12.422  28.806  30.730  1.00  0.00     0.125 A 
ENDROOT
BRANCH   7   8
HETATM    8  N4  UNL     1      11.927  27.838  30.143  1.00  0.00    -0.375 N 
ATOM      9  H4  UNL     1      10.996  28.020  29.769  1.00  0.00     0.161 HD
BRANCH   8  10
HETATM   10  C5  UNL     1      12.425  26.448  29.871  1.00  0.00     0.121 C 
BRANCH  10  11
HETATM   11  C6  UNL     1      11.166  25.651  30.371  1.00  0.00     0.024 C 
BRANCH  11  12
HETATM   12  C7  UNL     1      10.517  24.799  29.427  1.00  0.00    -0.013 A 
HETATM   13  C8  UNL     1       9.089  24.770  28.990  1.00  0.00     0.005 A 
HETATM   14  C9  UNL     1      10.192  25.236  28.011  1.00  0.00     0.005 A 
ENDBRANCH  11  12
ENDBRANCH  10  11
ENDBRANCH   8  10
ENDBRANCH   7   8
BRANCH   1  15
HETATM   15  C1  UNL     1      12.213  28.770  33.223  1.00  0.00     0.273 C 
BRANCH  15  16
HETATM   16  N1  UNL     1      12.510  29.745  34.301  1.00  0.00    -0.075 N 
ATOM     17  H13 UNL     1      12.471  30.713  33.983  1.00  0.00     0.274 HD
ATOM     18  H12 UNL     1      11.770  29.803  35.000  1.00  0.00     0.274 HD
ATOM     19  H11 UNL     1      13.415  29.495  34.701  1.00  0.00     0.274 HD
ENDBRANCH  15  16
ENDBRANCH   1  15
TORSDOF 6
ENDMDL
MODEL 2
REMARK VINA RESULT: -5.029326181      1.463      2.763
REMARK  6 active torsions:
REMARK  status: ('A' for Active; 'I' for Inactive)
REMARK    1  A    between atoms: N1_1  and  C1_5 
REMARK    2  A    between atoms: C1_5  and  C2_6 
REMARK    3  A    between atoms: C4_12  and  N4_13 
REMARK    4  A    between atoms: N4_13  and  C5_15 
REMARK    5  A    between atoms: C5_15  and  C6_16 
REMARK    6  A    between atoms: C6_16  and  C7_17 
ROOT
HETATM    1  C2  UNL     1      12.687  29.421  31.821  1.00  0.00     0.029 A 
HETATM    2  C3  UNL     1      13.285  30.639  31.599  1.00  0.00     0.119 A 
HETATM    3  N2  UNL     1      13.407  30.852  30.281  1.00  0.00    -0.310 N 
ATOM      4  H2  UNL     1      13.801  31.688  29.847  1.00  0.00     0.186 HD
HETATM    5  N3  UNL     1      12.952  29.843  29.664  1.00  0.00    -0.286 N 
ATOM      6  H3  UNL     1      12.950  29.727  28.651  1.00  0.00     0.188 HD
HETATM    7  C4  UNL     1      12.433  28.873  30.623  1.00  0.00     0.125 A 
ENDROOT
BRANCH   7   8
HETATM    8  N4  UNL     1      11.857  27.958  30.026  1.00  0.00    -0.375 N 
ATOM      9  H4  UNL     1      11.328  28.271  29.212  1.00  0.00     0.161 HD
BRANCH   8  10
HETATM   10  C5  UNL     1      11.783  26.477  30.259  1.00  0.00     0.121 C 
BRANCH  10  11
HETATM   11  C6  UNL     1      13.131  26.066  29.565  1.00  0.00     0.024 C 
BRANCH  11  12
HETATM   12  C7  UNL     1      14.119  25.437  30.381  1.00  0.00    -0.013 A 
HETATM   13  C8  UNL     1      15.608  25.459  30.266  1.00  0.00     0.005 A 
HETATM   14  C9  UNL     1      14.910  26.184  31.439  1.00  0.00     0.005 A 
ENDBRANCH  11  12
ENDBRANCH  10  11
ENDBRANCH   8  10
ENDBRANCH   7   8
BRANCH   1  15
HETATM   15  C1  UNL     1      12.336  28.751  33.120  1.00  0.00     0.273 C 
BRANCH  15  16
HETATM   16  N1  UNL     1      12.526  29.746  34.204  1.00  0.00    -0.075 N 
ATOM     17  H13 UNL     1      12.593  30.703  33.856  1.00  0.00     0.274 HD
ATOM     18  H12 UNL     1      11.694  29.870  34.780  1.00  0.00     0.274 HD
ATOM     19  H11 UNL     1      13.344  29.462  34.744  1.00  0.00     0.274 HD
ENDBRANCH  15  16
ENDBRANCH   1  15
TORSDOF 6
ENDMDL
MODEL 3
REMARK VINA RESULT: -4.874182449      4.166      6.060
REMARK  6 active torsions:
REMARK  status: ('A' for Active; 'I' for Inactive)
REMARK    1  A    between atoms: N1_1  and  C1_5 
REMARK    2  A    between atoms: C1_5  and  C2_6 
REMARK    3  A    between atoms: C4_12  and  N4_13 
REMARK    4  A    between atoms: N4_13  and  C5_15 
REMARK    5  A    between atoms: C5_15  and  C6_16 
REMARK    6  A    between atoms: C6_16  and  C7_17 
ROOT
HETATM    1  C2  UNL     1       9.714  30.874  36.507  1.00  0.00     0.029 A 
HETATM    2  C3  UNL     1       8.603  30.073  36.630  1.00  0.00     0.119 A 
HETATM    3  N2  UNL     1       8.644  29.096  35.714  1.00  0.00    -0.310 N 
ATOM      4  H2  UNL     1       7.950  28.356  35.601  1.00  0.00     0.186 HD
HETATM    5  N3  UNL     1       9.687  29.244  35.010  1.00  0.00    -0.286 N 
ATOM      6  H3  UNL     1       9.950  28.656  34.219  1.00  0.00     0.188 HD
HETATM    7  C4  UNL     1      10.455  30.383  35.503  1.00  0.00     0.125 A 
ENDROOT
BRANCH   7   8
HETATM    8  N4  UNL     1      11.541  30.443  34.918  1.00  0.00    -0.375 N 
ATOM      9  H4  UNL     1      12.026  31.331  35.045  1.00  0.00     0.161 HD
BRANCH   8  10
HETATM   10  C5  UNL     1      12.288  29.467  34.056  1.00  0.00     0.121 C 
BRANCH  10  11
HETATM   11  C6  UNL     1      12.590  30.416  32.841  1.00  0.00     0.024 C 
BRANCH  11  12
HETATM   12  C7  UNL     1      13.667  30.049  31.979  1.00  0.00    -0.013 A 
HETATM   13  C8  UNL     1      13.752  28.953  30.969  1.00  0.00     0.005 A 
HETATM   14  C9  UNL     1      13.713  30.429  30.510  1.00  0.00     0.005 A 
ENDBRANCH  11  12
ENDBRANCH  10  11
ENDBRANCH   8  10
ENDBRANCH   7   8
BRANCH   1  15
HETATM   15  C1  UNL     1      10.114  32.083  37.307  1.00  0.00     0.273 C 
BRANCH  15  16
HETATM   16  N1  UNL     1       9.435  33.260  36.710  1.00  0.00    -0.075 N 
ATOM     17  H13 UNL     1       9.792  34.147  37.065  1.00  0.00     0.274 HD
ATOM     18  H12 UNL     1       9.674  33.401  35.729  1.00  0.00     0.274 HD
ATOM     19  H11 UNL     1       8.432  33.146  36.862  1.00  0.00     0.274 HD
ENDBRANCH  15  16
ENDBRANCH   1  15
TORSDOF 6
ENDMDL
MODEL 4
REMARK VINA RESULT: -4.847632983      1.871      3.099
REMARK  6 active torsions:
REMARK  status: ('A' for Active; 'I' for Inactive)
REMARK    1  A    between atoms: N1_1  and  C1_5 
REMARK    2  A    between atoms: C1_5  and  C2_6 
REMARK    3  A    between atoms: C4_12  and  N4_13 
REMARK    4  A    between atoms: N4_13  and  C5_15 
REMARK    5  A    between atoms: C5_15  and  C6_16 
REMARK    6  A    between atoms: C6_16  and  C7_17 
ROOT
HETATM    1  C2  UNL     1      12.728  29.617  31.503  1.00  0.00     0.029 A 
HETATM    2  C3  UNL     1      13.381  30.757  31.098  1.00  0.00     0.119 A 
HETATM    3  N2  UNL     1      13.771  30.628  29.821  1.00  0.00    -0.310 N 
ATOM      4  H2  UNL     1      14.260  31.337  29.274  1.00  0.00     0.186 HD
HETATM    5  N3  UNL     1      13.431  29.480  29.409  1.00  0.00    -0.286 N 
ATOM      6  H3  UNL     1      13.631  29.107  28.481  1.00  0.00     0.188 HD
HETATM    7  C4  UNL     1      12.710  28.772  30.462  1.00  0.00     0.125 A 
ENDROOT
BRANCH   7   8
HETATM    8  N4  UNL     1      12.250  27.715  30.019  1.00  0.00    -0.375 N 
ATOM      9  H4  UNL     1      11.239  27.734  29.886  1.00  0.00     0.161 HD
BRANCH   8  10
HETATM   10  C5  UNL     1      12.883  26.408  29.638  1.00  0.00     0.121 C 
BRANCH  10  11
HETATM   11  C6  UNL     1      13.557  26.068  31.016  1.00  0.00     0.024 C 
BRANCH  11  12
HETATM   12  C7  UNL     1      14.984  26.049  31.057  1.00  0.00    -0.013 A 
HETATM   13  C8  UNL     1      15.908  25.087  31.729  1.00  0.00     0.005 A 
HETATM   14  C9  UNL     1      15.820  25.130  30.186  1.00  0.00     0.005 A 
ENDBRANCH  11  12
ENDBRANCH  10  11
ENDBRANCH   8  10
ENDBRANCH   7   8
BRANCH   1  15
HETATM   15  C1  UNL     1      12.109  29.293  32.835  1.00  0.00     0.273 C 
BRANCH  15  16
HETATM   16  N1  UNL     1      12.119  30.533  33.648  1.00  0.00    -0.075 N 
ATOM     17  H13 UNL     1      12.732  31.254  33.266  1.00  0.00     0.274 HD
ATOM     18  H12 UNL     1      11.245  31.055  33.587  1.00  0.00     0.274 HD
ATOM     19  H11 UNL     1      12.360  30.273  34.605  1.00  0.00     0.274 HD
ENDBRANCH  15  16
ENDBRANCH   1  15
TORSDOF 6
ENDMDL
MODEL 5
REMARK VINA RESULT: -4.796707230      2.606      4.216
REMARK  6 active torsions:
REMARK  status: ('A' for Active; 'I' for Inactive)
REMARK    1  A    between atoms: N1_1  and  C1_5 
REMARK    2  A    between atoms: C1_5  and  C2_6 
REMARK    3  A    between atoms: C4_12  and  N4_13 
REMARK    4  A    between atoms: N4_13  and  C5_15 
REMARK    5  A    between atoms: C5_15  and  C6_16 
REMARK    6  A    between atoms: C6_16  and  C7_17 
ROOT
HETATM    1  C2  UNL     1      11.164  29.166  33.913  1.00  0.00     0.029 A 
HETATM    2  C3  UNL     1      10.627  29.558  35.116  1.00  0.00     0.119 A 
HETATM    3  N2  UNL     1      11.106  30.763  35.457  1.00  0.00    -0.310 N 
ATOM      4  H2  UNL     1      10.855  31.288  36.295  1.00  0.00     0.186 HD
HETATM    5  N3  UNL     1      11.924  31.139  34.566  1.00  0.00    -0.286 N 
ATOM      6  H3  UNL     1      12.459  32.007  34.589  1.00  0.00     0.188 HD
HETATM    7  C4  UNL     1      11.984  30.142  33.501  1.00  0.00     0.125 A 
ENDROOT
BRANCH   7   8
HETATM    8  N4  UNL     1      12.664  30.571  32.563  1.00  0.00    -0.375 N 
ATOM      9  H4  UNL     1      12.297  31.428  32.149  1.00  0.00     0.161 HD
BRANCH   8  10
HETATM   10  C5  UNL     1      13.924  30.080  31.910  1.00  0.00     0.121 C 
BRANCH  10  11
HETATM   11  C6  UNL     1      13.310  29.621  30.538  1.00  0.00     0.024 C 
BRANCH  11  12
HETATM   12  C7  UNL     1      13.755  28.372  30.010  1.00  0.00    -0.013 A 
HETATM   13  C8  UNL     1      14.271  27.164  30.719  1.00  0.00     0.005 A 
HETATM   14  C9  UNL     1      12.894  27.122  30.017  1.00  0.00     0.005 A 
ENDBRANCH  11  12
ENDBRANCH  10  11
ENDBRANCH   8  10
ENDBRANCH   7   8
BRANCH   1  15
HETATM   15  C1  UNL     1      10.928  27.906  33.126  1.00  0.00     0.273 C 
BRANCH  15  16
HETATM   16  N1  UNL     1      11.978  26.932  33.513  1.00  0.00    -0.075 N 
ATOM     17  H13 UNL     1      11.619  26.166  34.084  1.00  0.00     0.274 HD
ATOM     18  H12 UNL     1      12.309  26.371  32.728  1.00  0.00     0.274 HD
ATOM     19  H11 UNL     1      12.726  27.452  33.973  1.00  0.00     0.274 HD
ENDBRANCH  15  16
ENDBRANCH   1  15
TORSDOF 6
ENDMDL
