MODEL 1
REMARK VINA RESULT: -8.269599026      0.000      0.000
REMARK  6 active torsions:
REMARK  status: ('A' for Active; 'I' for Inactive)
REMARK    1  A    between atoms: C2_2  and  C3_3 
REMARK    2  A    between atoms: C3_3  and  C4_4 
REMARK    3  A    between atoms: C4_4  and  C5_6 
REMARK    4  A    between atoms: C5_6  and  C6_7 
REMARK    5  A    between atoms: C9_10  and  O2_11 
REMARK    6  A    between atoms: C19_22  and  O3_24 
ROOT
HETATM    1  C6  UNL     1      -7.031   3.992  24.216  1.00  0.00    -0.034 C 
HETATM    2  C7  UNL     1      -6.566   4.638  23.125  1.00  0.00    -0.049 C 
HETATM    3  C8  UNL     1      -6.160   3.920  21.904  1.00  0.00     0.046 C 
HETATM    4  C9  UNL     1      -6.414   6.118  23.175  1.00  0.00     0.152 C 
HETATM    5  C10 UNL     1      -5.926   6.383  24.595  1.00  0.00     0.038 C 
HETATM    6  C11 UNL     1      -5.155   7.626  24.684  1.00  0.00    -0.041 C 
HETATM    7  C12 UNL     1      -3.702   7.302  24.266  1.00  0.00     0.015 C 
HETATM    8  C13 UNL     1      -5.535   8.734  23.737  1.00  0.00     0.015 C 
HETATM    9  C14 UNL     1      -5.042   8.201  26.072  1.00  0.00     0.009 C 
HETATM   10  C15 UNL     1      -6.228   7.983  26.947  1.00  0.00     0.002 C 
HETATM   11  C16 UNL     1      -6.528   6.491  26.965  1.00  0.00     0.013 C 
HETATM   12  C17 UNL     1      -7.018   6.131  25.564  1.00  0.00    -0.002 C 
HETATM   13  C18 UNL     1      -8.287   6.921  25.351  1.00  0.00     0.019 C 
HETATM   14  C19 UNL     1      -7.415   4.673  25.475  1.00  0.00     0.086 C 
HETATM   15  C20 UNL     1      -6.861   3.878  26.647  1.00  0.00     0.051 C 
ENDROOT
BRANCH   1  16
HETATM   16  C5  UNL     1      -7.090   2.516  24.085  1.00  0.00     0.116 C 
BRANCH  16  17
HETATM   17  C4  UNL     1      -8.361   1.916  23.702  1.00  0.00     0.134 C 
HETATM   18  O1  UNL     1      -9.474   2.395  23.787  1.00  0.00    -0.297 OA
BRANCH  17  19
HETATM   19  C3  UNL     1      -8.349   0.520  23.116  1.00  0.00     0.105 C 
BRANCH  19  20
HETATM   20  C2  UNL     1      -7.632   0.441  21.838  1.00  0.00    -0.030 C 
HETATM   21  C1  UNL     1      -8.197   0.914  20.745  1.00  0.00     0.007 C 
ENDBRANCH  19  20
ENDBRANCH  17  19
ENDBRANCH  16  17
ENDBRANCH   1  16
BRANCH  14  22
HETATM   22  O3  UNL     1      -8.818   4.550  25.609  1.00  0.00    -0.385 OA
ATOM     23  H3  UNL     1      -9.146   5.383  25.924  1.00  0.00     0.211 HD
ENDBRANCH  14  22
BRANCH   4  24
HETATM   24  O2  UNL     1      -7.513   6.830  22.805  1.00  0.00    -0.391 OA
ATOM     25  H2  UNL     1      -8.194   6.899  23.463  1.00  0.00     0.210 HD
ENDBRANCH   4  24
TORSDOF 6
ENDMDL
MODEL 2
REMARK VINA RESULT: -7.178016170      1.438      3.035
REMARK  6 active torsions:
REMARK  status: ('A' for Active; 'I' for Inactive)
REMARK    1  A    between atoms: C2_2  and  C3_3 
REMARK    2  A    between atoms: C3_3  and  C4_4 
REMARK    3  A    between atoms: C4_4  and  C5_6 
REMARK    4  A    between atoms: C5_6  and  C6_7 
REMARK    5  A    between atoms: C9_10  and  O2_11 
REMARK    6  A    between atoms: C19_22  and  O3_24 
ROOT
HETATM    1  C6  UNL     1      -7.817   4.756  24.047  1.00  0.00    -0.034 C 
HETATM    2  C7  UNL     1      -7.775   4.669  25.394  1.00  0.00    -0.049 C 
HETATM    3  C8  UNL     1      -8.796   3.938  26.163  1.00  0.00     0.046 C 
HETATM    4  C9  UNL     1      -6.687   5.374  26.126  1.00  0.00     0.152 C 
HETATM    5  C10 UNL     1      -6.512   6.674  25.350  1.00  0.00     0.038 C 
HETATM    6  C11 UNL     1      -5.968   7.743  26.193  1.00  0.00    -0.041 C 
HETATM    7  C12 UNL     1      -7.152   8.380  26.957  1.00  0.00     0.015 C 
HETATM    8  C13 UNL     1      -5.038   7.331  27.304  1.00  0.00     0.015 C 
HETATM    9  C14 UNL     1      -5.334   8.882  25.437  1.00  0.00     0.009 C 
HETATM   10  C15 UNL     1      -4.654   8.499  24.168  1.00  0.00     0.002 C 
HETATM   11  C16 UNL     1      -5.653   7.728  23.316  1.00  0.00     0.013 C 
HETATM   12  C17 UNL     1      -5.897   6.401  24.030  1.00  0.00    -0.002 C 
HETATM   13  C18 UNL     1      -4.565   5.690  24.055  1.00  0.00     0.019 C 
HETATM   14  C19 UNL     1      -6.831   5.511  23.239  1.00  0.00     0.086 C 
HETATM   15  C20 UNL     1      -7.576   6.302  22.174  1.00  0.00     0.051 C 
ENDROOT
BRANCH   1  16
HETATM   16  C5  UNL     1      -8.970   4.070  23.417  1.00  0.00     0.116 C 
BRANCH  16  17
HETATM   17  C4  UNL     1      -8.954   2.614  23.369  1.00  0.00     0.134 C 
HETATM   18  O1  UNL     1      -9.877   1.845  23.551  1.00  0.00    -0.297 OA
BRANCH  17  19
HETATM   19  C3  UNL     1      -7.645   1.919  23.053  1.00  0.00     0.105 C 
BRANCH  19  20
HETATM   20  C2  UNL     1      -7.486   1.621  21.625  1.00  0.00    -0.030 C 
HETATM   21  C1  UNL     1      -7.904   0.465  21.151  1.00  0.00     0.007 C 
ENDBRANCH  19  20
ENDBRANCH  17  19
ENDBRANCH  16  17
ENDBRANCH   1  16
BRANCH  14  22
HETATM   22  O3  UNL     1      -6.080   4.565  22.501  1.00  0.00    -0.385 OA
ATOM     23  H3  UNL     1      -6.690   4.083  21.957  1.00  0.00     0.211 HD
ENDBRANCH  14  22
BRANCH   4  24
HETATM   24  O2  UNL     1      -5.544   4.656  26.305  1.00  0.00    -0.391 OA
ATOM     25  H2  UNL     1      -5.228   4.196  25.537  1.00  0.00     0.210 HD
ENDBRANCH   4  24
TORSDOF 6
ENDMDL
MODEL 3
REMARK VINA RESULT: -6.972130638      1.591      2.331
REMARK  6 active torsions:
REMARK  status: ('A' for Active; 'I' for Inactive)
REMARK    1  A    between atoms: C2_2  and  C3_3 
REMARK    2  A    between atoms: C3_3  and  C4_4 
REMARK    3  A    between atoms: C4_4  and  C5_6 
REMARK    4  A    between atoms: C5_6  and  C6_7 
REMARK    5  A    between atoms: C9_10  and  O2_11 
REMARK    6  A    between atoms: C19_22  and  O3_24 
ROOT
HETATM    1  C6  UNL     1      -8.390   4.293  24.439  1.00  0.00    -0.034 C 
HETATM    2  C7  UNL     1      -8.113   5.520  23.946  1.00  0.00    -0.049 C 
HETATM    3  C8  UNL     1      -8.523   5.929  22.592  1.00  0.00     0.046 C 
HETATM    4  C9  UNL     1      -7.329   6.471  24.781  1.00  0.00     0.152 C 
HETATM    5  C10 UNL     1      -6.306   5.581  25.478  1.00  0.00     0.038 C 
HETATM    6  C11 UNL     1      -5.097   6.325  25.846  1.00  0.00    -0.041 C 
HETATM    7  C12 UNL     1      -4.182   6.371  24.600  1.00  0.00     0.015 C 
HETATM    8  C13 UNL     1      -5.270   7.783  26.186  1.00  0.00     0.015 C 
HETATM    9  C14 UNL     1      -4.261   5.680  26.920  1.00  0.00     0.009 C 
HETATM   10  C15 UNL     1      -5.027   4.923  27.950  1.00  0.00     0.002 C 
HETATM   11  C16 UNL     1      -5.915   3.918  27.230  1.00  0.00     0.013 C 
HETATM   12  C17 UNL     1      -6.975   4.730  26.489  1.00  0.00    -0.002 C 
HETATM   13  C18 UNL     1      -7.760   5.459  27.553  1.00  0.00     0.019 C 
HETATM   14  C19 UNL     1      -7.966   3.830  25.782  1.00  0.00     0.086 C 
HETATM   15  C20 UNL     1      -7.433   2.411  25.661  1.00  0.00     0.051 C 
ENDROOT
BRANCH   1  16
HETATM   16  C5  UNL     1      -9.124   3.401  23.510  1.00  0.00     0.116 C 
BRANCH  16  17
HETATM   17  C4  UNL     1      -8.413   2.254  22.961  1.00  0.00     0.134 C 
HETATM   18  O1  UNL     1      -8.535   1.082  23.258  1.00  0.00    -0.297 OA
BRANCH  17  19
HETATM   19  C3  UNL     1      -7.381   2.497  21.880  1.00  0.00     0.105 C 
BRANCH  19  20
HETATM   20  C2  UNL     1      -6.015   2.604  22.406  1.00  0.00    -0.030 C 
HETATM   21  C1  UNL     1      -5.381   3.758  22.339  1.00  0.00     0.007 C 
ENDBRANCH  19  20
ENDBRANCH  17  19
ENDBRANCH  16  17
ENDBRANCH   1  16
BRANCH  14  22
HETATM   22  O3  UNL     1      -9.134   3.693  26.568  1.00  0.00    -0.385 OA
ATOM     23  H3  UNL     1      -9.626   4.501  26.485  1.00  0.00     0.211 HD
ENDBRANCH  14  22
BRANCH   4  24
HETATM   24  O2  UNL     1      -8.064   7.258  25.614  1.00  0.00    -0.391 OA
ATOM     25  H2  UNL     1      -7.677   7.422  26.466  1.00  0.00     0.210 HD
ENDBRANCH   4  24
TORSDOF 6
ENDMDL
MODEL 4
REMARK VINA RESULT: -6.970244894      1.689      3.500
REMARK  6 active torsions:
REMARK  status: ('A' for Active; 'I' for Inactive)
REMARK    1  A    between atoms: C2_2  and  C3_3 
REMARK    2  A    between atoms: C3_3  and  C4_4 
REMARK    3  A    between atoms: C4_4  and  C5_6 
REMARK    4  A    between atoms: C5_6  and  C6_7 
REMARK    5  A    between atoms: C9_10  and  O2_11 
REMARK    6  A    between atoms: C19_22  and  O3_24 
ROOT
HETATM    1  C6  UNL     1      -6.921   4.532  23.562  1.00  0.00    -0.034 C 
HETATM    2  C7  UNL     1      -7.756   3.944  24.447  1.00  0.00    -0.049 C 
HETATM    3  C8  UNL     1      -8.740   2.928  24.036  1.00  0.00     0.046 C 
HETATM    4  C9  UNL     1      -7.711   4.371  25.872  1.00  0.00     0.152 C 
HETATM    5  C10 UNL     1      -7.477   5.875  25.791  1.00  0.00     0.038 C 
HETATM    6  C11 UNL     1      -7.989   6.572  26.975  1.00  0.00    -0.041 C 
HETATM    7  C12 UNL     1      -9.500   6.814  26.753  1.00  0.00     0.015 C 
HETATM    8  C13 UNL     1      -7.961   5.815  28.277  1.00  0.00     0.015 C 
HETATM    9  C14 UNL     1      -7.404   7.941  27.204  1.00  0.00     0.009 C 
HETATM   10  C15 UNL     1      -5.982   8.100  26.790  1.00  0.00     0.002 C 
HETATM   11  C16 UNL     1      -5.866   7.661  25.337  1.00  0.00     0.013 C 
HETATM   12  C17 UNL     1      -6.099   6.152  25.321  1.00  0.00    -0.002 C 
HETATM   13  C18 UNL     1      -4.986   5.549  26.145  1.00  0.00     0.019 C 
HETATM   14  C19 UNL     1      -5.942   5.583  23.928  1.00  0.00     0.086 C 
HETATM   15  C20 UNL     1      -5.991   6.680  22.875  1.00  0.00     0.051 C 
ENDROOT
BRANCH   1  16
HETATM   16  C5  UNL     1      -7.083   4.079  22.160  1.00  0.00     0.116 C 
BRANCH  16  17
HETATM   17  C4  UNL     1      -6.000   3.311  21.562  1.00  0.00     0.134 C 
HETATM   18  O1  UNL     1      -4.997   3.725  21.017  1.00  0.00    -0.297 OA
BRANCH  17  19
HETATM   19  C3  UNL     1      -6.084   1.799  21.600  1.00  0.00     0.105 C 
BRANCH  19  20
HETATM   20  C2  UNL     1      -7.381   1.286  21.143  1.00  0.00    -0.030 C 
HETATM   21  C1  UNL     1      -7.838   0.149  21.627  1.00  0.00     0.007 C 
ENDBRANCH  19  20
ENDBRANCH  17  19
ENDBRANCH  16  17
ENDBRANCH   1  16
BRANCH  14  22
HETATM   22  O3  UNL     1      -4.651   5.023  23.782  1.00  0.00    -0.385 OA
ATOM     23  H3  UNL     1      -4.311   4.867  24.655  1.00  0.00     0.211 HD
ENDBRANCH  14  22
BRANCH   4  24
HETATM   24  O2  UNL     1      -6.828   3.695  26.656  1.00  0.00    -0.391 OA
ATOM     25  H2  UNL     1      -6.201   4.236  27.123  1.00  0.00     0.210 HD
ENDBRANCH   4  24
TORSDOF 6
ENDMDL
MODEL 5
REMARK VINA RESULT: -6.917939248      1.655      2.168
REMARK  6 active torsions:
REMARK  status: ('A' for Active; 'I' for Inactive)
REMARK    1  A    between atoms: C2_2  and  C3_3 
REMARK    2  A    between atoms: C3_3  and  C4_4 
REMARK    3  A    between atoms: C4_4  and  C5_6 
REMARK    4  A    between atoms: C5_6  and  C6_7 
REMARK    5  A    between atoms: C9_10  and  O2_11 
REMARK    6  A    between atoms: C19_22  and  O3_24 
ROOT
HETATM    1  C6  UNL     1      -8.329   4.446  24.460  1.00  0.00    -0.034 C 
HETATM    2  C7  UNL     1      -8.049   5.697  24.035  1.00  0.00    -0.049 C 
HETATM    3  C8  UNL     1      -8.452   6.179  22.703  1.00  0.00     0.046 C 
HETATM    4  C9  UNL     1      -7.267   6.600  24.923  1.00  0.00     0.152 C 
HETATM    5  C10 UNL     1      -6.248   5.673  25.575  1.00  0.00     0.038 C 
HETATM    6  C11 UNL     1      -5.040   6.393  25.988  1.00  0.00    -0.041 C 
HETATM    7  C12 UNL     1      -4.120   6.505  24.750  1.00  0.00     0.015 C 
HETATM    8  C13 UNL     1      -5.212   7.831  26.405  1.00  0.00     0.015 C 
HETATM    9  C14 UNL     1      -4.209   5.690  27.029  1.00  0.00     0.009 C 
HETATM   10  C15 UNL     1      -4.980   4.880  28.014  1.00  0.00     0.002 C 
HETATM   11  C16 UNL     1      -5.866   3.917  27.236  1.00  0.00     0.013 C 
HETATM   12  C17 UNL     1      -6.922   4.769  26.536  1.00  0.00    -0.002 C 
HETATM   13  C18 UNL     1      -7.711   5.441  27.634  1.00  0.00     0.019 C 
HETATM   14  C19 UNL     1      -7.911   3.910  25.777  1.00  0.00     0.086 C 
HETATM   15  C20 UNL     1      -7.380   2.499  25.582  1.00  0.00     0.051 C 
ENDROOT
BRANCH   1  16
HETATM   16  C5  UNL     1      -9.060   3.607  23.480  1.00  0.00     0.116 C 
BRANCH  16  17
HETATM   17  C4  UNL     1      -8.290   2.662  22.682  1.00  0.00     0.134 C 
HETATM   18  O1  UNL     1      -7.187   2.813  22.197  1.00  0.00    -0.297 OA
BRANCH  17  19
HETATM   19  C3  UNL     1      -8.894   1.304  22.394  1.00  0.00     0.105 C 
BRANCH  19  20
HETATM   20  C2  UNL     1      -8.333   0.670  21.194  1.00  0.00    -0.030 C 
HETATM   21  C1  UNL     1      -7.820  -0.541  21.278  1.00  0.00     0.007 C 
ENDBRANCH  19  20
ENDBRANCH  17  19
ENDBRANCH  16  17
ENDBRANCH   1  16
BRANCH  14  22
HETATM   22  O3  UNL     1      -9.083   3.733  26.550  1.00  0.00    -0.385 OA
ATOM     23  H3  UNL     1      -9.416   4.597  26.759  1.00  0.00     0.211 HD
ENDBRANCH  14  22
BRANCH   4  24
HETATM   24  O2  UNL     1      -8.004   7.343  25.794  1.00  0.00    -0.391 OA
ATOM     25  H2  UNL     1      -8.569   7.994  25.396  1.00  0.00     0.210 HD
ENDBRANCH   4  24
TORSDOF 6
ENDMDL
