MODEL 1
REMARK VINA RESULT: -7.060478555      0.000      0.000
REMARK  7 active torsions:
REMARK  status: ('A' for Active; 'I' for Inactive)
REMARK    1  A    between atoms: C3_3  and  C4_4 
REMARK    2  A    between atoms: C4_4  and  O1_7 
REMARK    3  A    between atoms: C7_9  and  C8_10 
REMARK    4  A    between atoms: C8_10  and  C9_11 
REMARK    5  A    between atoms: C9_11  and  C10_12 
REMARK    6  A    between atoms: C16_19  and  O3_20 
REMARK    7  A    between atoms: O3_20  and  C17_21 
ROOT
HETATM    1  C1  UNL     1      -6.809   7.303  26.747  1.00  0.00     0.046 C 
HETATM    2  C2  UNL     1      -6.772   6.449  25.555  1.00  0.00    -0.044 C 
HETATM    3  C3  UNL     1      -7.066   5.161  25.475  1.00  0.00    -0.008 C 
HETATM    4  C7  UNL     1      -6.928   4.592  24.102  1.00  0.00     0.090 C 
HETATM    5  C14 UNL     1      -7.730   5.445  23.191  1.00  0.00     0.078 C 
HETATM    6  C15 UNL     1      -6.413   6.193  23.173  1.00  0.00     0.160 C 
HETATM    7  O2  UNL     1      -5.697   5.081  23.600  1.00  0.00    -0.367 OA
HETATM    8  C16 UNL     1      -6.339   7.182  24.289  1.00  0.00     0.193 C 
ENDROOT
BRANCH   4   9
HETATM    9  C8  UNL     1      -6.937   3.128  23.953  1.00  0.00     0.044 C 
BRANCH   9  10
HETATM   10  C9  UNL     1      -7.478   2.793  22.551  1.00  0.00     0.011 C 
BRANCH  10  11
HETATM   11  C10 UNL     1      -8.609   1.775  22.732  1.00  0.00    -0.051 C 
HETATM   12  C11 UNL     1      -9.888   2.465  23.070  1.00  0.00     0.014 C 
HETATM   13  C12 UNL     1      -8.670   0.930  21.498  1.00  0.00     0.014 C 
HETATM   14  C13 UNL     1      -8.216   0.903  23.902  1.00  0.00     0.014 C 
ENDBRANCH  10  11
ENDBRANCH   9  10
ENDBRANCH   4   9
BRANCH   3  15
HETATM   15  C4  UNL     1      -7.490   4.392  26.641  1.00  0.00     0.077 C 
HETATM   16  C5  UNL     1      -8.980   4.124  26.677  1.00  0.00     0.050 C 
HETATM   17  C6  UNL     1      -6.838   2.994  26.696  1.00  0.00     0.050 C 
BRANCH  15  18
HETATM   18  O1  UNL     1      -7.169   5.001  27.843  1.00  0.00    -0.386 OA
ATOM     19  H1  UNL     1      -7.777   4.792  28.543  1.00  0.00     0.211 HD
ENDBRANCH  15  18
ENDBRANCH   3  15
BRANCH   8  20
HETATM   20  O3  UNL     1      -4.985   7.548  24.537  1.00  0.00    -0.283 OA
BRANCH  20  21
HETATM   21  C17 UNL     1      -4.488   8.817  24.461  1.00  0.00     0.333 C 
HETATM   22  O4  UNL     1      -3.244   8.985  24.493  1.00  0.00    -0.624 OA
HETATM   23  O5  UNL     1      -5.269   9.959  24.348  1.00  0.00    -0.624 OA
ENDBRANCH  20  21
ENDBRANCH   8  20
TORSDOF 7
ENDMDL
MODEL 2
REMARK VINA RESULT: -6.972331563      0.694      1.320
REMARK  7 active torsions:
REMARK  status: ('A' for Active; 'I' for Inactive)
REMARK    1  A    between atoms: C3_3  and  C4_4 
REMARK    2  A    between atoms: C4_4  and  O1_7 
REMARK    3  A    between atoms: C7_9  and  C8_10 
REMARK    4  A    between atoms: C8_10  and  C9_11 
REMARK    5  A    between atoms: C9_11  and  C10_12 
REMARK    6  A    between atoms: C16_19  and  O3_20 
REMARK    7  A    between atoms: O3_20  and  C17_21 
ROOT
HETATM    1  C1  UNL     1      -7.261   7.164  26.809  1.00  0.00     0.046 C 
HETATM    2  C2  UNL     1      -7.056   6.363  25.597  1.00  0.00    -0.044 C 
HETATM    3  C3  UNL     1      -7.295   5.072  25.433  1.00  0.00    -0.008 C 
HETATM    4  C7  UNL     1      -6.978   4.567  24.064  1.00  0.00     0.090 C 
HETATM    5  C14 UNL     1      -7.696   5.435  23.099  1.00  0.00     0.078 C 
HETATM    6  C15 UNL     1      -6.413   6.220  23.266  1.00  0.00     0.160 C 
HETATM    7  O2  UNL     1      -5.714   5.112  23.732  1.00  0.00    -0.367 OA
HETATM    8  C16 UNL     1      -6.503   7.163  24.421  1.00  0.00     0.193 C 
ENDROOT
BRANCH   4   9
HETATM    9  C8  UNL     1      -6.921   3.111  23.858  1.00  0.00     0.044 C 
BRANCH   9  10
HETATM   10  C9  UNL     1      -7.599   2.791  22.514  1.00  0.00     0.011 C 
BRANCH  10  11
HETATM   11  C10 UNL     1      -8.690   1.750  22.793  1.00  0.00    -0.051 C 
HETATM   12  C11 UNL     1      -8.284   0.852  23.914  1.00  0.00     0.014 C 
HETATM   13  C12 UNL     1      -9.976   2.480  23.020  1.00  0.00     0.014 C 
HETATM   14  C13 UNL     1      -8.815   0.917  21.539  1.00  0.00     0.014 C 
ENDBRANCH  10  11
ENDBRANCH   9  10
ENDBRANCH   4   9
BRANCH   3  15
HETATM   15  C4  UNL     1      -7.826   4.242  26.510  1.00  0.00     0.077 C 
HETATM   16  C5  UNL     1      -7.002   2.998  26.773  1.00  0.00     0.050 C 
HETATM   17  C6  UNL     1      -7.864   4.982  27.863  1.00  0.00     0.050 C 
BRANCH  15  18
HETATM   18  O1  UNL     1      -9.124   3.815  26.281  1.00  0.00    -0.386 OA
ATOM     19  H1  UNL     1      -9.441   3.208  26.940  1.00  0.00     0.211 HD
ENDBRANCH  15  18
ENDBRANCH   3  15
BRANCH   8  20
HETATM   20  O3  UNL     1      -5.201   7.557  24.841  1.00  0.00    -0.283 OA
BRANCH  20  21
HETATM   21  C17 UNL     1      -4.624   8.766  24.580  1.00  0.00     0.333 C 
HETATM   22  O4  UNL     1      -3.374   8.831  24.466  1.00  0.00    -0.624 OA
HETATM   23  O5  UNL     1      -5.327   9.953  24.427  1.00  0.00    -0.624 OA
ENDBRANCH  20  21
ENDBRANCH   8  20
TORSDOF 7
ENDMDL
MODEL 3
REMARK VINA RESULT: -6.869649775      0.848      1.017
REMARK  7 active torsions:
REMARK  status: ('A' for Active; 'I' for Inactive)
REMARK    1  A    between atoms: C3_3  and  C4_4 
REMARK    2  A    between atoms: C4_4  and  O1_7 
REMARK    3  A    between atoms: C7_9  and  C8_10 
REMARK    4  A    between atoms: C8_10  and  C9_11 
REMARK    5  A    between atoms: C9_11  and  C10_12 
REMARK    6  A    between atoms: C16_19  and  O3_20 
REMARK    7  A    between atoms: O3_20  and  C17_21 
ROOT
HETATM    1  C1  UNL     1      -6.036   6.844  26.877  1.00  0.00     0.046 C 
HETATM    2  C2  UNL     1      -6.473   6.060  25.716  1.00  0.00    -0.044 C 
HETATM    3  C3  UNL     1      -6.763   4.769  25.677  1.00  0.00    -0.008 C 
HETATM    4  C7  UNL     1      -7.182   4.284  24.329  1.00  0.00     0.090 C 
HETATM    5  C14 UNL     1      -8.289   5.159  23.871  1.00  0.00     0.078 C 
HETATM    6  C15 UNL     1      -7.096   5.950  23.378  1.00  0.00     0.160 C 
HETATM    7  O2  UNL     1      -6.259   4.841  23.411  1.00  0.00    -0.367 OA
HETATM    8  C16 UNL     1      -6.590   6.877  24.434  1.00  0.00     0.193 C 
ENDROOT
BRANCH   4   9
HETATM    9  C8  UNL     1      -7.238   2.831  24.102  1.00  0.00     0.044 C 
BRANCH   9  10
HETATM   10  C9  UNL     1      -7.644   2.591  22.636  1.00  0.00     0.011 C 
BRANCH  10  11
HETATM   11  C10 UNL     1      -8.751   1.532  22.639  1.00  0.00    -0.051 C 
HETATM   12  C11 UNL     1     -10.077   2.158  22.919  1.00  0.00     0.014 C 
HETATM   13  C12 UNL     1      -8.680   0.787  21.343  1.00  0.00     0.014 C 
HETATM   14  C13 UNL     1      -8.429   0.580  23.767  1.00  0.00     0.014 C 
ENDBRANCH  10  11
ENDBRANCH   9  10
ENDBRANCH   4   9
BRANCH   3  15
HETATM   15  C4  UNL     1      -6.678   3.922  26.863  1.00  0.00     0.077 C 
HETATM   16  C5  UNL     1      -7.758   4.207  27.886  1.00  0.00     0.050 C 
HETATM   17  C6  UNL     1      -6.837   2.424  26.532  1.00  0.00     0.050 C 
BRANCH  15  18
HETATM   18  O1  UNL     1      -5.466   4.031  27.526  1.00  0.00    -0.386 OA
ATOM     19  H1  UNL     1      -5.225   3.243  27.998  1.00  0.00     0.211 HD
ENDBRANCH  15  18
ENDBRANCH   3  15
BRANCH   8  20
HETATM   20  O3  UNL     1      -5.253   7.275  24.143  1.00  0.00    -0.283 OA
BRANCH  20  21
HETATM   21  C17 UNL     1      -4.842   8.561  23.945  1.00  0.00     0.333 C 
HETATM   22  O4  UNL     1      -5.385   9.238  23.036  1.00  0.00    -0.624 OA
HETATM   23  O5  UNL     1      -3.852   9.190  24.685  1.00  0.00    -0.624 OA
ENDBRANCH  20  21
ENDBRANCH   8  20
TORSDOF 7
ENDMDL
MODEL 4
REMARK VINA RESULT: -6.854402908      2.550      5.509
REMARK  7 active torsions:
REMARK  status: ('A' for Active; 'I' for Inactive)
REMARK    1  A    between atoms: C3_3  and  C4_4 
REMARK    2  A    between atoms: C4_4  and  O1_7 
REMARK    3  A    between atoms: C7_9  and  C8_10 
REMARK    4  A    between atoms: C8_10  and  C9_11 
REMARK    5  A    between atoms: C9_11  and  C10_12 
REMARK    6  A    between atoms: C16_19  and  O3_20 
REMARK    7  A    between atoms: O3_20  and  C17_21 
ROOT
HETATM    1  C1  UNL     1      -7.261   3.133  26.685  1.00  0.00     0.046 C 
HETATM    2  C2  UNL     1      -6.912   3.495  25.306  1.00  0.00    -0.044 C 
HETATM    3  C3  UNL     1      -6.152   4.501  24.904  1.00  0.00    -0.008 C 
HETATM    4  C7  UNL     1      -5.993   4.584  23.422  1.00  0.00     0.090 C 
HETATM    5  C14 UNL     1      -5.523   3.257  22.955  1.00  0.00     0.078 C 
HETATM    6  C15 UNL     1      -7.021   3.037  22.931  1.00  0.00     0.160 C 
HETATM    7  O2  UNL     1      -7.289   4.400  22.881  1.00  0.00    -0.367 OA
HETATM    8  C16 UNL     1      -7.520   2.569  24.258  1.00  0.00     0.193 C 
ENDROOT
BRANCH   4   9
HETATM    9  C8  UNL     1      -5.427   5.818  22.852  1.00  0.00     0.044 C 
BRANCH   9  10
HETATM   10  C9  UNL     1      -6.152   6.109  21.527  1.00  0.00     0.011 C 
BRANCH  10  11
HETATM   11  C10 UNL     1      -6.610   7.571  21.571  1.00  0.00    -0.051 C 
HETATM   12  C11 UNL     1      -6.224   8.281  20.317  1.00  0.00     0.014 C 
HETATM   13  C12 UNL     1      -8.078   7.585  21.862  1.00  0.00     0.014 C 
HETATM   14  C13 UNL     1      -5.877   8.213  22.725  1.00  0.00     0.014 C 
ENDBRANCH  10  11
ENDBRANCH   9  10
ENDBRANCH   4   9
BRANCH   3  15
HETATM   15  C4  UNL     1      -5.533   5.427  25.847  1.00  0.00     0.077 C 
HETATM   16  C5  UNL     1      -4.287   6.096  25.305  1.00  0.00     0.050 C 
HETATM   17  C6  UNL     1      -6.468   6.593  26.230  1.00  0.00     0.050 C 
BRANCH  15  18
HETATM   18  O1  UNL     1      -5.172   4.829  27.043  1.00  0.00    -0.386 OA
ATOM     19  H1  UNL     1      -4.244   4.629  27.097  1.00  0.00     0.211 HD
ENDBRANCH  15  18
ENDBRANCH   3  15
BRANCH   8  20
HETATM   20  O3  UNL     1      -8.923   2.787  24.364  1.00  0.00    -0.283 OA
BRANCH  20  21
HETATM   21  C17 UNL     1      -9.879   2.107  23.665  1.00  0.00     0.333 C 
HETATM   22  O4  UNL     1     -10.605   2.739  22.857  1.00  0.00    -0.624 OA
HETATM   23  O5  UNL     1     -10.113   0.744  23.780  1.00  0.00    -0.624 OA
ENDBRANCH  20  21
ENDBRANCH   8  20
TORSDOF 7
ENDMDL
MODEL 5
REMARK VINA RESULT: -6.687230462      2.750      5.937
REMARK  7 active torsions:
REMARK  status: ('A' for Active; 'I' for Inactive)
REMARK    1  A    between atoms: C3_3  and  C4_4 
REMARK    2  A    between atoms: C4_4  and  O1_7 
REMARK    3  A    between atoms: C7_9  and  C8_10 
REMARK    4  A    between atoms: C8_10  and  C9_11 
REMARK    5  A    between atoms: C9_11  and  C10_12 
REMARK    6  A    between atoms: C16_19  and  O3_20 
REMARK    7  A    between atoms: O3_20  and  C17_21 
ROOT
HETATM    1  C1  UNL     1      -8.464   1.645  24.513  1.00  0.00     0.046 C 
HETATM    2  C2  UNL     1      -7.453   2.366  23.732  1.00  0.00    -0.044 C 
HETATM    3  C3  UNL     1      -6.901   3.536  24.010  1.00  0.00    -0.008 C 
HETATM    4  C7  UNL     1      -5.896   3.987  23.003  1.00  0.00     0.090 C 
HETATM    5  C14 UNL     1      -4.914   2.888  22.840  1.00  0.00     0.078 C 
HETATM    6  C15 UNL     1      -5.959   2.469  21.828  1.00  0.00     0.160 C 
HETATM    7  O2  UNL     1      -6.484   3.752  21.736  1.00  0.00    -0.367 OA
HETATM    8  C16 UNL     1      -7.023   1.635  22.464  1.00  0.00     0.193 C 
ENDROOT
BRANCH   4   9
HETATM    9  C8  UNL     1      -5.446   5.388  23.049  1.00  0.00     0.044 C 
BRANCH   9  10
HETATM   10  C9  UNL     1      -5.762   6.037  21.690  1.00  0.00     0.011 C 
BRANCH  10  11
HETATM   11  C10 UNL     1      -6.536   7.329  21.973  1.00  0.00    -0.051 C 
HETATM   12  C11 UNL     1      -7.916   7.021  22.451  1.00  0.00     0.014 C 
HETATM   13  C12 UNL     1      -5.724   8.155  22.919  1.00  0.00     0.014 C 
HETATM   14  C13 UNL     1      -6.643   8.060  20.655  1.00  0.00     0.014 C 
ENDBRANCH  10  11
ENDBRANCH   9  10
ENDBRANCH   4   9
BRANCH   3  15
HETATM   15  C4  UNL     1      -7.259   4.294  25.206  1.00  0.00     0.077 C 
HETATM   16  C5  UNL     1      -8.724   4.675  25.261  1.00  0.00     0.050 C 
HETATM   17  C6  UNL     1      -7.011   3.501  26.505  1.00  0.00     0.050 C 
BRANCH  15  18
HETATM   18  O1  UNL     1      -6.540   5.470  25.342  1.00  0.00    -0.386 OA
ATOM     19  H1  UNL     1      -7.013   6.236  25.039  1.00  0.00     0.211 HD
ENDBRANCH  15  18
ENDBRANCH   3  15
BRANCH   8  20
HETATM   20  O3  UNL     1      -8.191   1.620  21.650  1.00  0.00    -0.283 OA
BRANCH  20  21
HETATM   21  C17 UNL     1      -8.683   0.522  21.004  1.00  0.00     0.333 C 
HETATM   22  O4  UNL     1      -9.882   0.527  20.627  1.00  0.00    -0.624 OA
HETATM   23  O5  UNL     1      -7.946  -0.619  20.725  1.00  0.00    -0.624 OA
ENDBRANCH  20  21
ENDBRANCH   8  20
TORSDOF 7
ENDMDL
