MODEL 1
REMARK VINA RESULT: -8.076441451      0.000      0.000
REMARK  6 active torsions:
REMARK  status: ('A' for Active; 'I' for Inactive)
REMARK    1  A    between atoms: C2_2  and  O1_3 
REMARK    2  A    between atoms: C2_2  and  C3_5 
REMARK    3  A    between atoms: C8_10  and  C9_11 
REMARK    4  A    between atoms: C9_11  and  O2_12 
REMARK    5  A    between atoms: C9_11  and  C10_14 
REMARK    6  A    between atoms: C13_17  and  O3_18 
ROOT
HETATM    1  C3  UNL     1      -5.667   7.061  24.734  1.00  0.00     0.033 A 
HETATM    2  C4  UNL     1      -5.769   6.636  23.433  1.00  0.00    -0.036 A 
HETATM    3  C5  UNL     1      -5.556   7.575  22.313  1.00  0.00     0.050 C 
HETATM    4  C6  UNL     1      -6.161   5.328  23.113  1.00  0.00    -0.021 A 
HETATM    5  C7  UNL     1      -6.467   4.433  24.095  1.00  0.00    -0.017 A 
HETATM    6  C8  UNL     1      -6.378   4.813  25.451  1.00  0.00     0.013 A 
HETATM    7  C13 UNL     1      -5.987   6.105  25.743  1.00  0.00     0.088 A 
HETATM    8  C14 UNL     1      -7.083   3.119  23.711  1.00  0.00     0.138 C 
HETATM    9  C15 UNL     1      -8.563   3.327  23.589  1.00  0.00     0.070 C 
HETATM   10  N1  UNL     1      -9.693   3.502  23.484  1.00  0.00    -0.197 NA
HETATM   11  C16 UNL     1      -6.590   2.605  22.399  1.00  0.00    -0.010 C 
HETATM   12  C17 UNL     1      -7.660   1.676  21.805  1.00  0.00     0.021 C 
HETATM   13  C18 UNL     1      -5.375   1.697  22.589  1.00  0.00     0.021 C 
HETATM   14  C19 UNL     1      -6.284   3.597  21.379  1.00  0.00    -0.015 C 
HETATM   15  C20 UNL     1      -6.079   4.881  21.729  1.00  0.00     0.009 C 
ENDROOT
BRANCH   6  16
HETATM   16  C9  UNL     1      -6.682   3.778  26.402  1.00  0.00     0.158 C 
BRANCH  16  17
HETATM   17  O2  UNL     1      -5.526   3.899  27.342  1.00  0.00    -0.390 OA
ATOM     18  H2  UNL     1      -5.792   3.309  28.037  1.00  0.00     0.210 HD
ENDBRANCH  16  17
BRANCH  16  19
HETATM   19  C10 UNL     1      -7.847   3.640  27.259  1.00  0.00     0.011 C 
HETATM   20  C11 UNL     1      -7.636   3.620  28.747  1.00  0.00     0.012 C 
HETATM   21  C12 UNL     1      -9.013   4.554  26.948  1.00  0.00     0.012 C 
ENDBRANCH  16  19
ENDBRANCH   6  16
BRANCH   7  22
HETATM   22  O3  UNL     1      -5.887   6.554  26.989  1.00  0.00    -0.359 OA
ATOM     23  H3  UNL     1      -6.693   6.522  27.491  1.00  0.00     0.217 HD
ENDBRANCH   7  22
BRANCH   1  24
HETATM   24  C2  UNL     1      -5.228   8.377  25.127  1.00  0.00     0.053 C 
HETATM   25  C1  UNL     1      -4.036   9.143  24.811  1.00  0.00     0.077 C 
BRANCH  24  26
HETATM   26  O1  UNL     1      -6.029   9.030  25.919  1.00  0.00    -0.364 OA
ATOM     27  H1  UNL     1      -6.368   8.479  26.614  1.00  0.00     0.217 HD
ENDBRANCH  24  26
ENDBRANCH   1  24
TORSDOF 6
ENDMDL
MODEL 2
REMARK VINA RESULT: -7.418781154      0.961      1.159
REMARK  6 active torsions:
REMARK  status: ('A' for Active; 'I' for Inactive)
REMARK    1  A    between atoms: C2_2  and  O1_3 
REMARK    2  A    between atoms: C2_2  and  C3_5 
REMARK    3  A    between atoms: C8_10  and  C9_11 
REMARK    4  A    between atoms: C9_11  and  O2_12 
REMARK    5  A    between atoms: C9_11  and  C10_14 
REMARK    6  A    between atoms: C13_17  and  O3_18 
ROOT
HETATM    1  C3  UNL     1      -5.176   7.287  24.234  1.00  0.00     0.033 A 
HETATM    2  C4  UNL     1      -5.438   6.647  23.048  1.00  0.00    -0.036 A 
HETATM    3  C5  UNL     1      -5.300   7.356  21.760  1.00  0.00     0.050 C 
HETATM    4  C6  UNL     1      -5.925   5.333  23.012  1.00  0.00    -0.021 A 
HETATM    5  C7  UNL     1      -6.168   4.647  24.166  1.00  0.00    -0.017 A 
HETATM    6  C8  UNL     1      -5.916   5.255  25.415  1.00  0.00     0.013 A 
HETATM    7  C13 UNL     1      -5.432   6.549  25.426  1.00  0.00     0.088 A 
HETATM    8  C14 UNL     1      -6.885   3.332  24.090  1.00  0.00     0.138 C 
HETATM    9  C15 UNL     1      -8.357   3.614  24.075  1.00  0.00     0.070 C 
HETATM   10  N1  UNL     1      -9.482   3.843  24.050  1.00  0.00    -0.197 NA
HETATM   11  C16 UNL     1      -6.561   2.561  22.853  1.00  0.00    -0.010 C 
HETATM   12  C17 UNL     1      -7.732   1.617  22.545  1.00  0.00     0.021 C 
HETATM   13  C18 UNL     1      -5.379   1.621  23.088  1.00  0.00     0.021 C 
HETATM   14  C19 UNL     1      -6.318   3.334  21.644  1.00  0.00    -0.015 C 
HETATM   15  C20 UNL     1      -6.013   4.643  21.732  1.00  0.00     0.009 C 
ENDROOT
BRANCH   6  16
HETATM   16  C9  UNL     1      -6.166   4.427  26.564  1.00  0.00     0.158 C 
BRANCH  16  17
HETATM   17  O2  UNL     1      -4.853   4.508  27.272  1.00  0.00    -0.390 OA
ATOM     18  H2  UNL     1      -4.784   3.632  27.633  1.00  0.00     0.210 HD
ENDBRANCH  16  17
BRANCH  16  19
HETATM   19  C10 UNL     1      -7.163   4.593  27.607  1.00  0.00     0.011 C 
HETATM   20  C11 UNL     1      -8.400   5.385  27.289  1.00  0.00     0.012 C 
HETATM   21  C12 UNL     1      -7.573   3.334  28.342  1.00  0.00     0.012 C 
ENDBRANCH  16  19
ENDBRANCH   6  16
BRANCH   7  22
HETATM   22  O3  UNL     1      -5.178   7.203  26.554  1.00  0.00    -0.359 OA
ATOM     23  H3  UNL     1      -5.662   8.013  26.664  1.00  0.00     0.217 HD
ENDBRANCH   7  22
BRANCH   1  24
HETATM   24  C2  UNL     1      -4.633   8.620  24.335  1.00  0.00     0.053 C 
HETATM   25  C1  UNL     1      -5.206   9.928  24.078  1.00  0.00     0.077 C 
BRANCH  24  26
HETATM   26  O1  UNL     1      -3.394   8.700  24.726  1.00  0.00    -0.364 OA
ATOM     27  H1  UNL     1      -2.786   8.605  24.002  1.00  0.00     0.217 HD
ENDBRANCH  24  26
ENDBRANCH   1  24
TORSDOF 6
ENDMDL
MODEL 3
REMARK VINA RESULT: -7.367116314      2.629      5.961
REMARK  6 active torsions:
REMARK  status: ('A' for Active; 'I' for Inactive)
REMARK    1  A    between atoms: C2_2  and  O1_3 
REMARK    2  A    between atoms: C2_2  and  C3_5 
REMARK    3  A    between atoms: C8_10  and  C9_11 
REMARK    4  A    between atoms: C9_11  and  O2_12 
REMARK    5  A    between atoms: C9_11  and  C10_14 
REMARK    6  A    between atoms: C13_17  and  O3_18 
ROOT
HETATM    1  C3  UNL     1      -6.774   2.944  22.638  1.00  0.00     0.033 A 
HETATM    2  C4  UNL     1      -6.958   2.799  23.990  1.00  0.00    -0.036 A 
HETATM    3  C5  UNL     1      -7.432   1.519  24.555  1.00  0.00     0.050 C 
HETATM    4  C6  UNL     1      -6.790   3.872  24.877  1.00  0.00    -0.021 A 
HETATM    5  C7  UNL     1      -6.446   5.108  24.417  1.00  0.00    -0.017 A 
HETATM    6  C8  UNL     1      -6.242   5.317  23.036  1.00  0.00     0.013 A 
HETATM    7  C13 UNL     1      -6.410   4.245  22.181  1.00  0.00     0.088 A 
HETATM    8  C14 UNL     1      -6.484   6.271  25.365  1.00  0.00     0.138 C 
HETATM    9  C15 UNL     1      -7.890   6.791  25.394  1.00  0.00     0.070 C 
HETATM   10  N1  UNL     1      -8.973   7.171  25.419  1.00  0.00    -0.197 NA
HETATM   11  C16 UNL     1      -6.113   5.896  26.761  1.00  0.00    -0.010 C 
HETATM   12  C17 UNL     1      -6.762   6.901  27.726  1.00  0.00     0.021 C 
HETATM   13  C18 UNL     1      -4.613   6.075  26.995  1.00  0.00     0.021 C 
HETATM   14  C19 UNL     1      -6.508   4.570  27.212  1.00  0.00    -0.015 C 
HETATM   15  C20 UNL     1      -6.821   3.620  26.311  1.00  0.00     0.009 C 
ENDROOT
BRANCH   6  16
HETATM   16  C9  UNL     1      -5.841   6.648  22.667  1.00  0.00     0.158 C 
BRANCH  16  17
HETATM   17  O2  UNL     1      -4.689   6.363  21.758  1.00  0.00    -0.390 OA
ATOM     18  H2  UNL     1      -5.032   5.638  21.249  1.00  0.00     0.210 HD
ENDBRANCH  16  17
BRANCH  16  19
HETATM   19  C10 UNL     1      -6.609   7.675  21.984  1.00  0.00     0.011 C 
HETATM   20  C11 UNL     1      -6.094   8.192  20.670  1.00  0.00     0.012 C 
HETATM   21  C12 UNL     1      -8.095   7.418  21.853  1.00  0.00     0.012 C 
ENDBRANCH  16  19
ENDBRANCH   6  16
BRANCH   7  22
HETATM   22  O3  UNL     1      -6.251   4.351  20.867  1.00  0.00    -0.359 OA
ATOM     23  H3  UNL     1      -6.317   5.235  20.527  1.00  0.00     0.217 HD
ENDBRANCH   7  22
BRANCH   1  24
HETATM   24  C2  UNL     1      -6.889   1.870  21.682  1.00  0.00     0.053 C 
HETATM   25  C1  UNL     1      -8.033   1.137  21.173  1.00  0.00     0.077 C 
BRANCH  24  26
HETATM   26  O1  UNL     1      -5.772   1.453  21.159  1.00  0.00    -0.364 OA
ATOM     27  H1  UNL     1      -5.806   0.530  20.938  1.00  0.00     0.217 HD
ENDBRANCH  24  26
ENDBRANCH   1  24
TORSDOF 6
ENDMDL
MODEL 4
REMARK VINA RESULT: -7.317018090      1.949      4.356
REMARK  6 active torsions:
REMARK  status: ('A' for Active; 'I' for Inactive)
REMARK    1  A    between atoms: C2_2  and  O1_3 
REMARK    2  A    between atoms: C2_2  and  C3_5 
REMARK    3  A    between atoms: C8_10  and  C9_11 
REMARK    4  A    between atoms: C9_11  and  O2_12 
REMARK    5  A    between atoms: C9_11  and  C10_14 
REMARK    6  A    between atoms: C13_17  and  O3_18 
ROOT
HETATM    1  C3  UNL     1      -6.400   6.465  25.846  1.00  0.00     0.033 A 
HETATM    2  C4  UNL     1      -6.710   5.169  26.173  1.00  0.00    -0.036 A 
HETATM    3  C5  UNL     1      -6.455   4.651  27.533  1.00  0.00     0.050 C 
HETATM    4  C6  UNL     1      -7.197   4.263  25.219  1.00  0.00    -0.021 A 
HETATM    5  C7  UNL     1      -7.367   4.644  23.921  1.00  0.00    -0.017 A 
HETATM    6  C8  UNL     1      -7.066   5.965  23.527  1.00  0.00     0.013 A 
HETATM    7  C13 UNL     1      -6.591   6.841  24.484  1.00  0.00     0.088 A 
HETATM    8  C14 UNL     1      -7.684   3.596  22.895  1.00  0.00     0.138 C 
HETATM    9  C15 UNL     1      -6.388   2.999  22.436  1.00  0.00     0.070 C 
HETATM   10  N1  UNL     1      -5.390   2.539  22.104  1.00  0.00    -0.197 NA
HETATM   11  C16 UNL     1      -8.526   2.488  23.434  1.00  0.00    -0.010 C 
HETATM   12  C17 UNL     1      -8.277   1.229  22.588  1.00  0.00     0.021 C 
HETATM   13  C18 UNL     1     -10.013   2.781  23.231  1.00  0.00     0.021 C 
HETATM   14  C19 UNL     1      -8.304   2.110  24.821  1.00  0.00    -0.015 C 
HETATM   15  C20 UNL     1      -7.678   2.960  25.657  1.00  0.00     0.009 C 
ENDROOT
BRANCH   6  16
HETATM   16  C9  UNL     1      -7.324   6.269  22.145  1.00  0.00     0.158 C 
BRANCH  16  17
HETATM   17  O2  UNL     1      -8.232   7.449  22.271  1.00  0.00    -0.390 OA
ATOM     18  H2  UNL     1      -7.606   8.163  22.273  1.00  0.00     0.210 HD
ENDBRANCH  16  17
BRANCH  16  19
HETATM   19  C10 UNL     1      -6.382   6.633  21.100  1.00  0.00     0.011 C 
HETATM   20  C11 UNL     1      -6.401   8.046  20.588  1.00  0.00     0.012 C 
HETATM   21  C12 UNL     1      -4.943   6.223  21.329  1.00  0.00     0.012 C 
ENDBRANCH  16  19
ENDBRANCH   6  16
BRANCH   7  22
HETATM   22  O3  UNL     1      -6.271   8.098  24.201  1.00  0.00    -0.359 OA
ATOM     23  H3  UNL     1      -5.400   8.218  23.843  1.00  0.00     0.217 HD
ENDBRANCH   7  22
BRANCH   1  24
HETATM   24  C2  UNL     1      -5.938   7.453  26.790  1.00  0.00     0.053 C 
HETATM   25  C1  UNL     1      -6.639   8.443  27.586  1.00  0.00     0.077 C 
BRANCH  24  26
HETATM   26  O1  UNL     1      -4.651   7.492  26.986  1.00  0.00    -0.364 OA
ATOM     27  H1  UNL     1      -4.168   7.153  26.241  1.00  0.00     0.217 HD
ENDBRANCH  24  26
ENDBRANCH   1  24
TORSDOF 6
ENDMDL
MODEL 5
REMARK VINA RESULT: -6.952549782      2.506      5.130
REMARK  6 active torsions:
REMARK  status: ('A' for Active; 'I' for Inactive)
REMARK    1  A    between atoms: C2_2  and  O1_3 
REMARK    2  A    between atoms: C2_2  and  C3_5 
REMARK    3  A    between atoms: C8_10  and  C9_11 
REMARK    4  A    between atoms: C9_11  and  O2_12 
REMARK    5  A    between atoms: C9_11  and  C10_14 
REMARK    6  A    between atoms: C13_17  and  O3_18 
ROOT
HETATM    1  C3  UNL     1      -7.591   2.074  23.025  1.00  0.00     0.033 A 
HETATM    2  C4  UNL     1      -6.720   2.793  22.245  1.00  0.00    -0.036 A 
HETATM    3  C5  UNL     1      -6.022   2.158  21.108  1.00  0.00     0.050 C 
HETATM    4  C6  UNL     1      -6.391   4.123  22.542  1.00  0.00    -0.021 A 
HETATM    5  C7  UNL     1      -6.922   4.746  23.632  1.00  0.00    -0.017 A 
HETATM    6  C8  UNL     1      -7.825   4.056  24.470  1.00  0.00     0.013 A 
HETATM    7  C13 UNL     1      -8.138   2.747  24.156  1.00  0.00     0.088 A 
HETATM    8  C14 UNL     1      -6.385   6.088  24.034  1.00  0.00     0.138 C 
HETATM    9  C15 UNL     1      -5.175   5.858  24.890  1.00  0.00     0.070 C 
HETATM   10  N1  UNL     1      -4.242   5.671  25.531  1.00  0.00    -0.197 NA
HETATM   11  C16 UNL     1      -5.962   6.919  22.869  1.00  0.00    -0.010 C 
HETATM   12  C17 UNL     1      -4.899   7.921  23.343  1.00  0.00     0.021 C 
HETATM   13  C18 UNL     1      -7.111   7.802  22.381  1.00  0.00     0.021 C 
HETATM   14  C19 UNL     1      -5.393   6.213  21.731  1.00  0.00    -0.015 C 
HETATM   15  C20 UNL     1      -5.606   4.891  21.585  1.00  0.00     0.009 C 
ENDROOT
BRANCH   6  16
HETATM   16  C9  UNL     1      -8.357   4.821  25.565  1.00  0.00     0.158 C 
BRANCH  16  17
HETATM   17  O2  UNL     1      -9.790   4.399  25.546  1.00  0.00    -0.390 OA
ATOM     18  H2  UNL     1     -10.005   4.433  26.470  1.00  0.00     0.210 HD
ENDBRANCH  16  17
BRANCH  16  19
HETATM   19  C10 UNL     1      -7.978   4.791  26.967  1.00  0.00     0.011 C 
HETATM   20  C11 UNL     1      -6.922   3.812  27.397  1.00  0.00     0.012 C 
HETATM   21  C12 UNL     1      -7.682   6.132  27.605  1.00  0.00     0.012 C 
ENDBRANCH  16  19
ENDBRANCH   6  16
BRANCH   7  22
HETATM   22  O3  UNL     1      -8.968   2.018  24.893  1.00  0.00    -0.359 OA
ATOM     23  H3  UNL     1      -8.560   1.558  25.617  1.00  0.00     0.217 HD
ENDBRANCH   7  22
BRANCH   1  24
HETATM   24  C2  UNL     1      -8.002   0.719  22.746  1.00  0.00     0.053 C 
HETATM   25  C1  UNL     1      -7.911  -0.102  21.553  1.00  0.00     0.077 C 
BRANCH  24  26
HETATM   26  O1  UNL     1      -8.568   0.084  23.732  1.00  0.00    -0.364 OA
ATOM     27  H1  UNL     1      -8.882   0.679  24.403  1.00  0.00     0.217 HD
ENDBRANCH  24  26
ENDBRANCH   1  24
TORSDOF 6
ENDMDL
