MODEL 1
REMARK VINA RESULT: -7.063501833      0.000      0.000
REMARK  5 active torsions:
REMARK  status: ('A' for Active; 'I' for Inactive)
REMARK    1  A    between atoms: C4_4  and  N1_5 
REMARK       I    between atoms: N1_5  and  C5_7 
REMARK    2  A    between atoms: C5_7  and  O2_9 
REMARK    3  A    between atoms: O2_9  and  C6_10 
REMARK    4  A    between atoms: C11_17  and  C12_18 
REMARK    5  A    between atoms: C12_18  and  N3_20 
ROOT
HETATM    1  C1  UNL     1      -8.481   6.758  25.884  1.00  0.00     0.049 C 
HETATM    2  C2  UNL     1      -7.891   5.607  26.587  1.00  0.00    -0.049 A 
HETATM    3  C3  UNL     1      -8.330   5.354  27.879  1.00  0.00     0.056 A 
HETATM    4  C4  UNL     1      -7.833   4.313  28.605  1.00  0.00     0.109 A 
HETATM    5  N2  UNL     1      -6.880   3.531  27.999  1.00  0.00    -0.352 N 
ATOM      6  H2  UNL     1      -6.489   2.744  28.518  1.00  0.00     0.166 HD
HETATM    7  C10 UNL     1      -6.444   3.762  26.752  1.00  0.00     0.099 A 
HETATM    8  C11 UNL     1      -6.942   4.811  26.010  1.00  0.00    -0.015 A 
ENDROOT
BRANCH   8   9
HETATM    9  C12 UNL     1      -6.456   5.080  24.615  1.00  0.00     0.114 C 
HETATM   10  C13 UNL     1      -5.047   5.626  24.613  1.00  0.00     0.037 C 
BRANCH   9  11
HETATM   11  N3  UNL     1      -6.614   3.918  23.842  1.00  0.00    -0.372 N 
HETATM   12  C14 UNL     1      -7.569   3.169  23.547  1.00  0.00     0.073 C 
HETATM   13  C15 UNL     1      -8.962   3.326  23.987  1.00  0.00     0.076 C 
HETATM   14  N4  UNL     1      -7.282   2.039  22.692  1.00  0.00    -0.380 N 
HETATM   15  C16 UNL     1      -9.947   2.605  23.103  1.00  0.00     0.009 C 
HETATM   16  C17 UNL     1      -9.543   1.263  22.637  1.00  0.00     0.020 C 
HETATM   17  C18 UNL     1      -8.129   0.876  22.871  1.00  0.00     0.121 C 
ATOM     18  H4  UNL     1      -6.529   2.058  22.005  1.00  0.00     0.160 HD
ATOM     19  H3  UNL     1      -5.737   3.612  23.419  1.00  0.00     0.161 HD
ENDBRANCH   9  11
ENDBRANCH   8   9
BRANCH   4  20
HETATM   20  N1  UNL     1      -8.207   3.974  29.910  1.00  0.00    -0.288 N 
HETATM   21  C5  UNL     1      -8.290   2.704  30.490  1.00  0.00     0.367 C 
HETATM   22  O1  UNL     1      -8.045   1.626  29.946  1.00  0.00    -0.238 OA
ATOM     23  H1  UNL     1      -8.452   4.756  30.518  1.00  0.00     0.172 HD
BRANCH  21  24
HETATM   24  O2  UNL     1      -8.694   2.610  31.837  1.00  0.00    -0.294 OA
BRANCH  24  25
HETATM   25  C6  UNL     1      -7.796   2.902  32.874  1.00  0.00     0.061 C 
HETATM   26  C7  UNL     1      -7.781   4.374  33.222  1.00  0.00     0.046 C 
HETATM   27  C8  UNL     1      -8.284   2.154  34.109  1.00  0.00     0.046 C 
HETATM   28  C9  UNL     1      -6.389   2.466  32.579  1.00  0.00     0.046 C 
ENDBRANCH  24  25
ENDBRANCH  21  24
ENDBRANCH   4  20
TORSDOF 5
ENDMDL
MODEL 2
REMARK VINA RESULT: -6.757057415      1.935      3.582
REMARK  5 active torsions:
REMARK  status: ('A' for Active; 'I' for Inactive)
REMARK    1  A    between atoms: C4_4  and  N1_5 
REMARK       I    between atoms: N1_5  and  C5_7 
REMARK    2  A    between atoms: C5_7  and  O2_9 
REMARK    3  A    between atoms: O2_9  and  C6_10 
REMARK    4  A    between atoms: C11_17  and  C12_18 
REMARK    5  A    between atoms: C12_18  and  N3_20 
ROOT
HETATM    1  C1  UNL     1      -6.278   2.114  24.852  1.00  0.00     0.049 C 
HETATM    2  C2  UNL     1      -7.189   2.860  25.735  1.00  0.00    -0.049 A 
HETATM    3  C3  UNL     1      -6.929   2.824  27.099  1.00  0.00     0.056 A 
HETATM    4  C4  UNL     1      -7.725   3.481  27.989  1.00  0.00     0.109 A 
HETATM    5  N2  UNL     1      -8.792   4.178  27.475  1.00  0.00    -0.352 N 
ATOM      6  H2  UNL     1      -9.406   4.679  28.117  1.00  0.00     0.166 HD
HETATM    7  C10 UNL     1      -9.057   4.222  26.161  1.00  0.00     0.099 A 
HETATM    8  C11 UNL     1      -8.258   3.562  25.253  1.00  0.00    -0.015 A 
ENDROOT
BRANCH   8   9
HETATM    9  C12 UNL     1      -8.550   3.603  23.781  1.00  0.00     0.114 C 
HETATM   10  C13 UNL     1      -9.902   3.005  23.466  1.00  0.00     0.037 C 
BRANCH   9  11
HETATM   11  N3  UNL     1      -8.392   4.920  23.318  1.00  0.00    -0.372 N 
HETATM   12  C14 UNL     1      -7.453   5.585  22.832  1.00  0.00     0.073 C 
HETATM   13  C15 UNL     1      -6.088   5.104  22.583  1.00  0.00     0.076 C 
HETATM   14  N4  UNL     1      -7.731   6.960  22.481  1.00  0.00    -0.380 N 
HETATM   15  C16 UNL     1      -5.346   5.930  21.564  1.00  0.00     0.009 C 
HETATM   16  C17 UNL     1      -5.531   7.393  21.652  1.00  0.00     0.020 C 
HETATM   17  C18 UNL     1      -6.608   7.873  22.553  1.00  0.00     0.121 C 
ATOM     18  H4  UNL     1      -8.661   7.269  22.200  1.00  0.00     0.160 HD
ATOM     19  H3  UNL     1      -9.251   5.464  23.398  1.00  0.00     0.161 HD
ENDBRANCH   9  11
ENDBRANCH   8   9
BRANCH   4  20
HETATM   20  N1  UNL     1      -7.551   3.507  29.377  1.00  0.00    -0.288 N 
HETATM   21  C5  UNL     1      -8.442   3.099  30.374  1.00  0.00     0.367 C 
HETATM   22  O1  UNL     1      -9.572   2.633  30.210  1.00  0.00    -0.238 OA
ATOM     23  H1  UNL     1      -6.656   3.871  29.705  1.00  0.00     0.172 HD
BRANCH  21  24
HETATM   24  O2  UNL     1      -8.040   3.220  31.720  1.00  0.00    -0.294 OA
BRANCH  24  25
HETATM   25  C6  UNL     1      -7.420   2.149  32.379  1.00  0.00     0.061 C 
HETATM   26  C7  UNL     1      -6.029   2.500  32.860  1.00  0.00     0.046 C 
HETATM   27  C8  UNL     1      -8.257   1.842  33.614  1.00  0.00     0.046 C 
HETATM   28  C9  UNL     1      -7.335   0.906  31.541  1.00  0.00     0.046 C 
ENDBRANCH  24  25
ENDBRANCH  21  24
ENDBRANCH   4  20
TORSDOF 5
ENDMDL
MODEL 3
REMARK VINA RESULT: -6.735518187      1.274      1.929
REMARK  5 active torsions:
REMARK  status: ('A' for Active; 'I' for Inactive)
REMARK    1  A    between atoms: C4_4  and  N1_5 
REMARK       I    between atoms: N1_5  and  C5_7 
REMARK    2  A    between atoms: C5_7  and  O2_9 
REMARK    3  A    between atoms: O2_9  and  C6_10 
REMARK    4  A    between atoms: C11_17  and  C12_18 
REMARK    5  A    between atoms: C12_18  and  N3_20 
ROOT
HETATM    1  C1  UNL     1      -5.467   5.305  25.549  1.00  0.00     0.049 C 
HETATM    2  C2  UNL     1      -6.639   4.768  26.259  1.00  0.00    -0.049 A 
HETATM    3  C3  UNL     1      -6.427   4.219  27.518  1.00  0.00     0.056 A 
HETATM    4  C4  UNL     1      -7.454   3.694  28.243  1.00  0.00     0.109 A 
HETATM    5  N2  UNL     1      -8.703   3.733  27.672  1.00  0.00    -0.352 N 
ATOM      6  H2  UNL     1      -9.492   3.347  28.191  1.00  0.00     0.166 HD
HETATM    7  C10 UNL     1      -8.924   4.259  26.459  1.00  0.00     0.099 A 
HETATM    8  C11 UNL     1      -7.893   4.794  25.718  1.00  0.00    -0.015 A 
ENDROOT
BRANCH   8   9
HETATM    9  C12 UNL     1      -8.131   5.380  24.356  1.00  0.00     0.114 C 
HETATM   10  C13 UNL     1      -7.889   6.871  24.344  1.00  0.00     0.037 C 
BRANCH   9  11
HETATM   11  N3  UNL     1      -7.366   4.674  23.412  1.00  0.00    -0.372 N 
HETATM   12  C14 UNL     1      -7.411   3.535  22.904  1.00  0.00     0.073 C 
HETATM   13  C15 UNL     1      -8.406   2.494  23.195  1.00  0.00     0.076 C 
HETATM   14  N4  UNL     1      -6.389   3.203  21.937  1.00  0.00    -0.380 N 
HETATM   15  C16 UNL     1      -8.513   1.456  22.108  1.00  0.00     0.009 C 
HETATM   16  C17 UNL     1      -7.239   1.010  21.507  1.00  0.00     0.020 C 
HETATM   17  C18 UNL     1      -6.031   1.801  21.848  1.00  0.00     0.121 C 
ATOM     18  H4  UNL     1      -5.946   3.912  21.353  1.00  0.00     0.160 HD
ATOM     19  H3  UNL     1      -6.585   5.227  23.056  1.00  0.00     0.161 HD
ENDBRANCH   9  11
ENDBRANCH   8   9
BRANCH   4  20
HETATM   20  N1  UNL     1      -7.347   3.119  29.514  1.00  0.00    -0.288 N 
HETATM   21  C5  UNL     1      -8.361   2.589  30.318  1.00  0.00     0.367 C 
HETATM   22  O1  UNL     1      -9.562   2.530  30.050  1.00  0.00    -0.238 OA
ATOM     23  H1  UNL     1      -6.406   3.082  29.906  1.00  0.00     0.172 HD
BRANCH  21  24
HETATM   24  O2  UNL     1      -8.007   2.057  31.575  1.00  0.00    -0.294 OA
BRANCH  24  25
HETATM   25  C6  UNL     1      -7.858   2.896  32.689  1.00  0.00     0.061 C 
HETATM   26  C7  UNL     1      -8.653   2.412  33.882  1.00  0.00     0.046 C 
HETATM   27  C8  UNL     1      -6.387   2.854  33.083  1.00  0.00     0.046 C 
HETATM   28  C9  UNL     1      -8.235   4.323  32.411  1.00  0.00     0.046 C 
ENDBRANCH  24  25
ENDBRANCH  21  24
ENDBRANCH   4  20
TORSDOF 5
ENDMDL
MODEL 4
REMARK VINA RESULT: -6.411973258      1.647      3.814
REMARK  5 active torsions:
REMARK  status: ('A' for Active; 'I' for Inactive)
REMARK    1  A    between atoms: C4_4  and  N1_5 
REMARK       I    between atoms: N1_5  and  C5_7 
REMARK    2  A    between atoms: C5_7  and  O2_9 
REMARK    3  A    between atoms: O2_9  and  C6_10 
REMARK    4  A    between atoms: C11_17  and  C12_18 
REMARK    5  A    between atoms: C12_18  and  N3_20 
ROOT
HETATM    1  C1  UNL     1      -6.418   2.182  25.378  1.00  0.00     0.049 C 
HETATM    2  C2  UNL     1      -7.212   3.157  26.143  1.00  0.00    -0.049 A 
HETATM    3  C3  UNL     1      -7.205   3.041  27.527  1.00  0.00     0.056 A 
HETATM    4  C4  UNL     1      -7.917   3.898  28.312  1.00  0.00     0.109 A 
HETATM    5  N2  UNL     1      -8.639   4.876  27.672  1.00  0.00    -0.352 N 
ATOM      6  H2  UNL     1      -9.181   5.532  28.234  1.00  0.00     0.166 HD
HETATM    7  C10 UNL     1      -8.655   5.001  26.337  1.00  0.00     0.099 A 
HETATM    8  C11 UNL     1      -7.939   4.142  25.534  1.00  0.00    -0.015 A 
ENDROOT
BRANCH   8   9
HETATM    9  C12 UNL     1      -7.956   4.272  24.038  1.00  0.00     0.114 C 
HETATM   10  C13 UNL     1      -9.309   3.919  23.466  1.00  0.00     0.037 C 
BRANCH   9  11
HETATM   11  N3  UNL     1      -7.509   5.556  23.684  1.00  0.00    -0.372 N 
HETATM   12  C14 UNL     1      -6.483   6.233  23.906  1.00  0.00     0.073 C 
HETATM   13  C15 UNL     1      -5.320   5.811  24.698  1.00  0.00     0.076 C 
HETATM   14  N4  UNL     1      -6.430   7.558  23.331  1.00  0.00    -0.380 N 
HETATM   15  C16 UNL     1      -4.073   6.596  24.383  1.00  0.00     0.009 C 
HETATM   16  C17 UNL     1      -4.251   8.049  24.183  1.00  0.00     0.020 C 
HETATM   17  C18 UNL     1      -5.647   8.536  24.061  1.00  0.00     0.121 C 
ATOM     18  H4  UNL     1      -6.915   7.792  22.465  1.00  0.00     0.160 HD
ATOM     19  H3  UNL     1      -8.185   6.056  23.107  1.00  0.00     0.161 HD
ENDBRANCH   9  11
ENDBRANCH   8   9
BRANCH   4  20
HETATM   20  N1  UNL     1      -7.978   3.866  29.710  1.00  0.00    -0.288 N 
HETATM   21  C5  UNL     1      -8.834   3.121  30.527  1.00  0.00     0.367 C 
HETATM   22  O1  UNL     1      -9.713   2.339  30.159  1.00  0.00    -0.238 OA
ATOM     23  H1  UNL     1      -7.310   4.464  30.196  1.00  0.00     0.172 HD
BRANCH  21  24
HETATM   24  O2  UNL     1      -8.706   3.254  31.925  1.00  0.00    -0.294 OA
BRANCH  24  25
HETATM   25  C6  UNL     1      -7.847   2.412  32.647  1.00  0.00     0.061 C 
HETATM   26  C7  UNL     1      -6.643   3.151  33.190  1.00  0.00     0.046 C 
HETATM   27  C8  UNL     1      -8.634   1.896  33.844  1.00  0.00     0.046 C 
HETATM   28  C9  UNL     1      -7.365   1.234  31.850  1.00  0.00     0.046 C 
ENDBRANCH  24  25
ENDBRANCH  21  24
ENDBRANCH   4  20
TORSDOF 5
ENDMDL
MODEL 5
REMARK VINA RESULT: -6.326416660      1.250      1.651
REMARK  5 active torsions:
REMARK  status: ('A' for Active; 'I' for Inactive)
REMARK    1  A    between atoms: C4_4  and  N1_5 
REMARK       I    between atoms: N1_5  and  C5_7 
REMARK    2  A    between atoms: C5_7  and  O2_9 
REMARK    3  A    between atoms: O2_9  and  C6_10 
REMARK    4  A    between atoms: C11_17  and  C12_18 
REMARK    5  A    between atoms: C12_18  and  N3_20 
ROOT
HETATM    1  C1  UNL     1      -8.726   6.727  26.102  1.00  0.00     0.049 C 
HETATM    2  C2  UNL     1      -8.306   5.437  26.673  1.00  0.00    -0.049 A 
HETATM    3  C3  UNL     1      -8.306   5.321  28.057  1.00  0.00     0.056 A 
HETATM    4  C4  UNL     1      -7.926   4.165  28.671  1.00  0.00     0.109 A 
HETATM    5  N2  UNL     1      -7.545   3.125  27.858  1.00  0.00    -0.352 N 
ATOM      6  H2  UNL     1      -7.255   2.247  28.289  1.00  0.00     0.166 HD
HETATM    7  C10 UNL     1      -7.540   3.221  26.521  1.00  0.00     0.099 A 
HETATM    8  C11 UNL     1      -7.923   4.385  25.891  1.00  0.00    -0.015 A 
ENDROOT
BRANCH   8   9
HETATM    9  C12 UNL     1      -7.915   4.502  24.394  1.00  0.00     0.114 C 
HETATM   10  C13 UNL     1      -6.532   4.807  23.868  1.00  0.00     0.037 C 
BRANCH   9  11
HETATM   11  N3  UNL     1      -8.489   3.345  23.840  1.00  0.00    -0.372 N 
HETATM   12  C14 UNL     1      -8.180   2.548  22.930  1.00  0.00     0.073 C 
HETATM   13  C15 UNL     1      -6.978   2.616  22.089  1.00  0.00     0.076 C 
HETATM   14  N4  UNL     1      -9.089   1.453  22.676  1.00  0.00    -0.380 N 
HETATM   15  C16 UNL     1      -6.625   1.296  21.452  1.00  0.00     0.009 C 
HETATM   16  C17 UNL     1      -7.757   0.501  20.933  1.00  0.00     0.020 C 
HETATM   17  C18 UNL     1      -9.117   0.954  21.315  1.00  0.00     0.121 C 
ATOM     18  H4  UNL     1      -9.674   1.054  23.410  1.00  0.00     0.160 HD
ATOM     19  H3  UNL     1      -9.371   3.097  24.289  1.00  0.00     0.161 HD
ENDBRANCH   9  11
ENDBRANCH   8   9
BRANCH   4  20
HETATM   20  N1  UNL     1      -7.890   3.947  30.053  1.00  0.00    -0.288 N 
HETATM   21  C5  UNL     1      -8.727   3.140  30.828  1.00  0.00     0.367 C 
HETATM   22  O1  UNL     1      -9.673   2.457  30.430  1.00  0.00    -0.238 OA
ATOM     23  H1  UNL     1      -7.157   4.443  30.560  1.00  0.00     0.172 HD
BRANCH  21  24
HETATM   24  O2  UNL     1      -8.494   3.076  32.218  1.00  0.00    -0.294 OA
BRANCH  24  25
HETATM   25  C6  UNL     1      -7.554   2.178  32.744  1.00  0.00     0.061 C 
HETATM   26  C7  UNL     1      -6.246   2.855  33.092  1.00  0.00     0.046 C 
HETATM   27  C8  UNL     1      -8.137   1.634  34.042  1.00  0.00     0.046 C 
HETATM   28  C9  UNL     1      -7.264   1.021  31.830  1.00  0.00     0.046 C 
ENDBRANCH  24  25
ENDBRANCH  21  24
ENDBRANCH   4  20
TORSDOF 5
ENDMDL
