MODEL 1
REMARK VINA RESULT: -7.377910271      0.000      0.000
REMARK  4 active torsions:
REMARK  status: ('A' for Active; 'I' for Inactive)
REMARK    1  A    between atoms: C8_8  and  C9_9 
REMARK    2  A    between atoms: C9_9  and  C12_12 
REMARK    3  A    between atoms: C14_14  and  C16_16 
REMARK    4  A    between atoms: N1_20  and  O2_22 
ROOT
HETATM    1  C12 UNL     1      -7.118   3.952  24.639  1.00  0.00     0.013 C 
HETATM    2  C13 UNL     1      -8.318   3.140  24.523  1.00  0.00     0.080 C 
HETATM    3  C14 UNL     1      -8.236   1.997  23.529  1.00  0.00     0.064 C 
HETATM    4  C15 UNL     1      -8.107   0.714  24.353  1.00  0.00     0.030 C 
HETATM    5  C18 UNL     1      -7.097   2.068  22.625  1.00  0.00     0.048 C 
HETATM    6  N1  UNL     1      -7.070   1.206  21.643  1.00  0.00    -0.274 N 
ATOM      7  H1  UNL     1      -7.836   0.537  21.561  1.00  0.00     0.193 HD
HETATM    8  C19 UNL     1      -6.013   3.052  22.784  1.00  0.00     0.126 C 
HETATM    9  C20 UNL     1      -6.158   4.224  21.833  1.00  0.00     0.038 C 
HETATM   10  N2  UNL     1      -5.883   3.489  24.157  1.00  0.00    -0.383 N 
ATOM     11  H2  UNL     1      -5.018   3.466  24.697  1.00  0.00     0.160 HD
ENDROOT
BRANCH   1  12
HETATM   12  C9  UNL     1      -7.054   4.593  26.043  1.00  0.00    -0.031 C 
HETATM   13  C10 UNL     1      -7.534   3.835  26.954  1.00  0.00    -0.021 C 
HETATM   14  C11 UNL     1      -7.767   4.086  28.376  1.00  0.00     0.036 C 
BRANCH  12  15
HETATM   15  C8  UNL     1      -6.589   5.941  26.133  1.00  0.00     0.052 C 
HETATM   16  C2  UNL     1      -7.658   6.986  26.317  1.00  0.00    -0.080 C 
HETATM   17  C1  UNL     1      -8.903   6.925  25.945  1.00  0.00     0.015 C 
HETATM   18  C3  UNL     1      -7.175   8.232  26.969  1.00  0.00     0.034 C 
HETATM   19  C4  UNL     1      -5.669   8.213  27.051  1.00  0.00     0.005 C 
HETATM   20  C5  UNL     1      -4.941   7.707  25.869  1.00  0.00     0.005 C 
HETATM   21  C6  UNL     1      -5.701   6.556  25.129  1.00  0.00    -0.006 C 
HETATM   22  C7  UNL     1      -6.494   7.326  24.049  1.00  0.00     0.011 C 
ENDBRANCH  12  15
ENDBRANCH   1  12
BRANCH   3  23
HETATM   23  C16 UNL     1      -9.486   1.851  22.743  1.00  0.00     0.137 C 
HETATM   24  C17 UNL     1     -10.633   2.809  22.911  1.00  0.00     0.092 C 
HETATM   25  O1  UNL     1      -9.563   0.930  21.951  1.00  0.00    -0.297 OA
ENDBRANCH   3  23
BRANCH   6  26
HETATM   26  O2  UNL     1      -6.071   1.158  20.727  1.00  0.00    -0.290 OA
ATOM     27  H2  UNL     1      -5.528   0.390  20.591  1.00  0.00     0.244 HD
ENDBRANCH   6  26
TORSDOF 4
ENDMDL
MODEL 2
REMARK VINA RESULT: -7.337536520      3.381      6.404
REMARK  4 active torsions:
REMARK  status: ('A' for Active; 'I' for Inactive)
REMARK    1  A    between atoms: C8_8  and  C9_9 
REMARK    2  A    between atoms: C9_9  and  C12_12 
REMARK    3  A    between atoms: C14_14  and  C16_16 
REMARK    4  A    between atoms: N1_20  and  O2_22 
ROOT
HETATM    1  C12 UNL     1      -7.401   5.031  25.847  1.00  0.00     0.013 C 
HETATM    2  C13 UNL     1      -6.163   5.541  25.284  1.00  0.00     0.080 C 
HETATM    3  C14 UNL     1      -5.649   6.828  25.901  1.00  0.00     0.064 C 
HETATM    4  C15 UNL     1      -4.455   6.443  26.777  1.00  0.00     0.030 C 
HETATM    5  C18 UNL     1      -6.618   7.520  26.739  1.00  0.00     0.048 C 
HETATM    6  N1  UNL     1      -6.288   8.714  27.158  1.00  0.00    -0.274 N 
ATOM      7  H1  UNL     1      -5.383   9.094  26.880  1.00  0.00     0.193 HD
HETATM    8  C19 UNL     1      -7.913   6.929  27.115  1.00  0.00     0.126 C 
HETATM    9  C20 UNL     1      -9.055   7.471  26.276  1.00  0.00     0.038 C 
HETATM   10  N2  UNL     1      -7.870   5.483  27.092  1.00  0.00    -0.383 N 
ATOM     11  H2  UNL     1      -8.142   4.879  27.867  1.00  0.00     0.160 HD
ENDROOT
BRANCH   1  12
HETATM   12  C9  UNL     1      -7.470   3.499  25.659  1.00  0.00    -0.031 C 
HETATM   13  C10 UNL     1      -6.767   2.865  26.518  1.00  0.00    -0.021 C 
HETATM   14  C11 UNL     1      -6.465   1.438  26.633  1.00  0.00     0.036 C 
BRANCH  12  15
HETATM   15  C8  UNL     1      -8.191   3.004  24.529  1.00  0.00     0.052 C 
HETATM   16  C2  UNL     1      -7.346   2.540  23.372  1.00  0.00    -0.080 C 
HETATM   17  C1  UNL     1      -6.151   2.939  23.049  1.00  0.00     0.015 C 
HETATM   18  C3  UNL     1      -8.016   1.538  22.501  1.00  0.00     0.034 C 
HETATM   19  C4  UNL     1      -9.475   1.436  22.872  1.00  0.00     0.005 C 
HETATM   20  C5  UNL     1     -10.181   2.700  23.168  1.00  0.00     0.005 C 
HETATM   21  C6  UNL     1      -9.267   3.763  23.864  1.00  0.00    -0.006 C 
HETATM   22  C7  UNL     1      -8.740   4.582  22.663  1.00  0.00     0.011 C 
ENDBRANCH  12  15
ENDBRANCH   1  12
BRANCH   3  23
HETATM   23  C16 UNL     1      -5.119   7.763  24.879  1.00  0.00     0.137 C 
HETATM   24  C17 UNL     1      -5.689   7.809  23.488  1.00  0.00     0.092 C 
HETATM   25  O1  UNL     1      -4.203   8.501  25.193  1.00  0.00    -0.297 OA
ENDBRANCH   3  23
BRANCH   6  26
HETATM   26  O2  UNL     1      -7.093   9.472  27.944  1.00  0.00    -0.290 OA
ATOM     27  H2  UNL     1      -6.767  10.171  28.497  1.00  0.00     0.244 HD
ENDBRANCH   6  26
TORSDOF 4
ENDMDL
MODEL 3
REMARK VINA RESULT: -6.946831626      1.494      2.547
REMARK  4 active torsions:
REMARK  status: ('A' for Active; 'I' for Inactive)
REMARK    1  A    between atoms: C8_8  and  C9_9 
REMARK    2  A    between atoms: C9_9  and  C12_12 
REMARK    3  A    between atoms: C14_14  and  C16_16 
REMARK    4  A    between atoms: N1_20  and  O2_22 
ROOT
HETATM    1  C12 UNL     1      -6.884   3.772  23.064  1.00  0.00     0.013 C 
HETATM    2  C13 UNL     1      -8.134   3.446  23.730  1.00  0.00     0.080 C 
HETATM    3  C14 UNL     1      -8.527   1.981  23.693  1.00  0.00     0.064 C 
HETATM    4  C15 UNL     1      -8.268   1.427  25.095  1.00  0.00     0.030 C 
HETATM    5  C18 UNL     1      -7.767   1.179  22.744  1.00  0.00     0.048 C 
HETATM    6  N1  UNL     1      -8.176  -0.047  22.549  1.00  0.00    -0.274 N 
ATOM      7  H1  UNL     1      -8.994  -0.375  23.064  1.00  0.00     0.193 HD
HETATM    8  C19 UNL     1      -6.591   1.696  22.025  1.00  0.00     0.126 C 
HETATM    9  C20 UNL     1      -6.921   2.099  20.601  1.00  0.00     0.038 C 
HETATM   10  N2  UNL     1      -5.949   2.772  22.750  1.00  0.00    -0.383 N 
ATOM     11  H2  UNL     1      -4.960   2.800  22.997  1.00  0.00     0.160 HD
ENDROOT
BRANCH   1  12
HETATM   12  C9  UNL     1      -6.270   5.041  23.697  1.00  0.00    -0.031 C 
HETATM   13  C10 UNL     1      -5.791   5.844  22.826  1.00  0.00    -0.021 C 
HETATM   14  C11 UNL     1      -5.036   7.086  22.990  1.00  0.00     0.036 C 
BRANCH  12  15
HETATM   15  C8  UNL     1      -6.217   5.108  25.124  1.00  0.00     0.052 C 
HETATM   16  C2  UNL     1      -7.321   5.895  25.778  1.00  0.00    -0.080 C 
HETATM   17  C1  UNL     1      -8.006   6.878  25.271  1.00  0.00     0.015 C 
HETATM   18  C3  UNL     1      -7.595   5.494  27.183  1.00  0.00     0.034 C 
HETATM   19  C4  UNL     1      -6.514   4.558  27.666  1.00  0.00     0.005 C 
HETATM   20  C5  UNL     1      -5.125   4.887  27.283  1.00  0.00     0.005 C 
HETATM   21  C6  UNL     1      -5.020   5.544  25.866  1.00  0.00    -0.006 C 
HETATM   22  C7  UNL     1      -5.063   7.053  26.198  1.00  0.00     0.011 C 
ENDBRANCH  12  15
ENDBRANCH   1  12
BRANCH   3  23
HETATM   23  C16 UNL     1      -9.979   1.800  23.445  1.00  0.00     0.137 C 
HETATM   24  C17 UNL     1     -10.774   2.814  22.671  1.00  0.00     0.092 C 
HETATM   25  O1  UNL     1     -10.518   0.801  23.887  1.00  0.00    -0.297 OA
ENDBRANCH   3  23
BRANCH   6  26
HETATM   26  O2  UNL     1      -7.564  -0.905  21.695  1.00  0.00    -0.290 OA
ATOM     27  H2  UNL     1      -8.021  -1.612  21.255  1.00  0.00     0.244 HD
ENDBRANCH   6  26
TORSDOF 4
ENDMDL
MODEL 4
REMARK VINA RESULT: -6.684457717      2.947      6.197
REMARK  4 active torsions:
REMARK  status: ('A' for Active; 'I' for Inactive)
REMARK    1  A    between atoms: C8_8  and  C9_9 
REMARK    2  A    between atoms: C9_9  and  C12_12 
REMARK    3  A    between atoms: C14_14  and  C16_16 
REMARK    4  A    between atoms: N1_20  and  O2_22 
ROOT
HETATM    1  C12 UNL     1      -7.836   4.160  24.157  1.00  0.00     0.013 C 
HETATM    2  C13 UNL     1      -7.969   3.712  25.532  1.00  0.00     0.080 C 
HETATM    3  C14 UNL     1      -7.780   4.786  26.587  1.00  0.00     0.064 C 
HETATM    4  C15 UNL     1      -9.173   5.109  27.132  1.00  0.00     0.030 C 
HETATM    5  C18 UNL     1      -7.194   6.021  26.087  1.00  0.00     0.048 C 
HETATM    6  N1  UNL     1      -6.853   6.915  26.979  1.00  0.00    -0.274 N 
ATOM      7  H1  UNL     1      -7.013   6.704  27.964  1.00  0.00     0.193 HD
HETATM    8  C19 UNL     1      -6.984   6.281  24.653  1.00  0.00     0.126 C 
HETATM    9  C20 UNL     1      -5.543   6.058  24.235  1.00  0.00     0.038 C 
HETATM   10  N2  UNL     1      -7.903   5.524  23.830  1.00  0.00    -0.383 N 
ATOM     11  H2  UNL     1      -8.511   5.924  23.116  1.00  0.00     0.160 HD
ENDROOT
BRANCH   1  12
HETATM   12  C9  UNL     1      -8.660   3.242  23.226  1.00  0.00    -0.031 C 
HETATM   13  C10 UNL     1      -9.920   3.390  23.376  1.00  0.00    -0.021 C 
HETATM   14  C11 UNL     1     -11.042   2.657  22.788  1.00  0.00     0.036 C 
BRANCH  12  15
HETATM   15  C8  UNL     1      -7.943   2.301  22.424  1.00  0.00     0.052 C 
HETATM   16  C2  UNL     1      -8.112   0.855  22.813  1.00  0.00    -0.080 C 
HETATM   17  C1  UNL     1      -8.398   0.376  23.989  1.00  0.00     0.015 C 
HETATM   18  C3  UNL     1      -7.874  -0.100  21.699  1.00  0.00     0.034 C 
HETATM   19  C4  UNL     1      -7.278   0.631  20.521  1.00  0.00     0.005 C 
HETATM   20  C5  UNL     1      -6.244   1.645  20.816  1.00  0.00     0.005 C 
HETATM   21  C6  UNL     1      -6.496   2.401  22.163  1.00  0.00    -0.006 C 
HETATM   22  C7  UNL     1      -5.667   1.569  23.168  1.00  0.00     0.011 C 
ENDBRANCH  12  15
ENDBRANCH   1  12
BRANCH   3  23
HETATM   23  C16 UNL     1      -6.993   4.296  27.746  1.00  0.00     0.137 C 
HETATM   24  C17 UNL     1      -7.664   3.828  29.007  1.00  0.00     0.092 C 
HETATM   25  O1  UNL     1      -5.779   4.282  27.652  1.00  0.00    -0.297 OA
ENDBRANCH   3  23
BRANCH   6  26
HETATM   26  O2  UNL     1      -6.297   8.109  26.656  1.00  0.00    -0.290 OA
ATOM     27  H2  UNL     1      -5.963   8.717  27.304  1.00  0.00     0.244 HD
ENDBRANCH   6  26
TORSDOF 4
ENDMDL
MODEL 5
REMARK VINA RESULT: -6.644092116      1.266      2.136
REMARK  4 active torsions:
REMARK  status: ('A' for Active; 'I' for Inactive)
REMARK    1  A    between atoms: C8_8  and  C9_9 
REMARK    2  A    between atoms: C9_9  and  C12_12 
REMARK    3  A    between atoms: C14_14  and  C16_16 
REMARK    4  A    between atoms: N1_20  and  O2_22 
ROOT
HETATM    1  C12 UNL     1      -7.209   4.935  24.196  1.00  0.00     0.013 C 
HETATM    2  C13 UNL     1      -8.167   3.917  24.593  1.00  0.00     0.080 C 
HETATM    3  C14 UNL     1      -7.922   2.534  24.021  1.00  0.00     0.064 C 
HETATM    4  C15 UNL     1      -7.367   1.683  25.165  1.00  0.00     0.030 C 
HETATM    5  C18 UNL     1      -6.960   2.500  22.927  1.00  0.00     0.048 C 
HETATM    6  N1  UNL     1      -6.837   1.367  22.287  1.00  0.00    -0.274 N 
ATOM      7  H1  UNL     1      -7.412   0.577  22.582  1.00  0.00     0.193 HD
HETATM    8  C19 UNL     1      -6.152   3.667  22.539  1.00  0.00     0.126 C 
HETATM    9  C20 UNL     1      -6.709   4.369  21.315  1.00  0.00     0.038 C 
HETATM   10  N2  UNL     1      -5.967   4.583  23.644  1.00  0.00    -0.383 N 
ATOM     11  H2  UNL     1      -5.064   4.925  23.974  1.00  0.00     0.160 HD
ENDROOT
BRANCH   1  12
HETATM   12  C9  UNL     1      -7.136   6.035  25.279  1.00  0.00    -0.031 C 
HETATM   13  C10 UNL     1      -8.073   5.940  26.143  1.00  0.00    -0.021 C 
HETATM   14  C11 UNL     1      -8.439   6.821  27.252  1.00  0.00     0.036 C 
BRANCH  12  15
HETATM   15  C8  UNL     1      -6.138   7.047  25.126  1.00  0.00     0.052 C 
HETATM   16  C2  UNL     1      -4.762   6.679  25.614  1.00  0.00    -0.080 C 
HETATM   17  C1  UNL     1      -4.449   5.823  26.543  1.00  0.00     0.015 C 
HETATM   18  C3  UNL     1      -3.667   7.439  24.956  1.00  0.00     0.034 C 
HETATM   19  C4  UNL     1      -4.249   8.567  24.140  1.00  0.00     0.005 C 
HETATM   20  C5  UNL     1      -5.370   9.319  24.742  1.00  0.00     0.005 C 
HETATM   21  C6  UNL     1      -6.304   8.424  25.624  1.00  0.00    -0.006 C 
HETATM   22  C7  UNL     1      -5.699   8.607  27.035  1.00  0.00     0.011 C 
ENDBRANCH  12  15
ENDBRANCH   1  12
BRANCH   3  23
HETATM   23  C16 UNL     1      -9.181   1.875  23.596  1.00  0.00     0.137 C 
HETATM   24  C17 UNL     1     -10.314   2.662  22.997  1.00  0.00     0.092 C 
HETATM   25  O1  UNL     1      -9.278   0.670  23.744  1.00  0.00    -0.297 OA
ENDBRANCH   3  23
BRANCH   6  26
HETATM   26  O2  UNL     1      -5.982   1.191  21.249  1.00  0.00    -0.290 OA
ATOM     27  H2  UNL     1      -6.140   0.574  20.545  1.00  0.00     0.244 HD
ENDBRANCH   6  26
TORSDOF 4
ENDMDL
