MODEL 1
REMARK VINA RESULT: -8.545604773      0.000      0.000
REMARK  4 active torsions:
REMARK  status: ('A' for Active; 'I' for Inactive)
REMARK    1  A    between atoms: C3_3  and  C4_4 
REMARK    2  A    between atoms: C11_11  and  S1_12 
REMARK    3  A    between atoms: S1_12  and  C12_13 
REMARK    4  A    between atoms: C17_24  and  N4_25 
ROOT
HETATM    1  C1  UNL     1      -6.922   2.305  25.532  1.00  0.00     0.049 C 
HETATM    2  C2  UNL     1      -6.774   3.270  24.442  1.00  0.00    -0.041 A 
HETATM    3  C3  UNL     1      -7.019   2.876  23.117  1.00  0.00    -0.048 A 
HETATM    4  C7  UNL     1      -6.858   3.770  22.110  1.00  0.00     0.009 A 
HETATM    5  C8  UNL     1      -6.453   5.080  22.348  1.00  0.00     0.014 A 
HETATM    6  C9  UNL     1      -6.212   5.481  23.617  1.00  0.00    -0.005 A 
HETATM    7  C10 UNL     1      -6.374   4.558  24.702  1.00  0.00     0.015 A 
HETATM    8  C11 UNL     1      -6.129   4.987  25.978  1.00  0.00     0.083 A 
HETATM    9  N1  UNL     1      -5.745   6.258  26.167  1.00  0.00    -0.335 N 
ATOM     10  H1  UNL     1      -5.566   6.563  27.123  1.00  0.00     0.168 HD
HETATM   11  C15 UNL     1      -5.582   7.143  25.195  1.00  0.00     0.122 A 
HETATM   12  N2  UNL     1      -5.191   8.405  25.455  1.00  0.00    -0.338 N 
ATOM     13  H2  UNL     1      -5.017   8.692  26.418  1.00  0.00     0.168 HD
HETATM   14  C16 UNL     1      -5.031   9.289  24.459  1.00  0.00     0.183 A 
HETATM   15  N3  UNL     1      -5.256   8.930  23.179  1.00  0.00    -0.338 N 
ATOM     16  H3  UNL     1      -5.127   9.618  22.438  1.00  0.00     0.168 HD
HETATM   17  C17 UNL     1      -5.655   7.660  22.852  1.00  0.00     0.114 A 
HETATM   18  C18 UNL     1      -5.814   6.772  23.878  1.00  0.00     0.063 A 
ENDROOT
BRANCH   8  19
HETATM   19  S1  UNL     1      -6.318   3.890  27.356  1.00  0.00    -0.107 SA
BRANCH  19  20
HETATM   20  C12 UNL     1      -7.768   4.309  28.354  1.00  0.00     0.045 C 
HETATM   21  C13 UNL     1      -8.918   4.593  27.411  1.00  0.00     0.021 C 
HETATM   22  C14 UNL     1      -8.160   3.206  29.294  1.00  0.00     0.021 C 
ENDBRANCH  19  20
ENDBRANCH   8  19
BRANCH   3  23
HETATM   23  C4  UNL     1      -7.484   1.480  22.818  1.00  0.00     0.011 C 
HETATM   24  C5  UNL     1      -7.002   1.180  21.385  1.00  0.00     0.015 C 
HETATM   25  C6  UNL     1      -8.990   1.405  22.681  1.00  0.00     0.015 C 
ENDBRANCH   3  23
BRANCH  17  26
HETATM   26  N4  UNL     1      -5.829   7.461  21.625  1.00  0.00    -0.385 N 
ATOM     27  H42 UNL     1      -5.476   8.013  20.843  1.00  0.00     0.157 HD
ATOM     28  H41 UNL     1      -6.395   6.644  21.398  1.00  0.00     0.157 HD
ENDBRANCH  17  26
TORSDOF 4
ENDMDL
MODEL 2
REMARK VINA RESULT: -7.961748232      2.813      5.279
REMARK  4 active torsions:
REMARK  status: ('A' for Active; 'I' for Inactive)
REMARK    1  A    between atoms: C3_3  and  C4_4 
REMARK    2  A    between atoms: C11_11  and  S1_12 
REMARK    3  A    between atoms: S1_12  and  C12_13 
REMARK    4  A    between atoms: C17_24  and  N4_25 
ROOT
HETATM    1  C1  UNL     1      -7.551   6.486  25.601  1.00  0.00     0.049 C 
HETATM    2  C2  UNL     1      -7.018   5.770  24.442  1.00  0.00    -0.041 A 
HETATM    3  C3  UNL     1      -6.133   6.414  23.563  1.00  0.00    -0.048 A 
HETATM    4  C7  UNL     1      -5.661   5.751  22.479  1.00  0.00     0.009 A 
HETATM    5  C8  UNL     1      -6.029   4.437  22.204  1.00  0.00     0.014 A 
HETATM    6  C9  UNL     1      -6.880   3.797  23.038  1.00  0.00    -0.005 A 
HETATM    7  C10 UNL     1      -7.394   4.472  24.192  1.00  0.00     0.015 A 
HETATM    8  C11 UNL     1      -8.250   3.804  25.025  1.00  0.00     0.083 A 
HETATM    9  N1  UNL     1      -8.577   2.538  24.728  1.00  0.00    -0.335 N 
ATOM     10  H1  UNL     1      -9.215   2.052  25.357  1.00  0.00     0.168 HD
HETATM   11  C15 UNL     1      -8.126   1.876  23.673  1.00  0.00     0.122 A 
HETATM   12  N2  UNL     1      -8.497   0.603  23.433  1.00  0.00    -0.338 N 
ATOM     13  H2  UNL     1      -9.137   0.134  24.073  1.00  0.00     0.168 HD
HETATM   14  C16 UNL     1      -8.032  -0.053  22.360  1.00  0.00     0.183 A 
HETATM   15  N3  UNL     1      -7.185   0.550  21.501  1.00  0.00    -0.338 N 
ATOM     16  H3  UNL     1      -6.844   0.031  20.691  1.00  0.00     0.168 HD
HETATM   17  C17 UNL     1      -6.771   1.843  21.691  1.00  0.00     0.114 A 
HETATM   18  C18 UNL     1      -7.255   2.496  22.789  1.00  0.00     0.063 A 
ENDROOT
BRANCH   8  19
HETATM   19  S1  UNL     1      -8.912   4.589  26.467  1.00  0.00    -0.107 SA
BRANCH  19  20
HETATM   20  C12 UNL     1      -7.856   4.337  27.914  1.00  0.00     0.045 C 
HETATM   21  C13 UNL     1      -8.609   3.461  28.894  1.00  0.00     0.021 C 
HETATM   22  C14 UNL     1      -6.550   3.683  27.569  1.00  0.00     0.021 C 
ENDBRANCH  19  20
ENDBRANCH   8  19
BRANCH   3  23
HETATM   23  C4  UNL     1      -5.689   7.823  23.837  1.00  0.00     0.011 C 
HETATM   24  C5  UNL     1      -5.723   8.540  22.473  1.00  0.00     0.015 C 
HETATM   25  C6  UNL     1      -4.222   7.889  24.208  1.00  0.00     0.015 C 
ENDBRANCH   3  23
BRANCH  17  26
HETATM   26  N4  UNL     1      -5.984   2.280  20.817  1.00  0.00    -0.385 N 
ATOM     27  H42 UNL     1      -5.098   2.766  20.956  1.00  0.00     0.157 HD
ATOM     28  H41 UNL     1      -6.281   2.122  19.854  1.00  0.00     0.157 HD
ENDBRANCH  17  26
TORSDOF 4
ENDMDL
MODEL 3
REMARK VINA RESULT: -7.647200315      2.570      5.344
REMARK  4 active torsions:
REMARK  status: ('A' for Active; 'I' for Inactive)
REMARK    1  A    between atoms: C3_3  and  C4_4 
REMARK    2  A    between atoms: C11_11  and  S1_12 
REMARK    3  A    between atoms: S1_12  and  C12_13 
REMARK    4  A    between atoms: C17_24  and  N4_25 
ROOT
HETATM    1  C1  UNL     1      -6.440   4.185  21.734  1.00  0.00     0.049 C 
HETATM    2  C2  UNL     1      -6.841   5.002  22.879  1.00  0.00    -0.041 A 
HETATM    3  C3  UNL     1      -7.031   6.385  22.725  1.00  0.00    -0.048 A 
HETATM    4  C7  UNL     1      -7.380   7.139  23.797  1.00  0.00     0.009 A 
HETATM    5  C8  UNL     1      -7.560   6.582  25.059  1.00  0.00     0.014 A 
HETATM    6  C9  UNL     1      -7.383   5.252  25.230  1.00  0.00    -0.005 A 
HETATM    7  C10 UNL     1      -7.014   4.429  24.116  1.00  0.00     0.015 A 
HETATM    8  C11 UNL     1      -6.845   3.086  24.311  1.00  0.00     0.083 A 
HETATM    9  N1  UNL     1      -7.032   2.587  25.542  1.00  0.00    -0.335 N 
ATOM     10  H1  UNL     1      -6.903   1.584  25.672  1.00  0.00     0.168 HD
HETATM   11  C15 UNL     1      -7.372   3.309  26.599  1.00  0.00     0.122 A 
HETATM   12  N2  UNL     1      -7.542   2.743  27.809  1.00  0.00    -0.338 N 
ATOM     13  H2  UNL     1      -7.408   1.738  27.920  1.00  0.00     0.168 HD
HETATM   14  C16 UNL     1      -7.886   3.489  28.870  1.00  0.00     0.183 A 
HETATM   15  N3  UNL     1      -8.068   4.819  28.744  1.00  0.00    -0.338 N 
ATOM     16  H3  UNL     1      -8.329   5.366  29.564  1.00  0.00     0.168 HD
HETATM   17  C17 UNL     1      -7.910   5.452  27.538  1.00  0.00     0.114 A 
HETATM   18  C18 UNL     1      -7.559   4.678  26.469  1.00  0.00     0.063 A 
ENDROOT
BRANCH   8  19
HETATM   19  S1  UNL     1      -6.394   2.023  22.969  1.00  0.00    -0.107 SA
BRANCH  19  20
HETATM   20  C12 UNL     1      -7.748   0.918  22.501  1.00  0.00     0.045 C 
HETATM   21  C13 UNL     1      -9.052   1.608  22.843  1.00  0.00     0.021 C 
HETATM   22  C14 UNL     1      -7.737   0.577  21.040  1.00  0.00     0.021 C 
ENDBRANCH  19  20
ENDBRANCH   8  19
BRANCH   3  23
HETATM   23  C4  UNL     1      -6.874   7.022  21.374  1.00  0.00     0.011 C 
HETATM   24  C5  UNL     1      -5.751   8.066  21.536  1.00  0.00     0.015 C 
HETATM   25  C6  UNL     1      -8.070   7.878  21.013  1.00  0.00     0.015 C 
ENDBRANCH   3  23
BRANCH  17  26
HETATM   26  N4  UNL     1      -8.109   6.691  27.563  1.00  0.00    -0.385 N 
ATOM     27  H42 UNL     1      -8.758   7.234  26.992  1.00  0.00     0.157 HD
ATOM     28  H41 UNL     1      -7.545   7.203  28.240  1.00  0.00     0.157 HD
ENDBRANCH  17  26
TORSDOF 4
ENDMDL
MODEL 4
REMARK VINA RESULT: -7.448752635      3.030      6.213
REMARK  4 active torsions:
REMARK  status: ('A' for Active; 'I' for Inactive)
REMARK    1  A    between atoms: C3_3  and  C4_4 
REMARK    2  A    between atoms: C11_11  and  S1_12 
REMARK    3  A    between atoms: S1_12  and  C12_13 
REMARK    4  A    between atoms: C17_24  and  N4_25 
ROOT
HETATM    1  C1  UNL     1      -5.809   5.908  25.395  1.00  0.00     0.049 C 
HETATM    2  C2  UNL     1      -6.656   4.716  25.343  1.00  0.00    -0.041 A 
HETATM    3  C3  UNL     1      -7.410   4.339  26.465  1.00  0.00    -0.048 A 
HETATM    4  C7  UNL     1      -8.174   3.220  26.416  1.00  0.00     0.009 A 
HETATM    5  C8  UNL     1      -8.238   2.424  25.277  1.00  0.00     0.014 A 
HETATM    6  C9  UNL     1      -7.520   2.768  24.183  1.00  0.00    -0.005 A 
HETATM    7  C10 UNL     1      -6.704   3.946  24.205  1.00  0.00     0.015 A 
HETATM    8  C11 UNL     1      -5.990   4.278  23.087  1.00  0.00     0.083 A 
HETATM    9  N1  UNL     1      -6.082   3.488  22.008  1.00  0.00    -0.335 N 
ATOM     10  H1  UNL     1      -5.545   3.748  21.181  1.00  0.00     0.168 HD
HETATM   11  C15 UNL     1      -6.823   2.391  21.943  1.00  0.00     0.122 A 
HETATM   12  N2  UNL     1      -6.868   1.640  20.826  1.00  0.00    -0.338 N 
ATOM     13  H2  UNL     1      -6.323   1.916  20.010  1.00  0.00     0.168 HD
HETATM   14  C16 UNL     1      -7.623   0.533  20.778  1.00  0.00     0.183 A 
HETATM   15  N3  UNL     1      -8.350   0.151  21.847  1.00  0.00    -0.338 N 
ATOM     16  H3  UNL     1      -8.917  -0.695  21.787  1.00  0.00     0.168 HD
HETATM   17  C17 UNL     1      -8.345   0.873  23.012  1.00  0.00     0.114 A 
HETATM   18  C18 UNL     1      -7.571   1.999  23.044  1.00  0.00     0.063 A 
ENDROOT
BRANCH   8  19
HETATM   19  S1  UNL     1      -4.968   5.724  23.058  1.00  0.00    -0.107 SA
BRANCH  19  20
HETATM   20  C12 UNL     1      -5.753   7.084  22.158  1.00  0.00     0.045 C 
HETATM   21  C13 UNL     1      -7.234   6.786  22.060  1.00  0.00     0.021 C 
HETATM   22  C14 UNL     1      -5.558   8.411  22.831  1.00  0.00     0.021 C 
ENDBRANCH  19  20
ENDBRANCH   8  19
BRANCH   3  23
HETATM   23  C4  UNL     1      -7.390   5.185  27.706  1.00  0.00     0.011 C 
HETATM   24  C5  UNL     1      -7.981   4.299  28.821  1.00  0.00     0.015 C 
HETATM   25  C6  UNL     1      -8.386   6.324  27.627  1.00  0.00     0.015 C 
ENDBRANCH   3  23
BRANCH  17  26
HETATM   26  N4  UNL     1      -9.066   0.406  23.927  1.00  0.00    -0.385 N 
ATOM     27  H42 UNL     1     -10.042   0.621  24.128  1.00  0.00     0.157 HD
ATOM     28  H41 UNL     1      -8.604  -0.270  24.534  1.00  0.00     0.157 HD
ENDBRANCH  17  26
TORSDOF 4
ENDMDL
MODEL 5
REMARK VINA RESULT: -7.304272947      1.098      1.182
REMARK  4 active torsions:
REMARK  status: ('A' for Active; 'I' for Inactive)
REMARK    1  A    between atoms: C3_3  and  C4_4 
REMARK    2  A    between atoms: C11_11  and  S1_12 
REMARK    3  A    between atoms: S1_12  and  C12_13 
REMARK    4  A    between atoms: C17_24  and  N4_25 
ROOT
HETATM    1  C1  UNL     1      -8.624   2.409  25.070  1.00  0.00     0.049 C 
HETATM    2  C2  UNL     1      -7.831   3.197  24.126  1.00  0.00    -0.041 A 
HETATM    3  C3  UNL     1      -7.469   2.653  22.884  1.00  0.00    -0.048 A 
HETATM    4  C7  UNL     1      -6.714   3.382  22.026  1.00  0.00     0.009 A 
HETATM    5  C8  UNL     1      -6.282   4.667  22.337  1.00  0.00     0.014 A 
HETATM    6  C9  UNL     1      -6.620   5.212  23.528  1.00  0.00    -0.005 A 
HETATM    7  C10 UNL     1      -7.417   4.466  24.456  1.00  0.00     0.015 A 
HETATM    8  C11 UNL     1      -7.751   5.038  25.652  1.00  0.00     0.083 A 
HETATM    9  N1  UNL     1      -7.319   6.280  25.913  1.00  0.00    -0.335 N 
ATOM     10  H1  UNL     1      -7.576   6.695  26.809  1.00  0.00     0.168 HD
HETATM   11  C15 UNL     1      -6.581   7.006  25.086  1.00  0.00     0.122 A 
HETATM   12  N2  UNL     1      -6.179   8.249  25.413  1.00  0.00    -0.338 N 
ATOM     13  H2  UNL     1      -6.445   8.646  26.314  1.00  0.00     0.168 HD
HETATM   14  C16 UNL     1      -5.431   8.970  24.564  1.00  0.00     0.183 A 
HETATM   15  N3  UNL     1      -5.068   8.463  23.369  1.00  0.00    -0.338 N 
ATOM     16  H3  UNL     1      -4.500   9.029  22.740  1.00  0.00     0.168 HD
HETATM   17  C17 UNL     1      -5.447   7.204  22.980  1.00  0.00     0.114 A 
HETATM   18  C18 UNL     1      -6.208   6.483  23.856  1.00  0.00     0.063 A 
ENDROOT
BRANCH   8  19
HETATM   19  S1  UNL     1      -8.738   4.162  26.834  1.00  0.00    -0.107 SA
BRANCH  19  20
HETATM   20  C12 UNL     1      -7.722   3.404  28.126  1.00  0.00     0.045 C 
HETATM   21  C13 UNL     1      -6.286   3.823  27.897  1.00  0.00     0.021 C 
HETATM   22  C14 UNL     1      -8.144   3.815  29.507  1.00  0.00     0.021 C 
ENDBRANCH  19  20
ENDBRANCH   8  19
BRANCH   3  23
HETATM   23  C4  UNL     1      -7.936   1.279  22.497  1.00  0.00     0.011 C 
HETATM   24  C5  UNL     1      -7.201   0.945  21.184  1.00  0.00     0.015 C 
HETATM   25  C6  UNL     1      -9.389   1.279  22.071  1.00  0.00     0.015 C 
ENDBRANCH   3  23
BRANCH  17  26
HETATM   26  N4  UNL     1      -5.040   6.858  21.844  1.00  0.00    -0.385 N 
ATOM     27  H42 UNL     1      -5.118   7.371  20.966  1.00  0.00     0.157 HD
ATOM     28  H41 UNL     1      -4.578   5.949  21.812  1.00  0.00     0.157 HD
ENDBRANCH  17  26
TORSDOF 4
ENDMDL
