MODEL 1
REMARK VINA RESULT: -7.855799105      0.000      0.000
REMARK  6 active torsions:
REMARK  status: ('A' for Active; 'I' for Inactive)
REMARK    1  A    between atoms: C2_2  and  C3_3 
REMARK    2  A    between atoms: C3_3  and  C4_4 
REMARK    3  A    between atoms: C3_3  and  C9_9 
REMARK    4  A    between atoms: C4_4  and  C5_5 
REMARK    5  A    between atoms: C13_15  and  N2_16 
REMARK    6  A    between atoms: C18_25  and  N4_26 
ROOT
HETATM    1  C9  UNL     1      -7.256   4.575  24.455  1.00  0.00     0.002 A 
HETATM    2  C10 UNL     1      -8.481   4.202  25.078  1.00  0.00     0.015 A 
HETATM    3  C11 UNL     1      -9.093   5.004  26.150  1.00  0.00     0.069 C 
HETATM    4  N1  UNL     1      -9.187   3.167  24.611  1.00  0.00    -0.356 N 
ATOM      5  H1  UNL     1     -10.061   2.914  25.073  1.00  0.00     0.166 HD
HETATM    6  C12 UNL     1      -8.791   2.471  23.579  1.00  0.00     0.090 A 
HETATM    7  C13 UNL     1      -9.586   1.419  23.197  1.00  0.00     0.127 A 
HETATM    8  N3  UNL     1      -9.232   0.653  22.160  1.00  0.00    -0.350 N 
ATOM      9  H3  UNL     1      -9.821  -0.128  21.872  1.00  0.00     0.166 HD
HETATM   10  C14 UNL     1      -8.101   0.918  21.505  1.00  0.00     0.097 A 
HETATM   11  C15 UNL     1      -7.226   1.988  21.842  1.00  0.00    -0.032 A 
HETATM   12  C16 UNL     1      -5.974   2.142  21.130  1.00  0.00     0.050 C 
HETATM   13  C17 UNL     1      -7.591   2.784  22.907  1.00  0.00     0.035 A 
HETATM   14  C18 UNL     1      -6.808   3.845  23.335  1.00  0.00     0.124 A 
ENDROOT
BRANCH   1  15
HETATM   15  C3  UNL     1      -6.406   5.559  25.133  1.00  0.00     0.023 C 
BRANCH  15  16
HETATM   16  C2  UNL     1      -6.416   5.492  26.656  1.00  0.00     0.005 C 
HETATM   17  C1  UNL     1      -5.034   4.993  27.151  1.00  0.00     0.006 C 
ENDBRANCH  15  16
BRANCH  15  18
HETATM   18  C4  UNL     1      -6.556   6.991  24.729  1.00  0.00     0.017 C 
BRANCH  18  19
HETATM   19  C5  UNL     1      -5.623   7.898  24.112  1.00  0.00    -0.051 C 
HETATM   20  C6  UNL     1      -5.746   8.354  22.715  1.00  0.00     0.014 C 
HETATM   21  C7  UNL     1      -4.253   7.117  24.131  1.00  0.00     0.014 C 
HETATM   22  C8  UNL     1      -5.270   9.132  24.955  1.00  0.00     0.014 C 
ENDBRANCH  18  19
ENDBRANCH  15  18
ENDBRANCH   1  15
BRANCH  14  23
HETATM   23  N4  UNL     1      -5.706   4.250  22.615  1.00  0.00    -0.114 N 
HETATM   24  O1  UNL     1      -4.500   4.048  22.631  1.00  0.00    -0.532 OA
HETATM   25  O2  UNL     1      -6.032   5.182  21.566  1.00  0.00    -0.532 OA
ENDBRANCH  14  23
BRANCH   7  26
HETATM   26  N2  UNL     1     -10.693   1.142  23.833  1.00  0.00    -0.384 N 
ATOM     27  H22 UNL     1     -10.786   1.435  24.806  1.00  0.00     0.157 HD
ATOM     28  H21 UNL     1     -11.456   0.646  23.373  1.00  0.00     0.157 HD
ENDBRANCH   7  26
TORSDOF 6
ENDMDL
MODEL 2
REMARK VINA RESULT: -7.610384995      2.468      6.472
REMARK  6 active torsions:
REMARK  status: ('A' for Active; 'I' for Inactive)
REMARK    1  A    between atoms: C2_2  and  C3_3 
REMARK    2  A    between atoms: C3_3  and  C4_4 
REMARK    3  A    between atoms: C3_3  and  C9_9 
REMARK    4  A    between atoms: C4_4  and  C5_5 
REMARK    5  A    between atoms: C13_15  and  N2_16 
REMARK    6  A    between atoms: C18_25  and  N4_26 
ROOT
HETATM    1  C9  UNL     1      -6.414   4.137  23.733  1.00  0.00     0.002 A 
HETATM    2  C10 UNL     1      -5.704   5.033  22.885  1.00  0.00     0.015 A 
HETATM    3  C11 UNL     1      -5.593   4.819  21.432  1.00  0.00     0.069 C 
HETATM    4  N1  UNL     1      -5.221   6.181  23.371  1.00  0.00    -0.356 N 
ATOM      5  H1  UNL     1      -4.712   6.808  22.748  1.00  0.00     0.166 HD
HETATM    6  C12 UNL     1      -5.382   6.523  24.621  1.00  0.00     0.090 A 
HETATM    7  C13 UNL     1      -4.829   7.716  25.016  1.00  0.00     0.127 A 
HETATM    8  N3  UNL     1      -4.941   8.119  26.286  1.00  0.00    -0.350 N 
ATOM      9  H3  UNL     1      -4.533   9.006  26.581  1.00  0.00     0.166 HD
HETATM   10  C14 UNL     1      -5.590   7.352  27.163  1.00  0.00     0.097 A 
HETATM   11  C15 UNL     1      -6.188   6.105  26.830  1.00  0.00    -0.032 A 
HETATM   12  C16 UNL     1      -6.792   5.300  27.870  1.00  0.00     0.050 C 
HETATM   13  C17 UNL     1      -6.079   5.688  25.520  1.00  0.00     0.035 A 
HETATM   14  C18 UNL     1      -6.610   4.484  25.085  1.00  0.00     0.124 A 
ENDROOT
BRANCH   1  15
HETATM   15  C3  UNL     1      -6.723   2.797  23.221  1.00  0.00     0.023 C 
BRANCH  15  16
HETATM   16  C2  UNL     1      -5.593   2.112  22.461  1.00  0.00     0.005 C 
HETATM   17  C1  UNL     1      -6.155   1.520  21.143  1.00  0.00     0.006 C 
ENDBRANCH  15  16
BRANCH  15  18
HETATM   18  C4  UNL     1      -7.982   2.637  22.429  1.00  0.00     0.017 C 
BRANCH  18  19
HETATM   19  C5  UNL     1      -9.170   1.869  22.696  1.00  0.00    -0.051 C 
HETATM   20  C6  UNL     1     -10.441   2.477  23.133  1.00  0.00     0.014 C 
HETATM   21  C7  UNL     1      -8.767   0.937  23.902  1.00  0.00     0.014 C 
HETATM   22  C8  UNL     1      -9.520   0.828  21.623  1.00  0.00     0.014 C 
ENDBRANCH  18  19
ENDBRANCH  15  18
ENDBRANCH   1  15
BRANCH  14  23
HETATM   23  N4  UNL     1      -7.406   3.719  25.909  1.00  0.00    -0.114 N 
HETATM   24  O1  UNL     1      -7.256   2.799  26.701  1.00  0.00    -0.532 OA
HETATM   25  O2  UNL     1      -8.802   4.062  25.816  1.00  0.00    -0.532 OA
ENDBRANCH  14  23
BRANCH   7  26
HETATM   26  N2  UNL     1      -4.184   8.474  24.170  1.00  0.00    -0.384 N 
ATOM     27  H22 UNL     1      -4.558   8.587  23.228  1.00  0.00     0.157 HD
ATOM     28  H21 UNL     1      -3.323   8.950  24.439  1.00  0.00     0.157 HD
ENDBRANCH   7  26
TORSDOF 6
ENDMDL
MODEL 3
REMARK VINA RESULT: -7.534075147      0.762      2.292
REMARK  6 active torsions:
REMARK  status: ('A' for Active; 'I' for Inactive)
REMARK    1  A    between atoms: C2_2  and  C3_3 
REMARK    2  A    between atoms: C3_3  and  C4_4 
REMARK    3  A    between atoms: C3_3  and  C9_9 
REMARK    4  A    between atoms: C4_4  and  C5_5 
REMARK    5  A    between atoms: C13_15  and  N2_16 
REMARK    6  A    between atoms: C18_25  and  N4_26 
ROOT
HETATM    1  C9  UNL     1      -7.455   4.855  23.939  1.00  0.00     0.002 A 
HETATM    2  C10 UNL     1      -8.655   4.453  24.592  1.00  0.00     0.015 A 
HETATM    3  C11 UNL     1      -9.374   5.335  25.526  1.00  0.00     0.069 C 
HETATM    4  N1  UNL     1      -9.242   3.295  24.271  1.00  0.00    -0.356 N 
ATOM      5  H1  UNL     1     -10.099   3.024  24.752  1.00  0.00     0.166 HD
HETATM    6  C12 UNL     1      -8.749   2.502  23.357  1.00  0.00     0.090 A 
HETATM    7  C13 UNL     1      -9.426   1.331  23.122  1.00  0.00     0.127 A 
HETATM    8  N3  UNL     1      -8.968   0.464  22.212  1.00  0.00    -0.350 N 
ATOM      9  H3  UNL     1      -9.469  -0.406  22.033  1.00  0.00     0.166 HD
HETATM   10  C14 UNL     1      -7.850   0.746  21.542  1.00  0.00     0.097 A 
HETATM   11  C15 UNL     1      -7.095   1.936  21.731  1.00  0.00    -0.032 A 
HETATM   12  C16 UNL     1      -5.845   2.113  21.023  1.00  0.00     0.050 C 
HETATM   13  C17 UNL     1      -7.567   2.835  22.664  1.00  0.00     0.035 A 
HETATM   14  C18 UNL     1      -6.906   4.022  22.944  1.00  0.00     0.124 A 
ENDROOT
BRANCH   1  15
HETATM   15  C3  UNL     1      -6.726   6.007  24.478  1.00  0.00     0.023 C 
BRANCH  15  16
HETATM   16  C2  UNL     1      -6.340   7.071  23.457  1.00  0.00     0.005 C 
HETATM   17  C1  UNL     1      -4.914   7.589  23.778  1.00  0.00     0.006 C 
ENDBRANCH  15  16
BRANCH  15  18
HETATM   18  C4  UNL     1      -5.530   5.725  25.332  1.00  0.00     0.017 C 
BRANCH  18  19
HETATM   19  C5  UNL     1      -5.433   5.312  26.708  1.00  0.00    -0.051 C 
HETATM   20  C6  UNL     1      -5.885   3.992  27.186  1.00  0.00     0.014 C 
HETATM   21  C7  UNL     1      -6.358   6.327  27.484  1.00  0.00     0.014 C 
HETATM   22  C8  UNL     1      -4.075   5.586  27.369  1.00  0.00     0.014 C 
ENDBRANCH  18  19
ENDBRANCH  15  18
ENDBRANCH   1  15
BRANCH  14  23
HETATM   23  N4  UNL     1      -5.828   4.429  22.189  1.00  0.00    -0.114 N 
HETATM   24  O1  UNL     1      -4.610   4.341  22.243  1.00  0.00    -0.532 OA
HETATM   25  O2  UNL     1      -6.213   5.183  21.024  1.00  0.00    -0.532 OA
ENDBRANCH  14  23
BRANCH   7  26
HETATM   26  N2  UNL     1     -10.518   1.037  23.775  1.00  0.00    -0.384 N 
ATOM     27  H22 UNL     1     -10.547   1.202  24.782  1.00  0.00     0.157 HD
ATOM     28  H21 UNL     1     -11.332   0.654  23.296  1.00  0.00     0.157 HD
ENDBRANCH   7  26
TORSDOF 6
ENDMDL
MODEL 4
REMARK VINA RESULT: -7.363672967      2.593      5.963
REMARK  6 active torsions:
REMARK  status: ('A' for Active; 'I' for Inactive)
REMARK    1  A    between atoms: C2_2  and  C3_3 
REMARK    2  A    between atoms: C3_3  and  C4_4 
REMARK    3  A    between atoms: C3_3  and  C9_9 
REMARK    4  A    between atoms: C4_4  and  C5_5 
REMARK    5  A    between atoms: C13_15  and  N2_16 
REMARK    6  A    between atoms: C18_25  and  N4_26 
ROOT
HETATM    1  C9  UNL     1      -7.691   5.123  23.801  1.00  0.00     0.002 A 
HETATM    2  C10 UNL     1      -7.409   6.372  23.179  1.00  0.00     0.015 A 
HETATM    3  C11 UNL     1      -8.081   6.802  21.941  1.00  0.00     0.069 C 
HETATM    4  N1  UNL     1      -6.612   7.261  23.781  1.00  0.00    -0.356 N 
ATOM      5  H1  UNL     1      -6.420   8.149  23.316  1.00  0.00     0.166 HD
HETATM    6  C12 UNL     1      -6.071   7.024  24.945  1.00  0.00     0.090 A 
HETATM    7  C13 UNL     1      -5.255   8.001  25.461  1.00  0.00     0.127 A 
HETATM    8  N3  UNL     1      -4.654   7.817  26.641  1.00  0.00    -0.350 N 
ATOM      9  H3  UNL     1      -4.049   8.542  27.029  1.00  0.00     0.166 HD
HETATM   10  C14 UNL     1      -4.852   6.680  27.309  1.00  0.00     0.097 A 
HETATM   11  C15 UNL     1      -5.681   5.624  26.840  1.00  0.00    -0.032 A 
HETATM   12  C16 UNL     1      -5.763   4.389  27.591  1.00  0.00     0.050 C 
HETATM   13  C17 UNL     1      -6.307   5.811  25.625  1.00  0.00     0.035 A 
HETATM   14  C18 UNL     1      -7.126   4.844  25.062  1.00  0.00     0.124 A 
ENDROOT
BRANCH   1  15
HETATM   15  C3  UNL     1      -8.375   4.094  23.012  1.00  0.00     0.023 C 
BRANCH  15  16
HETATM   16  C2  UNL     1      -9.740   3.666  23.540  1.00  0.00     0.005 C 
HETATM   17  C1  UNL     1      -9.944   2.156  23.252  1.00  0.00     0.006 C 
ENDBRANCH  15  16
BRANCH  15  18
HETATM   18  C4  UNL     1      -7.600   2.861  22.670  1.00  0.00     0.017 C 
BRANCH  18  19
HETATM   19  C5  UNL     1      -6.296   2.703  22.080  1.00  0.00    -0.051 C 
HETATM   20  C6  UNL     1      -5.659   3.738  21.245  1.00  0.00     0.014 C 
HETATM   21  C7  UNL     1      -6.460   1.480  21.098  1.00  0.00     0.014 C 
HETATM   22  C8  UNL     1      -5.217   2.172  23.034  1.00  0.00     0.014 C 
ENDBRANCH  18  19
ENDBRANCH  15  18
ENDBRANCH   1  15
BRANCH  14  23
HETATM   23  N4  UNL     1      -7.476   3.713  25.766  1.00  0.00    -0.114 N 
HETATM   24  O1  UNL     1      -7.065   2.568  25.885  1.00  0.00    -0.532 OA
HETATM   25  O2  UNL     1      -8.656   3.896  26.571  1.00  0.00    -0.532 OA
ENDBRANCH  14  23
BRANCH   7  26
HETATM   26  N2  UNL     1      -5.045   9.117  24.816  1.00  0.00    -0.384 N 
ATOM     27  H22 UNL     1      -5.479   9.244  23.901  1.00  0.00     0.157 HD
ATOM     28  H21 UNL     1      -4.462   9.854  25.212  1.00  0.00     0.157 HD
ENDBRANCH   7  26
TORSDOF 6
ENDMDL
MODEL 5
REMARK VINA RESULT: -7.138910333      1.087      1.687
REMARK  6 active torsions:
REMARK  status: ('A' for Active; 'I' for Inactive)
REMARK    1  A    between atoms: C2_2  and  C3_3 
REMARK    2  A    between atoms: C3_3  and  C4_4 
REMARK    3  A    between atoms: C3_3  and  C9_9 
REMARK    4  A    between atoms: C4_4  and  C5_5 
REMARK    5  A    between atoms: C13_15  and  N2_16 
REMARK    6  A    between atoms: C18_25  and  N4_26 
ROOT
HETATM    1  C9  UNL     1      -7.116   4.189  25.183  1.00  0.00     0.002 A 
HETATM    2  C10 UNL     1      -8.307   3.604  25.700  1.00  0.00     0.015 A 
HETATM    3  C11 UNL     1      -8.930   4.068  26.951  1.00  0.00     0.069 C 
HETATM    4  N1  UNL     1      -8.975   2.692  24.987  1.00  0.00    -0.356 N 
ATOM      5  H1  UNL     1      -9.824   2.282  25.377  1.00  0.00     0.166 HD
HETATM    6  C12 UNL     1      -8.571   2.309  23.805  1.00  0.00     0.090 A 
HETATM    7  C13 UNL     1      -9.325   1.353  23.171  1.00  0.00     0.127 A 
HETATM    8  N3  UNL     1      -8.959   0.903  21.966  1.00  0.00    -0.350 N 
ATOM      9  H3  UNL     1      -9.519   0.195  21.490  1.00  0.00     0.166 HD
HETATM   10  C14 UNL     1      -7.859   1.388  21.390  1.00  0.00     0.097 A 
HETATM   11  C15 UNL     1      -7.027   2.377  21.985  1.00  0.00    -0.032 A 
HETATM   12  C16 UNL     1      -5.802   2.775  21.324  1.00  0.00     0.050 C 
HETATM   13  C17 UNL     1      -7.404   2.848  23.225  1.00  0.00     0.035 A 
HETATM   14  C18 UNL     1      -6.662   3.801  23.906  1.00  0.00     0.124 A 
ENDROOT
BRANCH   1  15
HETATM   15  C3  UNL     1      -6.297   5.006  26.085  1.00  0.00     0.023 C 
BRANCH  15  16
HETATM   16  C2  UNL     1      -5.542   4.233  27.160  1.00  0.00     0.005 C 
HETATM   17  C1  UNL     1      -4.319   5.067  27.619  1.00  0.00     0.006 C 
ENDBRANCH  15  16
BRANCH  15  18
HETATM   18  C4  UNL     1      -6.954   6.184  26.732  1.00  0.00     0.017 C 
BRANCH  18  19
HETATM   19  C5  UNL     1      -7.053   7.556  26.307  1.00  0.00    -0.051 C 
HETATM   20  C6  UNL     1      -7.111   8.689  27.251  1.00  0.00     0.014 C 
HETATM   21  C7  UNL     1      -8.435   7.629  25.551  1.00  0.00     0.014 C 
HETATM   22  C8  UNL     1      -6.083   7.958  25.188  1.00  0.00     0.014 C 
ENDBRANCH  18  19
ENDBRANCH  15  18
ENDBRANCH   1  15
BRANCH  14  23
HETATM   23  N4  UNL     1      -5.597   4.435  23.306  1.00  0.00    -0.114 N 
HETATM   24  O1  UNL     1      -4.384   4.296  23.252  1.00  0.00    -0.532 OA
HETATM   25  O2  UNL     1      -5.991   5.593  22.544  1.00  0.00    -0.532 OA
ENDBRANCH  14  23
BRANCH   7  26
HETATM   26  N2  UNL     1     -10.401   0.864  23.724  1.00  0.00    -0.384 N 
ATOM     27  H22 UNL     1     -10.974   1.474  24.308  1.00  0.00     0.157 HD
ATOM     28  H21 UNL     1     -10.674  -0.108  23.580  1.00  0.00     0.157 HD
ENDBRANCH   7  26
TORSDOF 6
ENDMDL
