MODEL 1
REMARK VINA RESULT: -4.824281526      0.000      0.000
REMARK  4 active torsions:
REMARK  status: ('A' for Active; 'I' for Inactive)
REMARK    1  A    between atoms: C1_2  and  C2_4 
REMARK    2  A    between atoms: C2_4  and  C3_5 
REMARK    3  A    between atoms: C3_5  and  O3_6 
REMARK    4  A    between atoms: N1_8  and  O4_10 
ROOT
HETATM    1  C2  UNL     1      25.903 -12.533 -11.720  1.00  0.00     0.114 C 
HETATM    2  C4  UNL     1      26.841 -11.445 -12.263  1.00  0.00     0.029 C 
HETATM    3  C5  UNL     1      27.653 -12.128 -13.344  1.00  0.00     0.002 C 
HETATM    4  C6  UNL     1      28.725 -12.940 -12.613  1.00  0.00     0.000 C 
HETATM    5  C7  UNL     1      28.015 -13.903 -11.691  1.00  0.00     0.002 C 
HETATM    6  C8  UNL     1      26.520 -13.903 -11.906  1.00  0.00     0.029 C 
ENDROOT
BRANCH   1   7
HETATM    7  C1  UNL     1      24.650 -12.389 -12.498  1.00  0.00     0.190 C 
HETATM    8  O1  UNL     1      24.358 -13.260 -13.345  1.00  0.00    -0.647 OA
HETATM    9  O2  UNL     1      23.787 -11.303 -12.307  1.00  0.00    -0.647 OA
ENDBRANCH   1   7
BRANCH   1  10
HETATM   10  C3  UNL     1      25.591 -12.286 -10.295  1.00  0.00     0.155 C 
HETATM   11  N1  UNL     1      24.547 -12.789  -9.759  1.00  0.00    -0.250 N 
ATOM     12  H1  UNL     1      23.915 -13.370 -10.309  1.00  0.00     0.196 HD
BRANCH  10  13
HETATM   13  O3  UNL     1      26.427 -11.505  -9.525  1.00  0.00    -0.347 OA
ATOM     14  H3  UNL     1      26.148 -11.206  -8.668  1.00  0.00     0.219 HD
ENDBRANCH  10  13
BRANCH  11  15
HETATM   15  O4  UNL     1      24.284 -12.543  -8.440  1.00  0.00    -0.288 OA
ATOM     16  H4  UNL     1      24.201 -13.272  -7.837  1.00  0.00     0.244 HD
ENDBRANCH  11  15
ENDBRANCH   1  10
TORSDOF 4
ENDMDL
MODEL 2
REMARK VINA RESULT: -4.777640473      2.415      3.695
REMARK  4 active torsions:
REMARK  status: ('A' for Active; 'I' for Inactive)
REMARK    1  A    between atoms: C1_2  and  C2_4 
REMARK    2  A    between atoms: C2_4  and  C3_5 
REMARK    3  A    between atoms: C3_5  and  O3_6 
REMARK    4  A    between atoms: N1_8  and  O4_10 
ROOT
HETATM    1  C2  UNL     1      26.792 -10.682 -10.530  1.00  0.00     0.114 C 
HETATM    2  C4  UNL     1      26.593 -10.128 -11.948  1.00  0.00     0.029 C 
HETATM    3  C5  UNL     1      27.634  -9.038 -12.095  1.00  0.00     0.002 C 
HETATM    4  C6  UNL     1      27.079  -7.823 -11.347  1.00  0.00     0.000 C 
HETATM    5  C7  UNL     1      26.840  -8.242  -9.916  1.00  0.00     0.002 C 
HETATM    6  C8  UNL     1      27.381  -9.622  -9.625  1.00  0.00     0.029 C 
ENDROOT
BRANCH   1   7
HETATM    7  C1  UNL     1      27.711 -11.835 -10.690  1.00  0.00     0.190 C 
HETATM    8  O1  UNL     1      27.275 -12.893 -11.190  1.00  0.00    -0.647 OA
HETATM    9  O2  UNL     1      29.052 -11.765 -10.294  1.00  0.00    -0.647 OA
ENDBRANCH   1   7
BRANCH   1  10
HETATM   10  C3  UNL     1      25.512 -11.187  -9.986  1.00  0.00     0.155 C 
HETATM   11  N1  UNL     1      25.498 -12.042  -9.037  1.00  0.00    -0.250 N 
ATOM     12  H1  UNL     1      26.373 -12.387  -8.643  1.00  0.00     0.196 HD
BRANCH  10  13
HETATM   13  O3  UNL     1      24.313 -10.738 -10.498  1.00  0.00    -0.347 OA
ATOM     14  H3  UNL     1      24.149 -10.770 -11.433  1.00  0.00     0.219 HD
ENDBRANCH  10  13
BRANCH  11  15
HETATM   15  O4  UNL     1      24.300 -12.490  -8.555  1.00  0.00    -0.288 OA
ATOM     16  H4  UNL     1      23.517 -11.970  -8.696  1.00  0.00     0.244 HD
ENDBRANCH  11  15
ENDBRANCH   1  10
TORSDOF 4
ENDMDL
MODEL 3
REMARK VINA RESULT: -4.755463568      1.993      3.473
REMARK  4 active torsions:
REMARK  status: ('A' for Active; 'I' for Inactive)
REMARK    1  A    between atoms: C1_2  and  C2_4 
REMARK    2  A    between atoms: C2_4  and  C3_5 
REMARK    3  A    between atoms: C3_5  and  O3_6 
REMARK    4  A    between atoms: N1_8  and  O4_10 
ROOT
HETATM    1  C2  UNL     1      26.041 -11.242 -10.941  1.00  0.00     0.114 C 
HETATM    2  C4  UNL     1      25.805 -11.362 -12.454  1.00  0.00     0.029 C 
HETATM    3  C5  UNL     1      26.200 -10.015 -13.022  1.00  0.00     0.002 C 
HETATM    4  C6  UNL     1      25.026  -9.076 -12.730  1.00  0.00     0.000 C 
HETATM    5  C7  UNL     1      24.817  -9.062 -11.235  1.00  0.00     0.002 C 
HETATM    6  C8  UNL     1      25.908  -9.801 -10.497  1.00  0.00     0.029 C 
ENDROOT
BRANCH   1   7
HETATM    7  C1  UNL     1      27.414 -11.756 -10.721  1.00  0.00     0.190 C 
HETATM    8  O1  UNL     1      27.638 -12.974 -10.880  1.00  0.00    -0.647 OA
HETATM    9  O2  UNL     1      28.463 -10.910 -10.339  1.00  0.00    -0.647 OA
ENDBRANCH   1   7
BRANCH   1  10
HETATM   10  C3  UNL     1      25.101 -12.110 -10.198  1.00  0.00     0.155 C 
HETATM   11  N1  UNL     1      25.316 -12.411  -8.976  1.00  0.00    -0.250 N 
ATOM     12  H1  UNL     1      26.142 -12.054  -8.496  1.00  0.00     0.196 HD
BRANCH  10  13
HETATM   13  O3  UNL     1      23.974 -12.607 -10.820  1.00  0.00    -0.347 OA
ATOM     14  H3  UNL     1      24.054 -13.145 -11.598  1.00  0.00     0.219 HD
ENDBRANCH  10  13
BRANCH  11  15
HETATM   15  O4  UNL     1      24.429 -13.215  -8.316  1.00  0.00    -0.288 OA
ATOM     16  H4  UNL     1      23.537 -12.915  -8.183  1.00  0.00     0.244 HD
ENDBRANCH  11  15
ENDBRANCH   1  10
TORSDOF 4
ENDMDL
MODEL 4
REMARK VINA RESULT: -4.744058275      1.582      2.093
REMARK  4 active torsions:
REMARK  status: ('A' for Active; 'I' for Inactive)
REMARK    1  A    between atoms: C1_2  and  C2_4 
REMARK    2  A    between atoms: C2_4  and  C3_5 
REMARK    3  A    between atoms: C3_5  and  O3_6 
REMARK    4  A    between atoms: N1_8  and  O4_10 
ROOT
HETATM    1  C2  UNL     1      26.118 -12.061 -11.109  1.00  0.00     0.114 C 
HETATM    2  C4  UNL     1      27.450 -11.982 -10.347  1.00  0.00     0.029 C 
HETATM    3  C5  UNL     1      28.507 -12.364 -11.362  1.00  0.00     0.002 C 
HETATM    4  C6  UNL     1      28.452 -13.891 -11.470  1.00  0.00     0.000 C 
HETATM    5  C7  UNL     1      27.050 -14.266 -11.888  1.00  0.00     0.002 C 
HETATM    6  C8  UNL     1      26.217 -13.058 -12.244  1.00  0.00     0.029 C 
ENDROOT
BRANCH   1   7
HETATM    7  C1  UNL     1      25.875 -10.687 -11.609  1.00  0.00     0.190 C 
HETATM    8  O1  UNL     1      25.173  -9.910 -10.930  1.00  0.00    -0.647 OA
HETATM    9  O2  UNL     1      26.413 -10.241 -12.823  1.00  0.00    -0.647 OA
ENDBRANCH   1   7
BRANCH   1  10
HETATM   10  C3  UNL     1      25.015 -12.418 -10.190  1.00  0.00     0.155 C 
HETATM   11  N1  UNL     1      25.190 -12.409  -8.924  1.00  0.00    -0.250 N 
ATOM     12  H1  UNL     1      26.097 -12.154  -8.533  1.00  0.00     0.196 HD
BRANCH  10  13
HETATM   13  O3  UNL     1      23.778 -12.766 -10.690  1.00  0.00    -0.347 OA
ATOM     14  H3  UNL     1      22.989 -12.557 -10.204  1.00  0.00     0.219 HD
ENDBRANCH  10  13
BRANCH  11  15
HETATM   15  O4  UNL     1      24.152 -12.743  -8.101  1.00  0.00    -0.288 OA
ATOM     16  H4  UNL     1      23.952 -12.191  -7.354  1.00  0.00     0.244 HD
ENDBRANCH  11  15
ENDBRANCH   1  10
TORSDOF 4
ENDMDL
MODEL 5
REMARK VINA RESULT: -4.644357706      2.770      3.839
REMARK  4 active torsions:
REMARK  status: ('A' for Active; 'I' for Inactive)
REMARK    1  A    between atoms: C1_2  and  C2_4 
REMARK    2  A    between atoms: C2_4  and  C3_5 
REMARK    3  A    between atoms: C3_5  and  O3_6 
REMARK    4  A    between atoms: N1_8  and  O4_10 
ROOT
HETATM    1  C2  UNL     1      27.582 -12.601 -11.245  1.00  0.00     0.114 C 
HETATM    2  C4  UNL     1      26.556 -12.441 -10.113  1.00  0.00     0.029 C 
HETATM    3  C5  UNL     1      25.780 -11.187 -10.459  1.00  0.00     0.002 C 
HETATM    4  C6  UNL     1      26.677 -10.014 -10.055  1.00  0.00     0.000 C 
HETATM    5  C7  UNL     1      27.974 -10.151 -10.817  1.00  0.00     0.002 C 
HETATM    6  C8  UNL     1      27.918 -11.254 -11.848  1.00  0.00     0.029 C 
ENDROOT
BRANCH   1   7
HETATM    7  C1  UNL     1      26.933 -13.494 -12.233  1.00  0.00     0.190 C 
HETATM    8  O1  UNL     1      26.600 -13.030 -13.344  1.00  0.00    -0.647 OA
HETATM    9  O2  UNL     1      26.684 -14.844 -11.952  1.00  0.00    -0.647 OA
ENDBRANCH   1   7
BRANCH   1  10
HETATM   10  C3  UNL     1      28.802 -13.274 -10.748  1.00  0.00     0.155 C 
HETATM   11  N1  UNL     1      29.321 -12.944  -9.628  1.00  0.00    -0.250 N 
ATOM     12  H1  UNL     1      28.896 -12.210  -9.062  1.00  0.00     0.196 HD
BRANCH  10  13
HETATM   13  O3  UNL     1      29.399 -14.271 -11.492  1.00  0.00    -0.347 OA
ATOM     14  H3  UNL     1      28.957 -14.631 -12.252  1.00  0.00     0.219 HD
ENDBRANCH  10  13
BRANCH  11  15
HETATM   15  O4  UNL     1      30.449 -13.583  -9.196  1.00  0.00    -0.288 OA
ATOM     16  H4  UNL     1      30.790 -13.393  -8.331  1.00  0.00     0.244 HD
ENDBRANCH  11  15
ENDBRANCH   1  10
TORSDOF 4
ENDMDL
