MODEL 1
REMARK VINA RESULT: -5.052750407      0.000      0.000
REMARK  3 active torsions:
REMARK  status: ('A' for Active; 'I' for Inactive)
REMARK    1  A    between atoms: C2_2  and  C4_4 
REMARK    2  A    between atoms: C8_8  and  N1_9 
REMARK    3  A    between atoms: C8_8  and  C9_13 
ROOT
HETATM    1  C4  UNL     1      26.678 -10.364 -10.786  1.00  0.00     0.016 C 
HETATM    2  C5  UNL     1      27.854 -11.290 -10.692  1.00  0.00     0.009 C 
HETATM    3  C6  UNL     1      27.456 -12.745 -10.729  1.00  0.00     0.004 C 
HETATM    4  C7  UNL     1      26.156 -12.976 -11.456  1.00  0.00     0.046 C 
HETATM    5  C8  UNL     1      24.990 -12.210 -10.889  1.00  0.00     0.178 C 
HETATM    6  C10 UNL     1      25.416 -10.914 -10.243  1.00  0.00     0.055 C 
ENDROOT
BRANCH   5   7
HETATM    7  N1  UNL     1      24.288 -12.981  -9.860  1.00  0.00    -0.064 N 
ATOM      8  H13 UNL     1      24.475 -13.979  -9.950  1.00  0.00     0.275 HD
ATOM      9  H12 UNL     1      24.693 -12.826  -8.937  1.00  0.00     0.275 HD
ATOM     10  H11 UNL     1      23.286 -12.788  -9.865  1.00  0.00     0.275 HD
ENDBRANCH   5   7
BRANCH   5  11
HETATM   11  C9  UNL     1      24.054 -11.983 -12.004  1.00  0.00     0.123 C 
HETATM   12  N2  UNL     1      22.959 -12.635 -12.032  1.00  0.00    -0.389 N 
ATOM     13  H22 UNL     1      22.737 -13.303 -11.293  1.00  0.00     0.157 HD
ATOM     14  H21 UNL     1      22.310 -12.478 -12.803  1.00  0.00     0.157 HD
HETATM   15  N3  UNL     1      24.357 -11.069 -13.013  1.00  0.00    -0.085 NA
ENDBRANCH   5  11
BRANCH   1  16
HETATM   16  C2  UNL     1      27.010  -9.098 -10.092  1.00  0.00    -0.089 C 
HETATM   17  C1  UNL     1      27.705  -9.101  -8.967  1.00  0.00     0.014 C 
HETATM   18  C3  UNL     1      26.569  -7.782 -10.651  1.00  0.00     0.043 C 
ENDBRANCH   1  16
TORSDOF 3
ENDMDL
MODEL 2
REMARK VINA RESULT: -4.892356037      1.072      1.108
REMARK  3 active torsions:
REMARK  status: ('A' for Active; 'I' for Inactive)
REMARK    1  A    between atoms: C2_2  and  C4_4 
REMARK    2  A    between atoms: C8_8  and  N1_9 
REMARK    3  A    between atoms: C8_8  and  C9_13 
ROOT
HETATM    1  C4  UNL     1      27.573 -10.161 -10.508  1.00  0.00     0.016 C 
HETATM    2  C5  UNL     1      28.689 -11.149 -10.678  1.00  0.00     0.009 C 
HETATM    3  C6  UNL     1      28.212 -12.580 -10.649  1.00  0.00     0.004 C 
HETATM    4  C7  UNL     1      26.776 -12.726 -11.085  1.00  0.00     0.046 C 
HETATM    5  C8  UNL     1      25.802 -11.915 -10.273  1.00  0.00     0.178 C 
HETATM    6  C10 UNL     1      26.427 -10.658  -9.716  1.00  0.00     0.055 C 
ENDROOT
BRANCH   5   7
HETATM    7  N1  UNL     1      25.292 -12.672  -9.128  1.00  0.00    -0.064 N 
ATOM      8  H13 UNL     1      24.281 -12.798  -9.184  1.00  0.00     0.275 HD
ATOM      9  H12 UNL     1      25.575 -13.651  -9.173  1.00  0.00     0.275 HD
ATOM     10  H11 UNL     1      25.565 -12.245  -8.243  1.00  0.00     0.275 HD
ENDBRANCH   5   7
BRANCH   5  11
HETATM   11  C9  UNL     1      24.664 -11.612 -11.159  1.00  0.00     0.123 C 
HETATM   12  N2  UNL     1      23.829 -12.537 -11.427  1.00  0.00    -0.389 N 
ATOM     13  H22 UNL     1      23.948 -13.471 -11.034  1.00  0.00     0.157 HD
ATOM     14  H21 UNL     1      23.042 -12.327 -12.041  1.00  0.00     0.157 HD
HETATM   15  N3  UNL     1      24.501 -10.336 -11.697  1.00  0.00    -0.085 NA
ENDBRANCH   5  11
BRANCH   1  16
HETATM   16  C2  UNL     1      28.115  -8.931  -9.885  1.00  0.00    -0.089 C 
HETATM   17  C1  UNL     1      28.854  -8.992  -8.790  1.00  0.00     0.014 C 
HETATM   18  C3  UNL     1      27.842  -7.587 -10.483  1.00  0.00     0.043 C 
ENDBRANCH   1  16
TORSDOF 3
ENDMDL
MODEL 3
REMARK VINA RESULT: -4.789386331      1.088      1.458
REMARK  3 active torsions:
REMARK  status: ('A' for Active; 'I' for Inactive)
REMARK    1  A    between atoms: C2_2  and  C4_4 
REMARK    2  A    between atoms: C8_8  and  N1_9 
REMARK    3  A    between atoms: C8_8  and  C9_13 
ROOT
HETATM    1  C4  UNL     1      27.157  -9.882 -10.841  1.00  0.00     0.016 C 
HETATM    2  C5  UNL     1      28.537 -10.439 -10.658  1.00  0.00     0.009 C 
HETATM    3  C6  UNL     1      28.536 -11.921 -10.372  1.00  0.00     0.004 C 
HETATM    4  C7  UNL     1      27.325 -12.622 -10.930  1.00  0.00     0.046 C 
HETATM    5  C8  UNL     1      26.013 -12.072 -10.436  1.00  0.00     0.178 C 
HETATM    6  C10 UNL     1      26.099 -10.603 -10.098  1.00  0.00     0.055 C 
ENDROOT
BRANCH   5   7
HETATM    7  N1  UNL     1      25.566 -12.756  -9.220  1.00  0.00    -0.064 N 
ATOM      8  H13 UNL     1      25.069 -12.120  -8.596  1.00  0.00     0.275 HD
ATOM      9  H12 UNL     1      24.808 -13.409  -9.417  1.00  0.00     0.275 HD
ATOM     10  H11 UNL     1      26.340 -13.217  -8.742  1.00  0.00     0.275 HD
ENDBRANCH   5   7
BRANCH   5  11
HETATM   11  C9  UNL     1      25.022 -12.332 -11.494  1.00  0.00     0.123 C 
HETATM   12  N2  UNL     1      23.787 -12.395 -11.180  1.00  0.00    -0.389 N 
ATOM     13  H22 UNL     1      23.494 -12.268 -10.211  1.00  0.00     0.157 HD
ATOM     14  H21 UNL     1      23.101 -12.575 -11.912  1.00  0.00     0.157 HD
HETATM   15  N3  UNL     1      25.422 -12.506 -12.818  1.00  0.00    -0.085 NA
ENDBRANCH   5  11
BRANCH   1  16
HETATM   16  C2  UNL     1      27.161  -8.455 -10.443  1.00  0.00    -0.089 C 
HETATM   17  C1  UNL     1      26.155  -7.657 -10.758  1.00  0.00     0.014 C 
HETATM   18  C3  UNL     1      28.307  -7.881  -9.670  1.00  0.00     0.043 C 
ENDBRANCH   1  16
TORSDOF 3
ENDMDL
MODEL 4
REMARK VINA RESULT: -4.779892983      1.369      2.815
REMARK  3 active torsions:
REMARK  status: ('A' for Active; 'I' for Inactive)
REMARK    1  A    between atoms: C2_2  and  C4_4 
REMARK    2  A    between atoms: C8_8  and  N1_9 
REMARK    3  A    between atoms: C8_8  and  C9_13 
ROOT
HETATM    1  C4  UNL     1      26.653  -9.113 -10.085  1.00  0.00     0.016 C 
HETATM    2  C5  UNL     1      25.952  -7.952 -10.725  1.00  0.00     0.009 C 
HETATM    3  C6  UNL     1      25.053  -8.367 -11.864  1.00  0.00     0.004 C 
HETATM    4  C7  UNL     1      24.556  -9.784 -11.729  1.00  0.00     0.046 C 
HETATM    5  C8  UNL     1      25.651 -10.812 -11.628  1.00  0.00     0.178 C 
HETATM    6  C10 UNL     1      26.903 -10.256 -10.991  1.00  0.00     0.055 C 
ENDROOT
BRANCH   5   7
HETATM    7  N1  UNL     1      26.040 -11.316 -12.947  1.00  0.00    -0.064 N 
ATOM      8  H13 UNL     1      27.048 -11.248 -13.090  1.00  0.00     0.275 HD
ATOM      9  H12 UNL     1      25.942 -12.330 -13.002  1.00  0.00     0.275 HD
ATOM     10  H11 UNL     1      25.526 -10.850 -13.694  1.00  0.00     0.275 HD
ENDBRANCH   5   7
BRANCH   5  11
HETATM   11  C9  UNL     1      25.100 -11.939 -10.855  1.00  0.00     0.123 C 
HETATM   12  N2  UNL     1      23.956 -12.404 -11.174  1.00  0.00    -0.389 N 
ATOM     13  H22 UNL     1      23.433 -11.999 -11.951  1.00  0.00     0.157 HD
ATOM     14  H21 UNL     1      23.575 -13.184 -10.639  1.00  0.00     0.157 HD
HETATM   15  N3  UNL     1      25.816 -12.492  -9.794  1.00  0.00    -0.085 NA
ENDBRANCH   5  11
BRANCH   1  16
HETATM   16  C2  UNL     1      27.935  -8.641  -9.513  1.00  0.00    -0.089 C 
HETATM   17  C1  UNL     1      28.555  -9.330  -8.571  1.00  0.00     0.014 C 
HETATM   18  C3  UNL     1      28.563  -7.369  -9.992  1.00  0.00     0.043 C 
ENDBRANCH   1  16
TORSDOF 3
ENDMDL
MODEL 5
REMARK VINA RESULT: -4.716404080      3.331      4.467
REMARK  3 active torsions:
REMARK  status: ('A' for Active; 'I' for Inactive)
REMARK    1  A    between atoms: C2_2  and  C4_4 
REMARK    2  A    between atoms: C8_8  and  N1_9 
REMARK    3  A    between atoms: C8_8  and  C9_13 
ROOT
HETATM    1  C4  UNL     1      26.525 -11.906 -11.196  1.00  0.00     0.016 C 
HETATM    2  C5  UNL     1      26.363 -11.426 -12.607  1.00  0.00     0.009 C 
HETATM    3  C6  UNL     1      27.679 -11.294 -13.334  1.00  0.00     0.004 C 
HETATM    4  C7  UNL     1      28.741 -12.213 -12.789  1.00  0.00     0.046 C 
HETATM    5  C8  UNL     1      29.022 -12.026 -11.322  1.00  0.00     0.178 C 
HETATM    6  C10 UNL     1      27.811 -11.537 -10.564  1.00  0.00     0.055 C 
ENDROOT
BRANCH   5   7
HETATM    7  N1  UNL     1      30.082 -11.040 -11.097  1.00  0.00    -0.064 N 
ATOM      8  H13 UNL     1      30.129 -10.364 -11.859  1.00  0.00     0.275 HD
ATOM      9  H12 UNL     1      29.845 -10.405 -10.336  1.00  0.00     0.275 HD
ATOM     10  H11 UNL     1      30.985 -11.489 -10.941  1.00  0.00     0.275 HD
ENDBRANCH   5   7
BRANCH   5  11
HETATM   11  C9  UNL     1      29.496 -13.325 -10.814  1.00  0.00     0.123 C 
HETATM   12  N2  UNL     1      29.244 -14.379 -11.488  1.00  0.00    -0.389 N 
ATOM     13  H22 UNL     1      28.723 -14.320 -12.363  1.00  0.00     0.157 HD
ATOM     14  H21 UNL     1      29.573 -15.278 -11.137  1.00  0.00     0.157 HD
HETATM   15  N3  UNL     1      30.209 -13.406  -9.619  1.00  0.00    -0.085 NA
ENDBRANCH   5  11
BRANCH   1  16
HETATM   16  C2  UNL     1      25.401 -11.385 -10.382  1.00  0.00    -0.089 C 
HETATM   17  C1  UNL     1      24.818 -10.237 -10.683  1.00  0.00     0.014 C 
HETATM   18  C3  UNL     1      24.897 -12.150  -9.199  1.00  0.00     0.043 C 
ENDBRANCH   1  16
TORSDOF 3
ENDMDL
