MODEL 1
REMARK VINA RESULT: -6.672629749      0.000      0.000
REMARK  9 active torsions:
REMARK  status: ('A' for Active; 'I' for Inactive)
REMARK    1  A    between atoms: N1_2  and  C2_5 
REMARK    2  A    between atoms: C2_5  and  C3_6 
REMARK    3  A    between atoms: C6_9  and  O1_10 
REMARK    4  A    between atoms: C8_12  and  O2_13 
REMARK    5  A    between atoms: O2_13  and  C9_14 
REMARK    6  A    between atoms: C14_19  and  C15_20 
REMARK    7  A    between atoms: C15_20  and  O4_22 
REMARK    8  A    between atoms: C17_24  and  O5_25 
REMARK    9  A    between atoms: C18_27  and  O6_29 
ROOT
HETATM    1  C3  UNL     1      20.752  21.953  15.988  1.00  0.00     0.151 C 
HETATM    2  C4  UNL     1      20.670  23.463  15.999  1.00  0.00     0.054 C 
HETATM    3  C5  UNL     1      19.352  23.657  15.215  1.00  0.00     0.077 C 
HETATM    4  C6  UNL     1      18.716  24.963  15.583  1.00  0.00     0.193 C 
HETATM    5  C8  UNL     1      18.287  25.802  14.432  1.00  0.00     0.074 C 
HETATM    6  C13 UNL     1      19.010  25.796  13.336  1.00  0.00     0.025 C 
HETATM    7  C14 UNL     1      20.221  24.935  13.341  1.00  0.00     0.140 C 
HETATM    8  C17 UNL     1      19.763  23.535  13.778  1.00  0.00     0.152 C 
HETATM    9  C18 UNL     1      18.588  22.485  15.733  1.00  0.00     0.171 C 
HETATM   10  C19 UNL     1      17.522  21.953  14.806  1.00  0.00     0.080 C 
HETATM   11  O7  UNL     1      19.470  21.486  16.113  1.00  0.00    -0.348 OA
ENDROOT
BRANCH   4  12
HETATM   12  O1  UNL     1      19.657  25.685  16.360  1.00  0.00    -0.383 OA
HETATM   13  C7  UNL     1      19.160  26.112  17.564  1.00  0.00     0.202 C 
ENDBRANCH   4  12
BRANCH   8  14
HETATM   14  O5  UNL     1      18.795  23.161  12.895  1.00  0.00    -0.393 OA
ATOM     15  H5  UNL     1      19.058  23.073  11.987  1.00  0.00     0.210 HD
ENDBRANCH   8  14
BRANCH   9  16
HETATM   16  O6  UNL     1      17.921  22.885  16.892  1.00  0.00    -0.365 OA
ATOM     17  H6  UNL     1      17.057  23.191  16.642  1.00  0.00     0.213 HD
ENDBRANCH   9  16
BRANCH   1  18
HETATM   18  C2  UNL     1      21.666  21.440  17.086  1.00  0.00     0.263 C 
BRANCH  18  19
HETATM   19  N1  UNL     1      22.080  22.591  17.878  1.00  0.00    -0.077 N 
HETATM   20  C1  UNL     1      23.270  22.248  18.593  1.00  0.00     0.267 C 
ATOM     21  H12 UNL     1      21.339  22.930  18.492  1.00  0.00     0.276 HD
ATOM     22  H11 UNL     1      22.191  23.434  17.315  1.00  0.00     0.276 HD
ENDBRANCH  18  19
ENDBRANCH   1  18
BRANCH   5  23
HETATM   23  O2  UNL     1      17.164  26.583  14.471  1.00  0.00    -0.343 OA
BRANCH  23  24
HETATM   24  C9  UNL     1      16.971  27.835  15.023  1.00  0.00     0.056 C 
HETATM   25  C10 UNL     1      16.362  27.819  16.416  1.00  0.00     0.045 C 
HETATM   26  C11 UNL     1      18.155  28.742  15.049  1.00  0.00     0.045 C 
HETATM   27  C12 UNL     1      15.903  28.529  14.152  1.00  0.00     0.045 C 
ENDBRANCH  23  24
ENDBRANCH   5  23
BRANCH   7  28
HETATM   28  C15 UNL     1      20.826  24.856  12.009  1.00  0.00     0.268 C 
HETATM   29  O3  UNL     1      20.613  25.752  11.162  1.00  0.00    -0.264 OA
BRANCH  28  30
HETATM   30  O4  UNL     1      21.645  23.790  11.657  1.00  0.00    -0.326 OA
HETATM   31  C16 UNL     1      21.873  23.482  10.277  1.00  0.00     0.213 C 
ENDBRANCH  28  30
ENDBRANCH   7  28
TORSDOF 9
ENDMDL
MODEL 2
REMARK VINA RESULT: -6.647985822      2.561      5.612
REMARK  9 active torsions:
REMARK  status: ('A' for Active; 'I' for Inactive)
REMARK    1  A    between atoms: N1_2  and  C2_5 
REMARK    2  A    between atoms: C2_5  and  C3_6 
REMARK    3  A    between atoms: C6_9  and  O1_10 
REMARK    4  A    between atoms: C8_12  and  O2_13 
REMARK    5  A    between atoms: O2_13  and  C9_14 
REMARK    6  A    between atoms: C14_19  and  C15_20 
REMARK    7  A    between atoms: C15_20  and  O4_22 
REMARK    8  A    between atoms: C17_24  and  O5_25 
REMARK    9  A    between atoms: C18_27  and  O6_29 
ROOT
HETATM    1  C3  UNL     1      18.430  23.831  15.140  1.00  0.00     0.151 C 
HETATM    2  C4  UNL     1      19.155  22.917  14.179  1.00  0.00     0.054 C 
HETATM    3  C5  UNL     1      19.769  23.972  13.231  1.00  0.00     0.077 C 
HETATM    4  C6  UNL     1      20.997  23.425  12.570  1.00  0.00     0.193 C 
HETATM    5  C8  UNL     1      21.055  23.611  11.095  1.00  0.00     0.074 C 
HETATM    6  C13 UNL     1      19.942  23.544  10.401  1.00  0.00     0.025 C 
HETATM    7  C14 UNL     1      18.695  23.282  11.164  1.00  0.00     0.140 C 
HETATM    8  C17 UNL     1      18.646  24.318  12.298  1.00  0.00     0.152 C 
HETATM    9  C18 UNL     1      20.085  25.037  14.227  1.00  0.00     0.171 C 
HETATM   10  C19 UNL     1      20.122  26.442  13.674  1.00  0.00     0.080 C 
HETATM   11  O7  UNL     1      19.216  24.941  15.302  1.00  0.00    -0.348 OA
ENDROOT
BRANCH   4  12
HETATM   12  O1  UNL     1      21.053  22.039  12.866  1.00  0.00    -0.383 OA
HETATM   13  C7  UNL     1      22.306  21.601  13.203  1.00  0.00     0.202 C 
ENDBRANCH   4  12
BRANCH   8  14
HETATM   14  O5  UNL     1      18.706  25.540  11.696  1.00  0.00    -0.393 OA
ATOM     15  H5  UNL     1      18.153  25.666  10.935  1.00  0.00     0.210 HD
ENDBRANCH   8  14
BRANCH   9  16
HETATM   16  O6  UNL     1      21.363  24.790  14.729  1.00  0.00    -0.365 OA
ATOM     17  H6  UNL     1      21.366  25.021  15.651  1.00  0.00     0.213 HD
ENDBRANCH   9  16
BRANCH   1  18
HETATM   18  C2  UNL     1      18.136  23.132  16.456  1.00  0.00     0.263 C 
BRANCH  18  19
HETATM   19  N1  UNL     1      19.314  23.286  17.300  1.00  0.00    -0.077 N 
HETATM   20  C1  UNL     1      19.746  21.990  17.722  1.00  0.00     0.267 C 
ATOM     21  H12 UNL     1      19.154  23.919  18.083  1.00  0.00     0.276 HD
ATOM     22  H11 UNL     1      20.057  23.816  16.842  1.00  0.00     0.276 HD
ENDBRANCH  18  19
ENDBRANCH   1  18
BRANCH   5  23
HETATM   23  O2  UNL     1      22.227  23.850  10.429  1.00  0.00    -0.343 OA
BRANCH  23  24
HETATM   24  C9  UNL     1      23.055  22.979   9.746  1.00  0.00     0.056 C 
HETATM   25  C10 UNL     1      24.366  22.677  10.453  1.00  0.00     0.045 C 
HETATM   26  C11 UNL     1      22.451  21.682   9.322  1.00  0.00     0.045 C 
HETATM   27  C12 UNL     1      23.479  23.711   8.457  1.00  0.00     0.045 C 
ENDBRANCH  23  24
ENDBRANCH   5  23
BRANCH   7  28
HETATM   28  C15 UNL     1      17.509  23.431  10.318  1.00  0.00     0.268 C 
HETATM   29  O3  UNL     1      17.211  24.546   9.834  1.00  0.00    -0.264 OA
BRANCH  28  30
HETATM   30  O4  UNL     1      16.691  22.344  10.034  1.00  0.00    -0.326 OA
HETATM   31  C16 UNL     1      16.910  21.088  10.688  1.00  0.00     0.213 C 
ENDBRANCH  28  30
ENDBRANCH   7  28
TORSDOF 9
ENDMDL
MODEL 3
REMARK VINA RESULT: -6.380388633      3.144      5.968
REMARK  9 active torsions:
REMARK  status: ('A' for Active; 'I' for Inactive)
REMARK    1  A    between atoms: N1_2  and  C2_5 
REMARK    2  A    between atoms: C2_5  and  C3_6 
REMARK    3  A    between atoms: C6_9  and  O1_10 
REMARK    4  A    between atoms: C8_12  and  O2_13 
REMARK    5  A    between atoms: O2_13  and  C9_14 
REMARK    6  A    between atoms: C14_19  and  C15_20 
REMARK    7  A    between atoms: C15_20  and  O4_22 
REMARK    8  A    between atoms: C17_24  and  O5_25 
REMARK    9  A    between atoms: C18_27  and  O6_29 
ROOT
HETATM    1  C3  UNL     1      20.768  24.303  14.495  1.00  0.00     0.151 C 
HETATM    2  C4  UNL     1      19.556  23.460  14.168  1.00  0.00     0.054 C 
HETATM    3  C5  UNL     1      20.103  22.681  12.950  1.00  0.00     0.077 C 
HETATM    4  C6  UNL     1      19.378  21.379  12.798  1.00  0.00     0.193 C 
HETATM    5  C8  UNL     1      18.886  21.088  11.424  1.00  0.00     0.074 C 
HETATM    6  C13 UNL     1      18.461  22.081  10.677  1.00  0.00     0.025 C 
HETATM    7  C14 UNL     1      18.509  23.438  11.281  1.00  0.00     0.140 C 
HETATM    8  C17 UNL     1      19.940  23.637  11.806  1.00  0.00     0.152 C 
HETATM    9  C18 UNL     1      21.515  22.497  13.395  1.00  0.00     0.171 C 
HETATM   10  C19 UNL     1      22.523  22.340  12.282  1.00  0.00     0.080 C 
HETATM   11  O7  UNL     1      21.869  23.524  14.255  1.00  0.00    -0.348 OA
ENDROOT
BRANCH   4  12
HETATM   12  O1  UNL     1      18.276  21.404  13.690  1.00  0.00    -0.383 OA
HETATM   13  C7  UNL     1      18.058  20.209  14.324  1.00  0.00     0.202 C 
ENDBRANCH   4  12
BRANCH   8  14
HETATM   14  O5  UNL     1      20.763  23.454  10.735  1.00  0.00    -0.393 OA
ATOM     15  H5  UNL     1      21.203  22.615  10.675  1.00  0.00     0.210 HD
ENDBRANCH   8  14
BRANCH   9  16
HETATM   16  O6  UNL     1      21.582  21.319  14.139  1.00  0.00    -0.365 OA
ATOM     17  H6  UNL     1      20.847  21.311  14.742  1.00  0.00     0.213 HD
ENDBRANCH   9  16
BRANCH   1  18
HETATM   18  C2  UNL     1      20.719  24.814  15.924  1.00  0.00     0.263 C 
BRANCH  18  19
HETATM   19  N1  UNL     1      19.627  25.776  16.002  1.00  0.00    -0.077 N 
HETATM   20  C1  UNL     1      19.380  26.074  17.378  1.00  0.00     0.267 C 
ATOM     21  H12 UNL     1      18.789  25.457  15.515  1.00  0.00     0.276 HD
ATOM     22  H11 UNL     1      19.802  26.613  15.446  1.00  0.00     0.276 HD
ENDBRANCH  18  19
ENDBRANCH   1  18
BRANCH   5  23
HETATM   23  O2  UNL     1      18.857  19.822  10.906  1.00  0.00    -0.343 OA
BRANCH  23  24
HETATM   24  C9  UNL     1      19.892  19.017  10.469  1.00  0.00     0.056 C 
HETATM   25  C10 UNL     1      20.887  19.715   9.557  1.00  0.00     0.045 C 
HETATM   26  C11 UNL     1      20.662  18.291  11.522  1.00  0.00     0.045 C 
HETATM   27  C12 UNL     1      19.249  17.939   9.572  1.00  0.00     0.045 C 
ENDBRANCH  23  24
ENDBRANCH   5  23
BRANCH   7  28
HETATM   28  C15 UNL     1      18.205  24.475  10.291  1.00  0.00     0.268 C 
HETATM   29  O3  UNL     1      17.119  24.461   9.672  1.00  0.00    -0.264 OA
BRANCH  28  30
HETATM   30  O4  UNL     1      19.113  25.492  10.020  1.00  0.00    -0.326 OA
HETATM   31  C16 UNL     1      19.421  25.839   8.664  1.00  0.00     0.213 C 
ENDBRANCH  28  30
ENDBRANCH   7  28
TORSDOF 9
ENDMDL
MODEL 4
REMARK VINA RESULT: -6.343759669      2.365      4.992
REMARK  9 active torsions:
REMARK  status: ('A' for Active; 'I' for Inactive)
REMARK    1  A    between atoms: N1_2  and  C2_5 
REMARK    2  A    between atoms: C2_5  and  C3_6 
REMARK    3  A    between atoms: C6_9  and  O1_10 
REMARK    4  A    between atoms: C8_12  and  O2_13 
REMARK    5  A    between atoms: O2_13  and  C9_14 
REMARK    6  A    between atoms: C14_19  and  C15_20 
REMARK    7  A    between atoms: C15_20  and  O4_22 
REMARK    8  A    between atoms: C17_24  and  O5_25 
REMARK    9  A    between atoms: C18_27  and  O6_29 
ROOT
HETATM    1  C3  UNL     1      21.228  22.938  11.543  1.00  0.00     0.151 C 
HETATM    2  C4  UNL     1      20.325  22.354  12.606  1.00  0.00     0.054 C 
HETATM    3  C5  UNL     1      20.126  23.603  13.493  1.00  0.00     0.077 C 
HETATM    4  C6  UNL     1      18.837  23.502  14.250  1.00  0.00     0.193 C 
HETATM    5  C8  UNL     1      18.937  23.788  15.707  1.00  0.00     0.074 C 
HETATM    6  C13 UNL     1      20.021  23.425  16.353  1.00  0.00     0.025 C 
HETATM    7  C14 UNL     1      21.075  22.745  15.558  1.00  0.00     0.140 C 
HETATM    8  C17 UNL     1      21.360  23.644  14.344  1.00  0.00     0.152 C 
HETATM    9  C18 UNL     1      20.082  24.649  12.431  1.00  0.00     0.171 C 
HETATM   10  C19 UNL     1      20.510  26.029  12.871  1.00  0.00     0.080 C 
HETATM   11  O7  UNL     1      20.807  24.224  11.329  1.00  0.00    -0.348 OA
ENDROOT
BRANCH   4  12
HETATM   12  O1  UNL     1      18.343  22.185  14.068  1.00  0.00    -0.383 OA
HETATM   13  C7  UNL     1      17.185  21.935  14.755  1.00  0.00     0.202 C 
ENDBRANCH   4  12
BRANCH   8  14
HETATM   14  O5  UNL     1      21.715  24.859  14.849  1.00  0.00    -0.393 OA
ATOM     15  H5  UNL     1      22.645  25.039  14.911  1.00  0.00     0.210 HD
ENDBRANCH   8  14
BRANCH   9  16
HETATM   16  O6  UNL     1      18.759  24.777  12.008  1.00  0.00    -0.365 OA
ATOM     17  H6  UNL     1      18.228  24.989  12.767  1.00  0.00     0.213 HD
ENDBRANCH   9  16
BRANCH   1  18
HETATM   18  C2  UNL     1      21.206  22.102  10.276  1.00  0.00     0.263 C 
BRANCH  18  19
HETATM   19  N1  UNL     1      21.825  22.897   9.223  1.00  0.00    -0.077 N 
HETATM   20  C1  UNL     1      23.230  22.633   9.219  1.00  0.00     0.267 C 
ATOM     21  H12 UNL     1      21.615  23.891   9.308  1.00  0.00     0.276 HD
ATOM     22  H11 UNL     1      21.396  22.741   8.311  1.00  0.00     0.276 HD
ENDBRANCH  18  19
ENDBRANCH   1  18
BRANCH   5  23
HETATM   23  O2  UNL     1      17.940  24.417  16.403  1.00  0.00    -0.343 OA
BRANCH  23  24
HETATM   24  C9  UNL     1      17.800  25.748  16.748  1.00  0.00     0.056 C 
HETATM   25  C10 UNL     1      16.503  26.074  17.471  1.00  0.00     0.045 C 
HETATM   26  C11 UNL     1      18.923  26.359  17.517  1.00  0.00     0.045 C 
HETATM   27  C12 UNL     1      17.699  26.527  15.420  1.00  0.00     0.045 C 
ENDBRANCH  23  24
ENDBRANCH   5  23
BRANCH   7  28
HETATM   28  C15 UNL     1      22.305  22.574  16.336  1.00  0.00     0.268 C 
HETATM   29  O3  UNL     1      22.867  21.458  16.396  1.00  0.00    -0.264 OA
BRANCH  28  30
HETATM   30  O4  UNL     1      22.872  23.641  17.022  1.00  0.00    -0.326 OA
HETATM   31  C16 UNL     1      23.726  23.402  18.147  1.00  0.00     0.213 C 
ENDBRANCH  28  30
ENDBRANCH   7  28
TORSDOF 9
ENDMDL
MODEL 5
REMARK VINA RESULT: -6.274233232      2.631      5.962
REMARK  9 active torsions:
REMARK  status: ('A' for Active; 'I' for Inactive)
REMARK    1  A    between atoms: N1_2  and  C2_5 
REMARK    2  A    between atoms: C2_5  and  C3_6 
REMARK    3  A    between atoms: C6_9  and  O1_10 
REMARK    4  A    between atoms: C8_12  and  O2_13 
REMARK    5  A    between atoms: O2_13  and  C9_14 
REMARK    6  A    between atoms: C14_19  and  C15_20 
REMARK    7  A    between atoms: C15_20  and  O4_22 
REMARK    8  A    between atoms: C17_24  and  O5_25 
REMARK    9  A    between atoms: C18_27  and  O6_29 
ROOT
HETATM    1  C3  UNL     1      17.482  21.242  13.487  1.00  0.00     0.151 C 
HETATM    2  C4  UNL     1      18.666  22.158  13.272  1.00  0.00     0.054 C 
HETATM    3  C5  UNL     1      19.178  22.265  14.726  1.00  0.00     0.077 C 
HETATM    4  C6  UNL     1      20.641  22.592  14.740  1.00  0.00     0.193 C 
HETATM    5  C8  UNL     1      21.029  23.710  15.641  1.00  0.00     0.074 C 
HETATM    6  C13 UNL     1      20.206  24.722  15.790  1.00  0.00     0.025 C 
HETATM    7  C14 UNL     1      18.931  24.663  15.029  1.00  0.00     0.140 C 
HETATM    8  C17 UNL     1      18.290  23.303  15.347  1.00  0.00     0.152 C 
HETATM    9  C18 UNL     1      18.901  20.873  15.184  1.00  0.00     0.171 C 
HETATM   10  C19 UNL     1      18.678  20.718  16.669  1.00  0.00     0.080 C 
HETATM   11  O7  UNL     1      17.846  20.346  14.457  1.00  0.00    -0.348 OA
ENDROOT
BRANCH   4  12
HETATM   12  O1  UNL     1      21.011  22.917  13.410  1.00  0.00    -0.383 OA
HETATM   13  C7  UNL     1      22.218  22.389  13.033  1.00  0.00     0.202 C 
ENDBRANCH   4  12
BRANCH   8  14
HETATM   14  O5  UNL     1      18.154  23.258  16.703  1.00  0.00    -0.393 OA
ATOM     15  H5  UNL     1      18.946  23.112  17.205  1.00  0.00     0.210 HD
ENDBRANCH   8  14
BRANCH   9  16
HETATM   16  O6  UNL     1      20.017  20.092  14.882  1.00  0.00    -0.365 OA
ATOM     17  H6  UNL     1      19.912  19.759  13.998  1.00  0.00     0.213 HD
ENDBRANCH   9  16
BRANCH   1  18
HETATM   18  C2  UNL     1      17.066  20.561  12.195  1.00  0.00     0.263 C 
BRANCH  18  19
HETATM   19  N1  UNL     1      15.610  20.510  12.183  1.00  0.00    -0.077 N 
HETATM   20  C1  UNL     1      15.178  20.121  10.877  1.00  0.00     0.267 C 
ATOM     21  H12 UNL     1      15.185  21.385  12.490  1.00  0.00     0.276 HD
ATOM     22  H11 UNL     1      15.233  19.906  12.915  1.00  0.00     0.276 HD
ENDBRANCH  18  19
ENDBRANCH   1  18
BRANCH   5  23
HETATM   23  O2  UNL     1      22.215  23.726  16.323  1.00  0.00    -0.343 OA
BRANCH  23  24
HETATM   24  C9  UNL     1      22.772  22.776  17.159  1.00  0.00     0.056 C 
HETATM   25  C10 UNL     1      21.776  22.088  18.078  1.00  0.00     0.045 C 
HETATM   26  C11 UNL     1      23.604  21.722  16.509  1.00  0.00     0.045 C 
HETATM   27  C12 UNL     1      23.705  23.544  18.120  1.00  0.00     0.045 C 
ENDBRANCH  23  24
ENDBRANCH   5  23
BRANCH   7  28
HETATM   28  C15 UNL     1      18.019  25.737  15.430  1.00  0.00     0.268 C 
HETATM   29  O3  UNL     1      17.510  26.491  14.570  1.00  0.00    -0.264 OA
BRANCH  28  30
HETATM   30  O4  UNL     1      17.699  25.942  16.766  1.00  0.00    -0.326 OA
HETATM   31  C16 UNL     1      16.432  26.506  17.126  1.00  0.00     0.213 C 
ENDBRANCH  28  30
ENDBRANCH   7  28
TORSDOF 9
ENDMDL
