MODEL 1
REMARK VINA RESULT: -7.221567285      0.000      0.000
REMARK  7 active torsions:
REMARK  status: ('A' for Active; 'I' for Inactive)
REMARK    1  A    between atoms: C1_2  and  C2_3 
REMARK       I    between atoms: C1_2  and  N4_22 
REMARK    2  A    between atoms: C2_3  and  S1_4 
REMARK    3  A    between atoms: S1_4  and  C3_5 
REMARK    4  A    between atoms: C4_10  and  N3_11 
REMARK    5  A    between atoms: N3_11  and  C5_12 
REMARK    6  A    between atoms: C11_18  and  O2_19 
REMARK    7  A    between atoms: N4_22  and  C12_24 
ROOT
HETATM    1  C3  UNL     1      18.418  25.945  14.179  1.00  0.00     0.135 A 
HETATM    2  N1  UNL     1      18.338  24.809  14.777  1.00  0.00    -0.285 N 
ATOM      3  H1  UNL     1      17.926  24.774  15.709  1.00  0.00     0.188 HD
HETATM    4  N2  UNL     1      18.726  23.796  14.286  1.00  0.00    -0.267 N 
ATOM      5  H2  UNL     1      18.592  22.983  14.887  1.00  0.00     0.190 HD
HETATM    6  C4  UNL     1      19.292  23.500  13.136  1.00  0.00     0.234 A 
HETATM    7  S2  UNL     1      19.135  25.493  12.754  1.00  0.00    -0.011 SA
ENDROOT
BRANCH   1   8
HETATM    8  S1  UNL     1      17.928  27.635  14.702  1.00  0.00    -0.070 SA
BRANCH   8   9
HETATM    9  C2  UNL     1      17.182  27.694  16.317  1.00  0.00     0.126 C 
BRANCH   9  10
HETATM   10  C1  UNL     1      17.662  26.726  17.278  1.00  0.00     0.251 C 
HETATM   11  O1  UNL     1      16.823  25.975  17.858  1.00  0.00    -0.268 OA
HETATM   12  N4  UNL     1      19.056  26.630  17.586  1.00  0.00    -0.331 N 
ATOM     13  H4  UNL     1      19.726  27.230  17.105  1.00  0.00     0.168 HD
BRANCH  12  14
HETATM   14  C12 UNL     1      19.516  25.686  18.576  1.00  0.00     0.123 C 
HETATM   15  C13 UNL     1      19.958  24.398  18.123  1.00  0.00     0.061 C 
HETATM   16  C14 UNL     1      21.347  24.252  17.552  1.00  0.00     0.068 C 
HETATM   17  O3  UNL     1      19.127  23.554  17.368  1.00  0.00    -0.354 OA
HETATM   18  C15 UNL     1      21.291  22.806  17.051  1.00  0.00     0.033 C 
HETATM   19  C16 UNL     1      19.882  22.351  17.427  1.00  0.00     0.175 C 
ENDBRANCH  12  14
ENDBRANCH   9  10
ENDBRANCH   8   9
ENDBRANCH   1   8
BRANCH   6  20
HETATM   20  N3  UNL     1      19.791  23.254  12.125  1.00  0.00    -0.415 NA
BRANCH  20  21
HETATM   21  C5  UNL     1      20.352  22.836  10.977  1.00  0.00     0.194 C 
HETATM   22  C6  UNL     1      21.273  21.616  11.262  1.00  0.00     0.042 C 
HETATM   23  C7  UNL     1      22.448  22.068  12.041  1.00  0.00     0.003 C 
HETATM   24  C8  UNL     1      23.655  22.239  11.192  1.00  0.00     0.000 C 
HETATM   25  C9  UNL     1      23.538  23.139  10.013  1.00  0.00     0.002 C 
HETATM   26  C10 UNL     1      22.201  23.167   9.337  1.00  0.00     0.035 C 
HETATM   27  C11 UNL     1      21.129  23.842  10.171  1.00  0.00     0.154 C 
BRANCH  27  28
HETATM   28  O2  UNL     1      21.650  24.848  10.943  1.00  0.00    -0.392 OA
ATOM     29  H2  UNL     1      22.212  25.433  10.450  1.00  0.00     0.210 HD
ENDBRANCH  27  28
ENDBRANCH  20  21
ENDBRANCH   6  20
TORSDOF 7
ENDMDL
MODEL 2
REMARK VINA RESULT: -7.204618830      2.822      7.322
REMARK  7 active torsions:
REMARK  status: ('A' for Active; 'I' for Inactive)
REMARK    1  A    between atoms: C1_2  and  C2_3 
REMARK       I    between atoms: C1_2  and  N4_22 
REMARK    2  A    between atoms: C2_3  and  S1_4 
REMARK    3  A    between atoms: S1_4  and  C3_5 
REMARK    4  A    between atoms: C4_10  and  N3_11 
REMARK    5  A    between atoms: N3_11  and  C5_12 
REMARK    6  A    between atoms: C11_18  and  O2_19 
REMARK    7  A    between atoms: N4_22  and  C12_24 
ROOT
HETATM    1  C3  UNL     1      19.181  21.406  15.084  1.00  0.00     0.135 A 
HETATM    2  N1  UNL     1      18.366  21.315  16.076  1.00  0.00    -0.285 N 
ATOM      3  H1  UNL     1      18.013  20.395  16.337  1.00  0.00     0.188 HD
HETATM    4  N2  UNL     1      18.008  22.262  16.702  1.00  0.00    -0.267 N 
ATOM      5  H2  UNL     1      17.363  22.023  17.455  1.00  0.00     0.190 HD
HETATM    6  C4  UNL     1      18.263  23.550  16.632  1.00  0.00     0.234 A 
HETATM    7  S2  UNL     1      19.452  23.042  15.059  1.00  0.00    -0.011 SA
ENDROOT
BRANCH   1   8
HETATM    8  S1  UNL     1      19.869  20.137  13.952  1.00  0.00    -0.070 SA
BRANCH   8   9
HETATM    9  C2  UNL     1      18.800  19.745  12.584  1.00  0.00     0.126 C 
BRANCH   9  10
HETATM   10  C1  UNL     1      18.720  20.733  11.532  1.00  0.00     0.251 C 
HETATM   11  O1  UNL     1      19.399  20.558  10.477  1.00  0.00    -0.268 OA
HETATM   12  N4  UNL     1      17.906  21.900  11.686  1.00  0.00    -0.331 N 
ATOM     13  H4  UNL     1      17.353  22.027  12.533  1.00  0.00     0.168 HD
BRANCH  12  14
HETATM   14  C12 UNL     1      17.866  22.899  10.643  1.00  0.00     0.123 C 
HETATM   15  C13 UNL     1      18.648  24.089  10.822  1.00  0.00     0.061 C 
HETATM   16  C14 UNL     1      20.127  24.052  10.528  1.00  0.00     0.068 C 
HETATM   17  O3  UNL     1      18.485  24.919  11.944  1.00  0.00    -0.354 OA
HETATM   18  C15 UNL     1      20.544  25.438  11.030  1.00  0.00     0.033 C 
HETATM   19  C16 UNL     1      19.234  26.051  11.519  1.00  0.00     0.175 C 
ENDBRANCH  12  14
ENDBRANCH   9  10
ENDBRANCH   8   9
ENDBRANCH   1   8
BRANCH   6  20
HETATM   20  N3  UNL     1      18.494  24.679  16.557  1.00  0.00    -0.415 NA
BRANCH  20  21
HETATM   21  C5  UNL     1      18.662  26.013  16.558  1.00  0.00     0.194 C 
HETATM   22  C6  UNL     1      17.726  26.653  17.623  1.00  0.00     0.042 C 
HETATM   23  C7  UNL     1      16.321  26.512  17.179  1.00  0.00     0.003 C 
HETATM   24  C8  UNL     1      15.791  27.765  16.582  1.00  0.00     0.000 C 
HETATM   25  C9  UNL     1      16.552  28.355  15.448  1.00  0.00     0.002 C 
HETATM   26  C10 UNL     1      18.040  28.178  15.491  1.00  0.00     0.035 C 
HETATM   27  C11 UNL     1      18.474  26.744  15.257  1.00  0.00     0.154 C 
BRANCH  27  28
HETATM   28  O2  UNL     1      17.621  26.092  14.404  1.00  0.00    -0.392 OA
ATOM     29  H2  UNL     1      17.499  26.556  13.584  1.00  0.00     0.210 HD
ENDBRANCH  27  28
ENDBRANCH  20  21
ENDBRANCH   6  20
TORSDOF 7
ENDMDL
MODEL 3
REMARK VINA RESULT: -7.040333090      2.625      7.168
REMARK  7 active torsions:
REMARK  status: ('A' for Active; 'I' for Inactive)
REMARK    1  A    between atoms: C1_2  and  C2_3 
REMARK       I    between atoms: C1_2  and  N4_22 
REMARK    2  A    between atoms: C2_3  and  S1_4 
REMARK    3  A    between atoms: S1_4  and  C3_5 
REMARK    4  A    between atoms: C4_10  and  N3_11 
REMARK    5  A    between atoms: N3_11  and  C5_12 
REMARK    6  A    between atoms: C11_18  and  O2_19 
REMARK    7  A    between atoms: N4_22  and  C12_24 
ROOT
HETATM    1  C3  UNL     1      19.893  21.568  16.068  1.00  0.00     0.135 A 
HETATM    2  N1  UNL     1      18.655  21.532  16.415  1.00  0.00    -0.285 N 
ATOM      3  H1  UNL     1      18.207  20.624  16.541  1.00  0.00     0.188 HD
HETATM    4  N2  UNL     1      18.009  22.516  16.594  1.00  0.00    -0.267 N 
ATOM      5  H2  UNL     1      17.045  22.318  16.864  1.00  0.00     0.190 HD
HETATM    6  C4  UNL     1      18.270  23.802  16.519  1.00  0.00     0.234 A 
HETATM    7  S2  UNL     1      20.144  23.205  15.993  1.00  0.00    -0.011 SA
ENDROOT
BRANCH   1   8
HETATM    8  S1  UNL     1      21.098  20.231  15.709  1.00  0.00    -0.070 SA
BRANCH   8   9
HETATM    9  C2  UNL     1      21.555  20.123  13.992  1.00  0.00     0.126 C 
BRANCH   9  10
HETATM   10  C1  UNL     1      22.161  21.303  13.418  1.00  0.00     0.251 C 
HETATM   11  O1  UNL     1      22.962  21.984  14.124  1.00  0.00    -0.268 OA
HETATM   12  N4  UNL     1      21.845  21.711  12.082  1.00  0.00    -0.331 N 
ATOM     13  H4  UNL     1      21.208  21.151  11.517  1.00  0.00     0.168 HD
BRANCH  12  14
HETATM   14  C12 UNL     1      22.427  22.914  11.535  1.00  0.00     0.123 C 
HETATM   15  C13 UNL     1      21.539  23.959  11.115  1.00  0.00     0.061 C 
HETATM   16  C14 UNL     1      20.951  24.889  12.148  1.00  0.00     0.068 C 
HETATM   17  O3  UNL     1      20.531  23.736  10.162  1.00  0.00    -0.354 OA
HETATM   18  C15 UNL     1      19.962  25.676  11.283  1.00  0.00     0.033 C 
HETATM   19  C16 UNL     1      20.150  25.078   9.890  1.00  0.00     0.175 C 
ENDBRANCH  12  14
ENDBRANCH   9  10
ENDBRANCH   8   9
ENDBRANCH   1   8
BRANCH   6  20
HETATM   20  N3  UNL     1      18.511  24.929  16.446  1.00  0.00    -0.415 NA
BRANCH  20  21
HETATM   21  C5  UNL     1      18.727  26.240  16.242  1.00  0.00     0.194 C 
HETATM   22  C6  UNL     1      17.712  27.071  17.078  1.00  0.00     0.042 C 
HETATM   23  C7  UNL     1      16.356  26.884  16.516  1.00  0.00     0.003 C 
HETATM   24  C8  UNL     1      15.936  28.026  15.664  1.00  0.00     0.000 C 
HETATM   25  C9  UNL     1      16.831  28.399  14.536  1.00  0.00     0.002 C 
HETATM   26  C10 UNL     1      18.299  28.203  14.766  1.00  0.00     0.035 C 
HETATM   27  C11 UNL     1      18.701  26.742  14.824  1.00  0.00     0.154 C 
BRANCH  27  28
HETATM   28  O2  UNL     1      17.916  25.972  14.006  1.00  0.00    -0.392 OA
ATOM     29  H2  UNL     1      17.298  26.487  13.501  1.00  0.00     0.210 HD
ENDBRANCH  27  28
ENDBRANCH  20  21
ENDBRANCH   6  20
TORSDOF 7
ENDMDL
MODEL 4
REMARK VINA RESULT: -6.979844209      2.658      7.422
REMARK  7 active torsions:
REMARK  status: ('A' for Active; 'I' for Inactive)
REMARK    1  A    between atoms: C1_2  and  C2_3 
REMARK       I    between atoms: C1_2  and  N4_22 
REMARK    2  A    between atoms: C2_3  and  S1_4 
REMARK    3  A    between atoms: S1_4  and  C3_5 
REMARK    4  A    between atoms: C4_10  and  N3_11 
REMARK    5  A    between atoms: N3_11  and  C5_12 
REMARK    6  A    between atoms: C11_18  and  O2_19 
REMARK    7  A    between atoms: N4_22  and  C12_24 
ROOT
HETATM    1  C3  UNL     1      21.871  23.027  17.235  1.00  0.00     0.135 A 
HETATM    2  N1  UNL     1      21.859  23.839  18.233  1.00  0.00    -0.285 N 
ATOM      3  H1  UNL     1      22.650  23.835  18.877  1.00  0.00     0.188 HD
HETATM    4  N2  UNL     1      20.962  24.596  18.435  1.00  0.00    -0.267 N 
ATOM      5  H2  UNL     1      21.104  25.171  19.266  1.00  0.00     0.190 HD
HETATM    6  C4  UNL     1      19.829  24.849  17.820  1.00  0.00     0.234 A 
HETATM    7  S2  UNL     1      20.424  23.402  16.517  1.00  0.00    -0.011 SA
ENDROOT
BRANCH   1   8
HETATM    8  S1  UNL     1      23.090  21.762  16.707  1.00  0.00    -0.070 SA
BRANCH   8   9
HETATM    9  C2  UNL     1      22.624  20.895  15.224  1.00  0.00     0.126 C 
BRANCH   9  10
HETATM   10  C1  UNL     1      22.781  21.621  13.984  1.00  0.00     0.251 C 
HETATM   11  O1  UNL     1      23.916  21.627  13.420  1.00  0.00    -0.268 OA
HETATM   12  N4  UNL     1      21.683  22.338  13.412  1.00  0.00    -0.331 N 
ATOM     13  H4  UNL     1      20.770  22.317  13.865  1.00  0.00     0.168 HD
BRANCH  12  14
HETATM   14  C12 UNL     1      21.865  23.091  12.194  1.00  0.00     0.123 C 
HETATM   15  C13 UNL     1      20.797  23.950  11.768  1.00  0.00     0.061 C 
HETATM   16  C14 UNL     1      20.640  25.307  12.410  1.00  0.00     0.068 C 
HETATM   17  O3  UNL     1      19.499  23.462  11.546  1.00  0.00    -0.354 OA
HETATM   18  C15 UNL     1      19.311  25.753  11.794  1.00  0.00     0.033 C 
HETATM   19  C16 UNL     1      18.925  24.585  10.888  1.00  0.00     0.175 C 
ENDBRANCH  12  14
ENDBRANCH   9  10
ENDBRANCH   8   9
ENDBRANCH   1   8
BRANCH   6  20
HETATM   20  N3  UNL     1      18.835  25.059  17.272  1.00  0.00    -0.415 NA
BRANCH  20  21
HETATM   21  C5  UNL     1      17.616  25.289  16.753  1.00  0.00     0.194 C 
HETATM   22  C6  UNL     1      17.762  25.970  15.363  1.00  0.00     0.042 C 
HETATM   23  C7  UNL     1      18.290  27.340  15.548  1.00  0.00     0.003 C 
HETATM   24  C8  UNL     1      17.223  28.371  15.463  1.00  0.00     0.000 C 
HETATM   25  C9  UNL     1      16.058  28.222  16.377  1.00  0.00     0.002 C 
HETATM   26  C10 UNL     1      15.646  26.817  16.695  1.00  0.00     0.035 C 
HETATM   27  C11 UNL     1      16.645  26.091  17.576  1.00  0.00     0.154 C 
BRANCH  27  28
HETATM   28  O2  UNL     1      17.270  26.951  18.442  1.00  0.00    -0.392 OA
ATOM     29  H2  UNL     1      16.662  27.531  18.884  1.00  0.00     0.210 HD
ENDBRANCH  27  28
ENDBRANCH  20  21
ENDBRANCH   6  20
TORSDOF 7
ENDMDL
MODEL 5
REMARK VINA RESULT: -6.863900361      2.539      6.404
REMARK  7 active torsions:
REMARK  status: ('A' for Active; 'I' for Inactive)
REMARK    1  A    between atoms: C1_2  and  C2_3 
REMARK       I    between atoms: C1_2  and  N4_22 
REMARK    2  A    between atoms: C2_3  and  S1_4 
REMARK    3  A    between atoms: S1_4  and  C3_5 
REMARK    4  A    between atoms: C4_10  and  N3_11 
REMARK    5  A    between atoms: N3_11  and  C5_12 
REMARK    6  A    between atoms: C11_18  and  O2_19 
REMARK    7  A    between atoms: N4_22  and  C12_24 
ROOT
HETATM    1  C3  UNL     1      20.736  24.291  10.415  1.00  0.00     0.135 A 
HETATM    2  N1  UNL     1      19.510  24.450  10.059  1.00  0.00    -0.285 N 
ATOM      3  H1  UNL     1      19.189  24.010   9.197  1.00  0.00     0.188 HD
HETATM    4  N2  UNL     1      18.734  25.090  10.696  1.00  0.00    -0.267 N 
ATOM      5  H2  UNL     1      17.803  25.120  10.279  1.00  0.00     0.190 HD
HETATM    6  C4  UNL     1      18.818  25.767  11.819  1.00  0.00     0.234 A 
HETATM    7  S2  UNL     1      20.763  25.166  11.823  1.00  0.00    -0.011 SA
ENDROOT
BRANCH   1   8
HETATM    8  S1  UNL     1      22.127  23.391   9.627  1.00  0.00    -0.070 SA
BRANCH   8   9
HETATM    9  C2  UNL     1      23.203  22.579  10.789  1.00  0.00     0.126 C 
BRANCH   9  10
HETATM   10  C1  UNL     1      22.555  21.838  11.848  1.00  0.00     0.251 C 
HETATM   11  O1  UNL     1      21.629  21.027  11.548  1.00  0.00    -0.268 OA
HETATM   12  N4  UNL     1      22.936  22.030  13.214  1.00  0.00    -0.331 N 
ATOM     13  H4  UNL     1      23.691  22.675  13.446  1.00  0.00     0.168 HD
BRANCH  12  14
HETATM   14  C12 UNL     1      22.254  21.313  14.265  1.00  0.00     0.123 C 
HETATM   15  C13 UNL     1      22.013  22.000  15.502  1.00  0.00     0.061 C 
HETATM   16  C14 UNL     1      20.850  22.956  15.601  1.00  0.00     0.068 C 
HETATM   17  O3  UNL     1      23.059  22.566  16.250  1.00  0.00    -0.354 OA
HETATM   18  C15 UNL     1      21.107  23.562  16.984  1.00  0.00     0.033 C 
HETATM   19  C16 UNL     1      22.369  22.846  17.461  1.00  0.00     0.175 C 
ENDBRANCH  12  14
ENDBRANCH   9  10
ENDBRANCH   8   9
ENDBRANCH   1   8
BRANCH   6  20
HETATM   20  N3  UNL     1      18.906  26.361  12.806  1.00  0.00    -0.415 NA
BRANCH  20  21
HETATM   21  C5  UNL     1      19.003  27.166  13.879  1.00  0.00     0.194 C 
HETATM   22  C6  UNL     1      19.235  26.306  15.153  1.00  0.00     0.042 C 
HETATM   23  C7  UNL     1      18.006  25.535  15.447  1.00  0.00     0.003 C 
HETATM   24  C8  UNL     1      17.199  26.153  16.531  1.00  0.00     0.000 C 
HETATM   25  C9  UNL     1      16.794  27.573  16.353  1.00  0.00     0.002 C 
HETATM   26  C10 UNL     1      17.766  28.448  15.622  1.00  0.00     0.035 C 
HETATM   27  C11 UNL     1      17.869  28.117  14.146  1.00  0.00     0.154 C 
BRANCH  27  28
HETATM   28  O2  UNL     1      16.674  27.667  13.646  1.00  0.00    -0.392 OA
ATOM     29  H2  UNL     1      15.992  28.328  13.679  1.00  0.00     0.210 HD
ENDBRANCH  27  28
ENDBRANCH  20  21
ENDBRANCH   6  20
TORSDOF 7
ENDMDL
