MODEL 1
REMARK VINA RESULT: -7.702455464      0.000      0.000
REMARK  9 active torsions:
REMARK  status: ('A' for Active; 'I' for Inactive)
REMARK    1  A    between atoms: C4_4  and  C5_5 
REMARK    2  A    between atoms: C4_4  and  C18_23 
REMARK    3  A    between atoms: C5_5  and  C6_6 
REMARK    4  A    between atoms: C7_8  and  C8_9 
REMARK    5  A    between atoms: C8_9  and  O2_10 
REMARK    6  A    between atoms: C8_9  and  C9_12 
REMARK    7  A    between atoms: C10_14  and  C11_15 
REMARK    8  A    between atoms: C18_23  and  O5_24 
REMARK    9  A    between atoms: C18_23  and  O6_26 
ROOT
HETATM    1  C6  UNL     1      21.195  23.992  12.949  1.00  0.00     0.155 A 
HETATM    2  O1  UNL     1      19.907  23.776  13.365  1.00  0.00    -0.373 OA
HETATM    3  C7  UNL     1      20.961  23.521  14.365  1.00  0.00     0.182 A 
ENDROOT
BRANCH   3   4
HETATM    4  C8  UNL     1      20.984  24.486  15.503  1.00  0.00     0.181 C 
BRANCH   4   5
HETATM    5  O2  UNL     1      22.115  24.215  16.282  1.00  0.00    -0.390 OA
ATOM      6  H2  UNL     1      22.035  23.332  16.623  1.00  0.00     0.210 HD
ENDBRANCH   4   5
BRANCH   4   7
HETATM    7  C9  UNL     1      19.728  24.509  16.304  1.00  0.00     0.185 A 
HETATM    8  O3  UNL     1      19.596  25.863  16.938  1.00  0.00    -0.370 OA
HETATM    9  C10 UNL     1      18.606  25.443  16.085  1.00  0.00     0.182 A 
BRANCH   9  10
HETATM   10  C11 UNL     1      18.340  26.153  14.799  1.00  0.00     0.154 C 
HETATM   11  C12 UNL     1      19.149  27.423  14.652  1.00  0.00     0.042 C 
HETATM   12  C13 UNL     1      18.102  28.396  14.153  1.00  0.00     0.018 C 
HETATM   13  C14 UNL     1      18.380  29.804  14.581  1.00  0.00     0.013 C 
HETATM   14  C15 UNL     1      16.851  27.831  14.819  1.00  0.00     0.057 C 
HETATM   15  C16 UNL     1      16.786  28.178  16.272  1.00  0.00     0.046 C 
HETATM   16  C17 UNL     1      15.621  28.371  14.138  1.00  0.00     0.046 C 
HETATM   17  O4  UNL     1      17.008  26.485  14.624  1.00  0.00    -0.373 OA
ENDBRANCH   9  10
ENDBRANCH   4   7
ENDBRANCH   3   4
BRANCH   1  18
HETATM   18  C5  UNL     1      21.979  23.098  12.085  1.00  0.00     0.064 C 
BRANCH  18  19
HETATM   19  C4  UNL     1      21.722  23.071  10.619  1.00  0.00     0.120 A 
HETATM   20  C3  UNL     1      20.846  21.864  10.397  1.00  0.00     0.030 A 
HETATM   21  C2  UNL     1      21.452  21.039   9.602  1.00  0.00     0.050 A 
HETATM   22  C1  UNL     1      20.959  19.698   9.098  1.00  0.00     0.076 C 
HETATM   23  O8  UNL     1      22.684  21.542   9.229  1.00  0.00    -0.283 OA
HETATM   24  C19 UNL     1      22.907  22.768   9.811  1.00  0.00     0.281 A 
HETATM   25  O7  UNL     1      23.948  23.450   9.644  1.00  0.00    -0.263 OA
BRANCH  19  26
HETATM   26  C18 UNL     1      20.933  24.226  10.059  1.00  0.00     0.276 C 
BRANCH  26  27
HETATM   27  O5  UNL     1      19.579  23.776  10.093  1.00  0.00    -0.370 OA
ATOM     28  H5  UNL     1      19.230  24.148  10.895  1.00  0.00     0.212 HD
ENDBRANCH  26  27
BRANCH  26  29
HETATM   29  O6  UNL     1      21.201  24.548   8.754  1.00  0.00    -0.370 OA
ATOM     30  H6  UNL     1      21.363  23.813   8.175  1.00  0.00     0.212 HD
ENDBRANCH  26  29
ENDBRANCH  19  26
ENDBRANCH  18  19
ENDBRANCH   1  18
TORSDOF 9
ENDMDL
MODEL 2
REMARK VINA RESULT: -7.576448691      1.988      4.666
REMARK  9 active torsions:
REMARK  status: ('A' for Active; 'I' for Inactive)
REMARK    1  A    between atoms: C4_4  and  C5_5 
REMARK    2  A    between atoms: C4_4  and  C18_23 
REMARK    3  A    between atoms: C5_5  and  C6_6 
REMARK    4  A    between atoms: C7_8  and  C8_9 
REMARK    5  A    between atoms: C8_9  and  O2_10 
REMARK    6  A    between atoms: C8_9  and  C9_12 
REMARK    7  A    between atoms: C10_14  and  C11_15 
REMARK    8  A    between atoms: C18_23  and  O5_24 
REMARK    9  A    between atoms: C18_23  and  O6_26 
ROOT
HETATM    1  C6  UNL     1      19.081  26.290  12.985  1.00  0.00     0.155 A 
HETATM    2  O1  UNL     1      19.728  27.151  13.833  1.00  0.00    -0.373 OA
HETATM    3  C7  UNL     1      18.292  27.412  13.619  1.00  0.00     0.182 A 
ENDROOT
BRANCH   3   4
HETATM    4  C8  UNL     1      17.431  27.159  14.811  1.00  0.00     0.181 C 
BRANCH   4   5
HETATM    5  O2  UNL     1      16.406  28.112  14.819  1.00  0.00    -0.390 OA
ATOM      6  H2  UNL     1      15.877  27.972  15.596  1.00  0.00     0.210 HD
ENDBRANCH   4   5
BRANCH   4   7
HETATM    7  C9  UNL     1      18.178  27.110  16.099  1.00  0.00     0.185 A 
HETATM    8  O3  UNL     1      17.374  26.309  17.082  1.00  0.00    -0.370 OA
HETATM    9  C10 UNL     1      18.635  25.872  16.761  1.00  0.00     0.182 A 
BRANCH   9  10
HETATM   10  C11 UNL     1      18.848  24.572  16.060  1.00  0.00     0.154 C 
HETATM   11  C12 UNL     1      18.376  23.384  16.869  1.00  0.00     0.042 C 
HETATM   12  C13 UNL     1      19.535  22.423  16.705  1.00  0.00     0.018 C 
HETATM   13  C14 UNL     1      19.702  21.523  17.889  1.00  0.00     0.013 C 
HETATM   14  C15 UNL     1      20.695  23.402  16.561  1.00  0.00     0.057 C 
HETATM   15  C16 UNL     1      21.096  23.993  17.874  1.00  0.00     0.046 C 
HETATM   16  C17 UNL     1      21.886  22.699  15.965  1.00  0.00     0.046 C 
HETATM   17  O4  UNL     1      20.170  24.345  15.719  1.00  0.00    -0.373 OA
ENDBRANCH   9  10
ENDBRANCH   4   7
ENDBRANCH   3   4
BRANCH   1  18
HETATM   18  C5  UNL     1      19.169  26.302  11.518  1.00  0.00     0.064 C 
BRANCH  18  19
HETATM   19  C4  UNL     1      19.291  25.019  10.774  1.00  0.00     0.120 A 
HETATM   20  C3  UNL     1      20.195  24.159  11.620  1.00  0.00     0.030 A 
HETATM   21  C2  UNL     1      21.252  23.851  10.937  1.00  0.00     0.050 A 
HETATM   22  C1  UNL     1      22.431  23.007  11.374  1.00  0.00     0.076 C 
HETATM   23  O8  UNL     1      21.193  24.410   9.675  1.00  0.00    -0.283 OA
HETATM   24  C19 UNL     1      20.032  25.129   9.513  1.00  0.00     0.281 A 
HETATM   25  O7  UNL     1      19.721  25.742   8.462  1.00  0.00    -0.263 OA
BRANCH  19  26
HETATM   26  C18 UNL     1      18.027  24.214  10.621  1.00  0.00     0.276 C 
BRANCH  26  27
HETATM   27  O5  UNL     1      18.482  22.910  10.262  1.00  0.00    -0.370 OA
ATOM     28  H5  UNL     1      18.294  22.379  11.026  1.00  0.00     0.212 HD
ENDBRANCH  26  27
BRANCH  26  29
HETATM   29  O6  UNL     1      17.184  24.620   9.619  1.00  0.00    -0.370 OA
ATOM     30  H6  UNL     1      16.297  24.830   9.889  1.00  0.00     0.212 HD
ENDBRANCH  26  29
ENDBRANCH  19  26
ENDBRANCH  18  19
ENDBRANCH   1  18
TORSDOF 9
ENDMDL
MODEL 3
REMARK VINA RESULT: -7.470955998      2.514      4.782
REMARK  9 active torsions:
REMARK  status: ('A' for Active; 'I' for Inactive)
REMARK    1  A    between atoms: C4_4  and  C5_5 
REMARK    2  A    between atoms: C4_4  and  C18_23 
REMARK    3  A    between atoms: C5_5  and  C6_6 
REMARK    4  A    between atoms: C7_8  and  C8_9 
REMARK    5  A    between atoms: C8_9  and  O2_10 
REMARK    6  A    between atoms: C8_9  and  C9_12 
REMARK    7  A    between atoms: C10_14  and  C11_15 
REMARK    8  A    between atoms: C18_23  and  O5_24 
REMARK    9  A    between atoms: C18_23  and  O6_26 
ROOT
HETATM    1  C6  UNL     1      20.685  22.665  11.871  1.00  0.00     0.155 A 
HETATM    2  O1  UNL     1      20.691  21.344  12.236  1.00  0.00    -0.373 OA
HETATM    3  C7  UNL     1      21.994  21.913  11.845  1.00  0.00     0.182 A 
ENDROOT
BRANCH   3   4
HETATM    4  C8  UNL     1      22.974  22.047  12.962  1.00  0.00     0.181 C 
BRANCH   4   5
HETATM    5  O2  UNL     1      24.228  21.636  12.496  1.00  0.00    -0.390 OA
ATOM      6  H2  UNL     1      24.503  20.885  13.009  1.00  0.00     0.210 HD
ENDBRANCH   4   5
BRANCH   4   7
HETATM    7  C9  UNL     1      22.568  21.344  14.212  1.00  0.00     0.185 A 
HETATM    8  O3  UNL     1      23.401  21.872  15.344  1.00  0.00    -0.370 OA
HETATM    9  C10 UNL     1      22.037  22.008  15.418  1.00  0.00     0.182 A 
BRANCH   9  10
HETATM   10  C11 UNL     1      21.394  23.356  15.423  1.00  0.00     0.154 C 
HETATM   11  C12 UNL     1      21.662  24.130  16.695  1.00  0.00     0.042 C 
HETATM   12  C13 UNL     1      20.284  24.667  17.021  1.00  0.00     0.018 C 
HETATM   13  C14 UNL     1      20.072  24.840  18.493  1.00  0.00     0.013 C 
HETATM   14  C15 UNL     1      19.406  23.563  16.442  1.00  0.00     0.057 C 
HETATM   15  C16 UNL     1      19.374  22.354  17.320  1.00  0.00     0.046 C 
HETATM   16  C17 UNL     1      17.998  24.069  16.266  1.00  0.00     0.046 C 
HETATM   17  O4  UNL     1      20.021  23.307  15.246  1.00  0.00    -0.373 OA
ENDBRANCH   9  10
ENDBRANCH   4   7
ENDBRANCH   3   4
BRANCH   1  18
HETATM   18  C5  UNL     1      20.212  23.200  10.587  1.00  0.00     0.064 C 
BRANCH  18  19
HETATM   19  C4  UNL     1      19.875  24.644  10.464  1.00  0.00     0.120 A 
HETATM   20  C3  UNL     1      20.491  25.295  11.676  1.00  0.00     0.030 A 
HETATM   21  C2  UNL     1      19.558  25.852  12.382  1.00  0.00     0.050 A 
HETATM   22  C1  UNL     1      19.702  26.620  13.679  1.00  0.00     0.076 C 
HETATM   23  O8  UNL     1      18.325  25.663  11.788  1.00  0.00    -0.283 OA
HETATM   24  C19 UNL     1      18.448  24.939  10.625  1.00  0.00     0.281 A 
HETATM   25  O7  UNL     1      17.485  24.623   9.884  1.00  0.00    -0.263 OA
BRANCH  19  26
HETATM   26  C18 UNL     1      20.477  25.371   9.290  1.00  0.00     0.276 C 
BRANCH  26  27
HETATM   27  O5  UNL     1      19.365  25.641   8.437  1.00  0.00    -0.370 OA
ATOM     28  H5  UNL     1      19.484  25.049   7.704  1.00  0.00     0.212 HD
ENDBRANCH  26  27
BRANCH  26  29
HETATM   29  O6  UNL     1      21.372  24.651   8.543  1.00  0.00    -0.370 OA
ATOM     30  H6  UNL     1      21.563  25.002   7.681  1.00  0.00     0.212 HD
ENDBRANCH  26  29
ENDBRANCH  19  26
ENDBRANCH  18  19
ENDBRANCH   1  18
TORSDOF 9
ENDMDL
MODEL 4
REMARK VINA RESULT: -7.462110306      2.173      4.641
REMARK  9 active torsions:
REMARK  status: ('A' for Active; 'I' for Inactive)
REMARK    1  A    between atoms: C4_4  and  C5_5 
REMARK    2  A    between atoms: C4_4  and  C18_23 
REMARK    3  A    between atoms: C5_5  and  C6_6 
REMARK    4  A    between atoms: C7_8  and  C8_9 
REMARK    5  A    between atoms: C8_9  and  O2_10 
REMARK    6  A    between atoms: C8_9  and  C9_12 
REMARK    7  A    between atoms: C10_14  and  C11_15 
REMARK    8  A    between atoms: C18_23  and  O5_24 
REMARK    9  A    between atoms: C18_23  and  O6_26 
ROOT
HETATM    1  C6  UNL     1      19.251  25.671  12.982  1.00  0.00     0.155 A 
HETATM    2  O1  UNL     1      20.091  26.443  13.741  1.00  0.00    -0.373 OA
HETATM    3  C7  UNL     1      18.648  26.672  13.939  1.00  0.00     0.182 A 
ENDROOT
BRANCH   3   4
HETATM    4  C8  UNL     1      18.127  26.237  15.268  1.00  0.00     0.181 C 
BRANCH   4   5
HETATM    5  O2  UNL     1      17.033  27.047  15.594  1.00  0.00    -0.390 OA
ATOM      6  H2  UNL     1      17.361  27.835  16.010  1.00  0.00     0.210 HD
ENDBRANCH   4   5
BRANCH   4   7
HETATM    7  C9  UNL     1      19.158  26.207  16.343  1.00  0.00     0.185 A 
HETATM    8  O3  UNL     1      18.464  26.012  17.660  1.00  0.00    -0.370 OA
HETATM    9  C10 UNL     1      19.385  25.075  17.262  1.00  0.00     0.182 A 
BRANCH   9  10
HETATM   10  C11 UNL     1      18.981  23.666  16.978  1.00  0.00     0.154 C 
HETATM   11  C12 UNL     1      19.878  22.651  17.650  1.00  0.00     0.042 C 
HETATM   12  C13 UNL     1      20.118  21.664  16.527  1.00  0.00     0.018 C 
HETATM   13  C14 UNL     1      21.453  20.994  16.631  1.00  0.00     0.013 C 
HETATM   14  C15 UNL     1      20.035  22.590  15.317  1.00  0.00     0.057 C 
HETATM   15  C16 UNL     1      21.276  23.406  15.149  1.00  0.00     0.046 C 
HETATM   16  C17 UNL     1      19.819  21.777  14.067  1.00  0.00     0.046 C 
HETATM   17  O4  UNL     1      18.953  23.368  15.626  1.00  0.00    -0.373 OA
ENDBRANCH   9  10
ENDBRANCH   4   7
ENDBRANCH   3   4
BRANCH   1  18
HETATM   18  C5  UNL     1      18.955  25.870  11.556  1.00  0.00     0.064 C 
BRANCH  18  19
HETATM   19  C4  UNL     1      19.233  24.779  10.583  1.00  0.00     0.120 A 
HETATM   20  C3  UNL     1      20.297  23.933  11.235  1.00  0.00     0.030 A 
HETATM   21  C2  UNL     1      21.354  23.925  10.485  1.00  0.00     0.050 A 
HETATM   22  C1  UNL     1      22.667  23.213  10.733  1.00  0.00     0.076 C 
HETATM   23  O8  UNL     1      21.149  24.687   9.351  1.00  0.00    -0.283 OA
HETATM   24  C19 UNL     1      19.886  25.232   9.350  1.00  0.00     0.281 A 
HETATM   25  O7  UNL     1      19.434  25.968   8.439  1.00  0.00    -0.263 OA
BRANCH  19  26
HETATM   26  C18 UNL     1      18.099  23.826  10.308  1.00  0.00     0.276 C 
BRANCH  26  27
HETATM   27  O5  UNL     1      17.051  24.660   9.817  1.00  0.00    -0.370 OA
ATOM     28  H5  UNL     1      16.302  24.078   9.749  1.00  0.00     0.212 HD
ENDBRANCH  26  27
BRANCH  26  29
HETATM   29  O6  UNL     1      17.596  23.174  11.403  1.00  0.00    -0.370 OA
ATOM     30  H6  UNL     1      17.286  23.733  12.107  1.00  0.00     0.212 HD
ENDBRANCH  26  29
ENDBRANCH  19  26
ENDBRANCH  18  19
ENDBRANCH   1  18
TORSDOF 9
ENDMDL
MODEL 5
REMARK VINA RESULT: -7.351227422      2.223      4.610
REMARK  9 active torsions:
REMARK  status: ('A' for Active; 'I' for Inactive)
REMARK    1  A    between atoms: C4_4  and  C5_5 
REMARK    2  A    between atoms: C4_4  and  C18_23 
REMARK    3  A    between atoms: C5_5  and  C6_6 
REMARK    4  A    between atoms: C7_8  and  C8_9 
REMARK    5  A    between atoms: C8_9  and  O2_10 
REMARK    6  A    between atoms: C8_9  and  C9_12 
REMARK    7  A    between atoms: C10_14  and  C11_15 
REMARK    8  A    between atoms: C18_23  and  O5_24 
REMARK    9  A    between atoms: C18_23  and  O6_26 
ROOT
HETATM    1  C6  UNL     1      19.093  26.170  12.769  1.00  0.00     0.155 A 
HETATM    2  O1  UNL     1      19.853  26.847  13.687  1.00  0.00    -0.373 OA
HETATM    3  C7  UNL     1      18.459  27.305  13.537  1.00  0.00     0.182 A 
ENDROOT
BRANCH   3   4
HETATM    4  C8  UNL     1      17.586  27.035  14.716  1.00  0.00     0.181 C 
BRANCH   4   5
HETATM    5  O2  UNL     1      16.520  27.941  14.688  1.00  0.00    -0.390 OA
ATOM      6  H2  UNL     1      15.885  27.672  15.342  1.00  0.00     0.210 HD
ENDBRANCH   4   5
BRANCH   4   7
HETATM    7  C9  UNL     1      18.309  27.040  16.019  1.00  0.00     0.185 A 
HETATM    8  O3  UNL     1      17.488  26.278  17.019  1.00  0.00    -0.370 OA
HETATM    9  C10 UNL     1      18.756  25.832  16.740  1.00  0.00     0.182 A 
BRANCH   9  10
HETATM   10  C11 UNL     1      18.983  24.504  16.097  1.00  0.00     0.154 C 
HETATM   11  C12 UNL     1      18.507  23.349  16.950  1.00  0.00     0.042 C 
HETATM   12  C13 UNL     1      19.672  22.388  16.841  1.00  0.00     0.018 C 
HETATM   13  C14 UNL     1      19.828  21.540  18.065  1.00  0.00     0.013 C 
HETATM   14  C15 UNL     1      20.830  23.366  16.671  1.00  0.00     0.057 C 
HETATM   15  C16 UNL     1      21.211  24.014  17.963  1.00  0.00     0.046 C 
HETATM   16  C17 UNL     1      22.031  22.644  16.120  1.00  0.00     0.046 C 
HETATM   17  O4  UNL     1      20.311  24.270  15.783  1.00  0.00    -0.373 OA
ENDBRANCH   9  10
ENDBRANCH   4   7
ENDBRANCH   3   4
BRANCH   1  18
HETATM   18  C5  UNL     1      19.165  26.328  11.310  1.00  0.00     0.064 C 
BRANCH  18  19
HETATM   19  C4  UNL     1      19.579  25.179  10.459  1.00  0.00     0.120 A 
HETATM   20  C3  UNL     1      18.314  24.393  10.219  1.00  0.00     0.030 A 
HETATM   21  C2  UNL     1      18.459  23.196  10.693  1.00  0.00     0.050 A 
HETATM   22  C1  UNL     1      17.458  22.061  10.680  1.00  0.00     0.076 C 
HETATM   23  O8  UNL     1      19.714  23.046  11.253  1.00  0.00    -0.283 OA
HETATM   24  C19 UNL     1      20.440  24.209  11.145  1.00  0.00     0.281 A 
HETATM   25  O7  UNL     1      21.612  24.353  11.570  1.00  0.00    -0.263 OA
BRANCH  19  26
HETATM   26  C18 UNL     1      20.089  25.518   9.083  1.00  0.00     0.276 C 
BRANCH  26  27
HETATM   27  O5  UNL     1      21.146  24.585   8.861  1.00  0.00    -0.370 OA
ATOM     28  H5  UNL     1      20.743  23.737   9.008  1.00  0.00     0.212 HD
ENDBRANCH  26  27
BRANCH  26  29
HETATM   29  O6  UNL     1      20.638  26.766   8.946  1.00  0.00    -0.370 OA
ATOM     30  H6  UNL     1      20.347  27.414   9.577  1.00  0.00     0.212 HD
ENDBRANCH  26  29
ENDBRANCH  19  26
ENDBRANCH  18  19
ENDBRANCH   1  18
TORSDOF 9
ENDMDL
