MODEL 1
REMARK VINA RESULT: -7.958850177      0.000      0.000
REMARK  8 active torsions:
REMARK  status: ('A' for Active; 'I' for Inactive)
REMARK    1  A    between atoms: C2_2  and  C3_3 
REMARK    2  A    between atoms: C3_3  and  C4_4 
REMARK    3  A    between atoms: C4_4  and  C5_5 
REMARK    4  A    between atoms: C5_5  and  O1_6 
REMARK    5  A    between atoms: O1_6  and  C6_7 
REMARK    6  A    between atoms: C7_14  and  C8_15 
REMARK       I    between atoms: C8_15  and  N4_17 
REMARK    7  A    between atoms: C13_24  and  O3_25 
REMARK    8  A    between atoms: C14_27  and  O4_28 
ROOT
HETATM    1  C8  UNL     1      17.577  28.453  14.809  1.00  0.00     0.278 C 
HETATM    2  O2  UNL     1      18.298  29.409  15.178  1.00  0.00    -0.265 OA
HETATM    3  N4  UNL     1      17.919  27.828  13.580  1.00  0.00    -0.319 N 
ATOM      4  H4  UNL     1      17.605  28.251  12.706  1.00  0.00     0.169 HD
HETATM    5  C9  UNL     1      18.612  26.749  13.536  1.00  0.00     0.059 C 
HETATM    6  C10 UNL     1      19.121  26.050  14.750  1.00  0.00     0.139 C 
HETATM    7  S1  UNL     1      20.652  25.193  14.271  1.00  0.00    -0.156 SA
HETATM    8  C11 UNL     1      20.224  23.849  13.131  1.00  0.00     0.067 C 
HETATM    9  C12 UNL     1      21.452  23.504  12.332  1.00  0.00     0.050 C 
HETATM   10  C13 UNL     1      21.060  23.527  10.884  1.00  0.00     0.149 C 
HETATM   11  C14 UNL     1      19.551  23.540  10.896  1.00  0.00     0.162 C 
HETATM   12  C15 UNL     1      19.149  24.246  12.156  1.00  0.00     0.098 C 
HETATM   13  S2  UNL     1      19.000  26.024  11.950  1.00  0.00    -0.107 SA
ENDROOT
BRANCH   1  14
HETATM   14  C7  UNL     1      16.440  27.998  15.595  1.00  0.00     0.170 A 
HETATM   15  C6  UNL     1      16.516  27.339  16.838  1.00  0.00     0.193 A 
HETATM   16  N1  UNL     1      15.256  27.089  17.232  1.00  0.00    -0.263 N 
HETATM   17  N2  UNL     1      14.448  27.555  16.306  1.00  0.00    -0.240 N 
ATOM     18  H1  UNL     1      14.975  26.621  18.094  1.00  0.00     0.190 HD
HETATM   19  N3  UNL     1      15.135  28.102  15.320  1.00  0.00    -0.277 N 
ATOM     20  H2  UNL     1      13.430  27.502  16.344  1.00  0.00     0.208 HD
ATOM     21  H3  UNL     1      14.736  28.532  14.486  1.00  0.00     0.189 HD
BRANCH  15  22
HETATM   22  O1  UNL     1      17.713  27.073  17.421  1.00  0.00    -0.333 OA
BRANCH  22  23
HETATM   23  C5  UNL     1      18.282  26.089  18.139  1.00  0.00     0.177 C 
BRANCH  23  24
HETATM   24  C4  UNL     1      19.743  26.004  18.351  1.00  0.00     0.027 C 
BRANCH  24  25
HETATM   25  C3  UNL     1      20.406  24.685  18.352  1.00  0.00     0.002 C 
BRANCH  25  26
HETATM   26  C2  UNL     1      19.475  23.748  17.528  1.00  0.00    -0.004 C 
HETATM   27  C1  UNL     1      19.877  22.311  17.783  1.00  0.00     0.005 C 
ENDBRANCH  25  26
ENDBRANCH  24  25
ENDBRANCH  23  24
ENDBRANCH  22  23
ENDBRANCH  15  22
ENDBRANCH   1  14
BRANCH  11  28
HETATM   28  O4  UNL     1      19.027  24.131   9.748  1.00  0.00    -0.392 OA
ATOM     29  H4  UNL     1      18.416  23.556   9.301  1.00  0.00     0.210 HD
ENDBRANCH  11  28
BRANCH  10  30
HETATM   30  O3  UNL     1      21.581  24.662  10.296  1.00  0.00    -0.393 OA
ATOM     31  H3  UNL     1      21.179  24.781   9.444  1.00  0.00     0.210 HD
ENDBRANCH  10  30
TORSDOF 8
ENDMDL
MODEL 2
REMARK VINA RESULT: -7.716635567      2.383      4.211
REMARK  8 active torsions:
REMARK  status: ('A' for Active; 'I' for Inactive)
REMARK    1  A    between atoms: C2_2  and  C3_3 
REMARK    2  A    between atoms: C3_3  and  C4_4 
REMARK    3  A    between atoms: C4_4  and  C5_5 
REMARK    4  A    between atoms: C5_5  and  O1_6 
REMARK    5  A    between atoms: O1_6  and  C6_7 
REMARK    6  A    between atoms: C7_14  and  C8_15 
REMARK       I    between atoms: C8_15  and  N4_17 
REMARK    7  A    between atoms: C13_24  and  O3_25 
REMARK    8  A    between atoms: C14_27  and  O4_28 
ROOT
HETATM    1  C8  UNL     1      18.623  26.197  17.869  1.00  0.00     0.278 C 
HETATM    2  O2  UNL     1      18.905  26.159  19.090  1.00  0.00    -0.265 OA
HETATM    3  N4  UNL     1      19.612  25.721  16.968  1.00  0.00    -0.319 N 
ATOM      4  H4  UNL     1      20.372  26.344  16.693  1.00  0.00     0.169 HD
HETATM    5  C9  UNL     1      19.579  24.531  16.489  1.00  0.00     0.059 C 
HETATM    6  C10 UNL     1      18.516  23.541  16.824  1.00  0.00     0.139 C 
HETATM    7  S1  UNL     1      19.263  21.888  16.689  1.00  0.00    -0.156 SA
HETATM    8  C11 UNL     1      19.634  21.568  14.943  1.00  0.00     0.067 C 
HETATM    9  C12 UNL     1      20.700  20.507  14.877  1.00  0.00     0.050 C 
HETATM   10  C13 UNL     1      21.791  21.029  13.990  1.00  0.00     0.149 C 
HETATM   11  C14 UNL     1      21.181  22.218  13.290  1.00  0.00     0.162 C 
HETATM   12  C15 UNL     1      20.168  22.786  14.238  1.00  0.00     0.098 C 
HETATM   13  S2  UNL     1      20.859  24.008  15.359  1.00  0.00    -0.107 SA
ENDROOT
BRANCH   1  14
HETATM   14  C7  UNL     1      17.346  26.705  17.389  1.00  0.00     0.170 A 
HETATM   15  C6  UNL     1      17.167  27.535  16.265  1.00  0.00     0.193 A 
HETATM   16  N1  UNL     1      15.849  27.779  16.159  1.00  0.00    -0.263 N 
HETATM   17  N2  UNL     1      15.247  27.151  17.143  1.00  0.00    -0.240 N 
ATOM     18  H1  UNL     1      15.398  28.350  15.444  1.00  0.00     0.190 HD
HETATM   19  N3  UNL     1      16.123  26.504  17.889  1.00  0.00    -0.277 N 
ATOM     20  H2  UNL     1      14.240  27.161  17.308  1.00  0.00     0.208 HD
ATOM     21  H3  UNL     1      15.902  25.942  18.712  1.00  0.00     0.189 HD
BRANCH  15  22
HETATM   22  O1  UNL     1      18.223  27.935  15.511  1.00  0.00    -0.333 OA
BRANCH  22  23
HETATM   23  C5  UNL     1      18.465  28.299  14.240  1.00  0.00     0.177 C 
BRANCH  23  24
HETATM   24  C4  UNL     1      18.374  27.348  13.110  1.00  0.00     0.027 C 
BRANCH  24  25
HETATM   25  C3  UNL     1      19.444  26.352  12.905  1.00  0.00     0.002 C 
BRANCH  25  26
HETATM   26  C2  UNL     1      19.088  25.622  11.577  1.00  0.00    -0.004 C 
HETATM   27  C1  UNL     1      20.358  25.406  10.781  1.00  0.00     0.005 C 
ENDBRANCH  25  26
ENDBRANCH  24  25
ENDBRANCH  23  24
ENDBRANCH  22  23
ENDBRANCH  15  22
ENDBRANCH   1  14
BRANCH  11  28
HETATM   28  O4  UNL     1      22.146  23.145  12.902  1.00  0.00    -0.392 OA
ATOM     29  H4  UNL     1      22.827  22.748  12.372  1.00  0.00     0.210 HD
ENDBRANCH  11  28
BRANCH  10  30
HETATM   30  O3  UNL     1      22.871  21.388  14.771  1.00  0.00    -0.393 OA
ATOM     31  H3  UNL     1      23.637  21.478  14.217  1.00  0.00     0.210 HD
ENDBRANCH  10  30
TORSDOF 8
ENDMDL
MODEL 3
REMARK VINA RESULT: -7.632913084      2.980      4.640
REMARK  8 active torsions:
REMARK  status: ('A' for Active; 'I' for Inactive)
REMARK    1  A    between atoms: C2_2  and  C3_3 
REMARK    2  A    between atoms: C3_3  and  C4_4 
REMARK    3  A    between atoms: C4_4  and  C5_5 
REMARK    4  A    between atoms: C5_5  and  O1_6 
REMARK    5  A    between atoms: O1_6  and  C6_7 
REMARK    6  A    between atoms: C7_14  and  C8_15 
REMARK       I    between atoms: C8_15  and  N4_17 
REMARK    7  A    between atoms: C13_24  and  O3_25 
REMARK    8  A    between atoms: C14_27  and  O4_28 
ROOT
HETATM    1  C8  UNL     1      21.313  24.446  16.456  1.00  0.00     0.278 C 
HETATM    2  O2  UNL     1      22.365  23.912  16.879  1.00  0.00    -0.265 OA
HETATM    3  N4  UNL     1      21.060  24.348  15.061  1.00  0.00    -0.319 N 
ATOM      4  H4  UNL     1      21.512  25.010  14.429  1.00  0.00     0.169 HD
HETATM    5  C9  UNL     1      20.282  23.453  14.572  1.00  0.00     0.059 C 
HETATM    6  C10 UNL     1      19.573  22.439  15.403  1.00  0.00     0.139 C 
HETATM    7  S1  UNL     1      19.344  20.962  14.367  1.00  0.00    -0.156 SA
HETATM    8  C11 UNL     1      18.162  21.363  13.051  1.00  0.00     0.067 C 
HETATM    9  C12 UNL     1      18.372  20.392  11.920  1.00  0.00     0.050 C 
HETATM   10  C13 UNL     1      18.531  21.199  10.666  1.00  0.00     0.149 C 
HETATM   11  C14 UNL     1      18.064  22.584  11.040  1.00  0.00     0.162 C 
HETATM   12  C15 UNL     1      18.368  22.747  12.499  1.00  0.00     0.098 C 
HETATM   13  S2  UNL     1      20.014  23.397  12.807  1.00  0.00    -0.107 SA
ENDROOT
BRANCH   1  14
HETATM   14  C7  UNL     1      20.388  25.135  17.343  1.00  0.00     0.170 A 
HETATM   15  C6  UNL     1      19.404  26.059  16.940  1.00  0.00     0.193 A 
HETATM   16  N1  UNL     1      18.765  26.467  18.050  1.00  0.00    -0.263 N 
HETATM   17  N2  UNL     1      19.308  25.846  19.073  1.00  0.00    -0.240 N 
ATOM     18  H1  UNL     1      17.996  27.137  18.091  1.00  0.00     0.190 HD
HETATM   19  N3  UNL     1      20.279  25.047  18.672  1.00  0.00    -0.277 N 
ATOM     20  H2  UNL     1      19.018  25.966  20.044  1.00  0.00     0.208 HD
ATOM     21  H3  UNL     1      20.852  24.459  19.278  1.00  0.00     0.189 HD
BRANCH  15  22
HETATM   22  O1  UNL     1      19.236  26.382  15.632  1.00  0.00    -0.333 OA
BRANCH  22  23
HETATM   23  C5  UNL     1      18.226  26.516  14.754  1.00  0.00     0.177 C 
BRANCH  23  24
HETATM   24  C4  UNL     1      17.797  27.832  14.233  1.00  0.00     0.027 C 
BRANCH  24  25
HETATM   25  C3  UNL     1      16.416  28.296  14.468  1.00  0.00     0.002 C 
BRANCH  25  26
HETATM   26  C2  UNL     1      16.126  28.006  15.970  1.00  0.00    -0.004 C 
HETATM   27  C1  UNL     1      14.629  28.014  16.191  1.00  0.00     0.005 C 
ENDBRANCH  25  26
ENDBRANCH  24  25
ENDBRANCH  23  24
ENDBRANCH  22  23
ENDBRANCH  15  22
ENDBRANCH   1  14
BRANCH  11  28
HETATM   28  O4  UNL     1      18.655  23.565  10.245  1.00  0.00    -0.392 OA
ATOM     29  H4  UNL     1      19.142  23.189   9.522  1.00  0.00     0.210 HD
ENDBRANCH  11  28
BRANCH  10  30
HETATM   30  O3  UNL     1      19.858  21.186  10.289  1.00  0.00    -0.393 OA
ATOM     31  H3  UNL     1      19.966  21.733   9.519  1.00  0.00     0.210 HD
ENDBRANCH  10  30
TORSDOF 8
ENDMDL
MODEL 4
REMARK VINA RESULT: -7.376389371      2.727      4.543
REMARK  8 active torsions:
REMARK  status: ('A' for Active; 'I' for Inactive)
REMARK    1  A    between atoms: C2_2  and  C3_3 
REMARK    2  A    between atoms: C3_3  and  C4_4 
REMARK    3  A    between atoms: C4_4  and  C5_5 
REMARK    4  A    between atoms: C5_5  and  O1_6 
REMARK    5  A    between atoms: O1_6  and  C6_7 
REMARK    6  A    between atoms: C7_14  and  C8_15 
REMARK       I    between atoms: C8_15  and  N4_17 
REMARK    7  A    between atoms: C13_24  and  O3_25 
REMARK    8  A    between atoms: C14_27  and  O4_28 
ROOT
HETATM    1  C8  UNL     1      18.758  23.295  16.268  1.00  0.00     0.278 C 
HETATM    2  O2  UNL     1      17.569  22.901  16.281  1.00  0.00    -0.265 OA
HETATM    3  N4  UNL     1      19.606  22.740  15.271  1.00  0.00    -0.319 N 
ATOM      4  H4  UNL     1      20.032  21.827  15.436  1.00  0.00     0.169 HD
HETATM    5  C9  UNL     1      19.851  23.351  14.171  1.00  0.00     0.059 C 
HETATM    6  C10 UNL     1      19.282  24.686  13.828  1.00  0.00     0.139 C 
HETATM    7  S1  UNL     1      19.145  24.761  12.017  1.00  0.00    -0.156 SA
HETATM    8  C11 UNL     1      20.818  24.798  11.316  1.00  0.00     0.067 C 
HETATM    9  C12 UNL     1      20.740  24.321   9.891  1.00  0.00     0.050 C 
HETATM   10  C13 UNL     1      21.765  23.238   9.729  1.00  0.00     0.149 C 
HETATM   11  C14 UNL     1      22.641  23.353  10.951  1.00  0.00     0.162 C 
HETATM   12  C15 UNL     1      21.764  23.883  12.046  1.00  0.00     0.098 C 
HETATM   13  S2  UNL     1      20.930  22.588  12.968  1.00  0.00    -0.107 SA
ENDROOT
BRANCH   1  14
HETATM   14  C7  UNL     1      19.257  24.272  17.223  1.00  0.00     0.170 A 
HETATM   15  C6  UNL     1      18.717  25.555  17.438  1.00  0.00     0.193 A 
HETATM   16  N1  UNL     1      19.457  26.142  18.395  1.00  0.00    -0.263 N 
HETATM   17  N2  UNL     1      20.392  25.292  18.753  1.00  0.00    -0.240 N 
ATOM     18  H1  UNL     1      19.318  27.079  18.774  1.00  0.00     0.190 HD
HETATM   19  N3  UNL     1      20.290  24.169  18.066  1.00  0.00    -0.277 N 
ATOM     20  H2  UNL     1      21.099  25.473  19.465  1.00  0.00     0.208 HD
ATOM     21  H3  UNL     1      20.900  23.357  18.161  1.00  0.00     0.189 HD
BRANCH  15  22
HETATM   22  O1  UNL     1      17.637  25.990  16.738  1.00  0.00    -0.333 OA
BRANCH  22  23
HETATM   23  C5  UNL     1      16.487  26.644  16.975  1.00  0.00     0.177 C 
BRANCH  23  24
HETATM   24  C4  UNL     1      16.128  27.897  16.275  1.00  0.00     0.027 C 
BRANCH  24  25
HETATM   25  C3  UNL     1      16.430  28.043  14.838  1.00  0.00     0.002 C 
BRANCH  25  26
HETATM   26  C2  UNL     1      17.628  29.034  14.759  1.00  0.00    -0.004 C 
HETATM   27  C1  UNL     1      18.734  28.404  13.940  1.00  0.00     0.005 C 
ENDBRANCH  25  26
ENDBRANCH  24  25
ENDBRANCH  23  24
ENDBRANCH  22  23
ENDBRANCH  15  22
ENDBRANCH   1  14
BRANCH  11  28
HETATM   28  O4  UNL     1      23.246  22.140  11.275  1.00  0.00    -0.392 OA
ATOM     29  H4  UNL     1      24.193  22.190  11.219  1.00  0.00     0.210 HD
ENDBRANCH  11  28
BRANCH  10  30
HETATM   30  O3  UNL     1      21.122  22.017   9.668  1.00  0.00    -0.393 OA
ATOM     31  H3  UNL     1      21.335  21.517  10.447  1.00  0.00     0.210 HD
ENDBRANCH  10  30
TORSDOF 8
ENDMDL
MODEL 5
REMARK VINA RESULT: -7.251697135      4.205      7.205
REMARK  8 active torsions:
REMARK  status: ('A' for Active; 'I' for Inactive)
REMARK    1  A    between atoms: C2_2  and  C3_3 
REMARK    2  A    between atoms: C3_3  and  C4_4 
REMARK    3  A    between atoms: C4_4  and  C5_5 
REMARK    4  A    between atoms: C5_5  and  O1_6 
REMARK    5  A    between atoms: O1_6  and  C6_7 
REMARK    6  A    between atoms: C7_14  and  C8_15 
REMARK       I    between atoms: C8_15  and  N4_17 
REMARK    7  A    between atoms: C13_24  and  O3_25 
REMARK    8  A    between atoms: C14_27  and  O4_28 
ROOT
HETATM    1  C8  UNL     1      20.711  21.720  10.759  1.00  0.00     0.278 C 
HETATM    2  O2  UNL     1      21.189  20.650  10.316  1.00  0.00    -0.265 OA
HETATM    3  N4  UNL     1      19.901  21.626  11.923  1.00  0.00    -0.319 N 
ATOM      4  H4  UNL     1      18.920  21.365  11.823  1.00  0.00     0.169 HD
HETATM    5  C9  UNL     1      20.366  21.860  13.095  1.00  0.00     0.059 C 
HETATM    6  C10 UNL     1      21.782  22.248  13.355  1.00  0.00     0.139 C 
HETATM    7  S1  UNL     1      22.206  21.646  15.017  1.00  0.00    -0.156 SA
HETATM    8  C11 UNL     1      21.255  22.599  16.232  1.00  0.00     0.067 C 
HETATM    9  C12 UNL     1      21.170  21.792  17.500  1.00  0.00     0.050 C 
HETATM   10  C13 UNL     1      19.723  21.726  17.888  1.00  0.00     0.149 C 
HETATM   11  C14 UNL     1      19.050  22.779  17.042  1.00  0.00     0.162 C 
HETATM   12  C15 UNL     1      19.846  22.866  15.774  1.00  0.00     0.098 C 
HETATM   13  S2  UNL     1      19.282  21.722  14.509  1.00  0.00    -0.107 SA
ENDROOT
BRANCH   1  14
HETATM   14  C7  UNL     1      20.966  23.002  10.120  1.00  0.00     0.170 A 
HETATM   15  C6  UNL     1      20.304  24.210  10.416  1.00  0.00     0.193 A 
HETATM   16  N1  UNL     1      20.825  25.154   9.613  1.00  0.00    -0.263 N 
HETATM   17  N2  UNL     1      21.744  24.582   8.869  1.00  0.00    -0.240 N 
ATOM     18  H1  UNL     1      20.555  26.138   9.586  1.00  0.00     0.190 HD
HETATM   19  N3  UNL     1      21.844  23.297   9.155  1.00  0.00    -0.277 N 
ATOM     20  H2  UNL     1      22.304  25.064   8.166  1.00  0.00     0.208 HD
ATOM     21  H3  UNL     1      22.485  22.638   8.714  1.00  0.00     0.189 HD
BRANCH  15  22
HETATM   22  O1  UNL     1      19.338  24.267  11.368  1.00  0.00    -0.333 OA
BRANCH  22  23
HETATM   23  C5  UNL     1      19.066  24.975  12.478  1.00  0.00     0.177 C 
BRANCH  23  24
HETATM   24  C4  UNL     1      18.954  26.450  12.472  1.00  0.00     0.027 C 
BRANCH  24  25
HETATM   25  C3  UNL     1      19.210  27.207  13.712  1.00  0.00     0.002 C 
BRANCH  25  26
HETATM   26  C2  UNL     1      17.899  27.998  13.998  1.00  0.00    -0.004 C 
HETATM   27  C1  UNL     1      18.259  29.395  14.456  1.00  0.00     0.005 C 
ENDBRANCH  25  26
ENDBRANCH  24  25
ENDBRANCH  23  24
ENDBRANCH  22  23
ENDBRANCH  15  22
ENDBRANCH   1  14
BRANCH  11  28
HETATM   28  O4  UNL     1      17.704  22.490  16.824  1.00  0.00    -0.392 OA
ATOM     29  H4  UNL     1      17.533  22.261  15.918  1.00  0.00     0.210 HD
ENDBRANCH  11  28
BRANCH  10  30
HETATM   30  O3  UNL     1      19.242  20.461  17.617  1.00  0.00    -0.393 OA
ATOM     31  H3  UNL     1      19.713  20.104  16.873  1.00  0.00     0.210 HD
ENDBRANCH  10  30
TORSDOF 8
ENDMDL
