MODEL 1
REMARK VINA RESULT: -6.243277301      0.000      0.000
REMARK  6 active torsions:
REMARK  status: ('A' for Active; 'I' for Inactive)
REMARK    1  A    between atoms: O1_2  and  C2_3 
REMARK    2  A    between atoms: C2_3  and  C3_4 
REMARK    3  A    between atoms: C7_8  and  O2_9 
REMARK    4  A    between atoms: O2_9  and  C8_10 
REMARK    5  A    between atoms: C8_10  and  C9_12 
REMARK    6  A    between atoms: C16_20  and  O5_21 
ROOT
HETATM    1  C2  UNL     1       1.113  37.764  22.037  1.00  0.00     0.122 C 
HETATM    2  C7  UNL     1       2.310  37.123  22.704  1.00  0.00     0.172 C 
HETATM    3  C13 UNL     1       2.027  35.686  23.124  1.00  0.00     0.075 C 
HETATM    4  C14 UNL     1       0.762  35.592  23.950  1.00  0.00     0.197 C 
HETATM    5  O4  UNL     1       0.082  36.837  23.920  1.00  0.00    -0.367 OA
HETATM    6  C15 UNL     1      -0.115  37.031  22.558  1.00  0.00     0.196 C 
HETATM    7  C16 UNL     1      -0.371  35.710  21.935  1.00  0.00     0.222 C 
HETATM    8  C17 UNL     1      -0.189  34.792  23.127  1.00  0.00     0.186 C 
HETATM    9  O6  UNL     1      -0.687  33.715  23.332  1.00  0.00    -0.292 OA
ENDROOT
BRANCH   2  10
HETATM   10  O2  UNL     1       2.858  37.763  23.809  1.00  0.00    -0.312 OA
BRANCH  10  11
HETATM   11  C8  UNL     1       4.214  37.797  24.104  1.00  0.00     0.267 C 
HETATM   12  O3  UNL     1       4.923  38.406  23.231  1.00  0.00    -0.264 OA
BRANCH  11  13
HETATM   13  C9  UNL     1       4.861  37.216  25.278  1.00  0.00     0.037 C 
HETATM   14  C10 UNL     1       5.177  35.757  25.177  1.00  0.00     0.025 C 
HETATM   15  C11 UNL     1       6.135  37.958  25.661  1.00  0.00     0.025 C 
HETATM   16  C12 UNL     1       3.931  37.379  26.471  1.00  0.00     0.025 C 
ENDBRANCH  11  13
ENDBRANCH  10  11
ENDBRANCH   2  10
BRANCH   1  17
HETATM   17  O1  UNL     1       1.324  37.570  20.714  1.00  0.00    -0.379 OA
HETATM   18  C1  UNL     1       2.419  37.245  20.085  1.00  0.00     0.202 C 
ENDBRANCH   1  17
BRANCH   1  19
HETATM   19  C3  UNL     1       0.948  39.219  22.320  1.00  0.00    -0.015 C 
HETATM   20  C4  UNL     1      -0.366  39.715  21.696  1.00  0.00     0.018 C 
HETATM   21  C5  UNL     1       2.068  40.106  21.841  1.00  0.00     0.018 C 
HETATM   22  C6  UNL     1       0.839  39.554  23.792  1.00  0.00     0.018 C 
ENDBRANCH   1  19
BRANCH   7  23
HETATM   23  O5  UNL     1      -1.703  35.515  21.561  1.00  0.00    -0.385 OA
ATOM     24  H5  UNL     1      -2.256  35.207  22.268  1.00  0.00     0.210 HD
ENDBRANCH   7  23
TORSDOF 6
ENDMDL
MODEL 2
REMARK VINA RESULT: -6.162785332      1.469      1.702
REMARK  6 active torsions:
REMARK  status: ('A' for Active; 'I' for Inactive)
REMARK    1  A    between atoms: O1_2  and  C2_3 
REMARK    2  A    between atoms: C2_3  and  C3_4 
REMARK    3  A    between atoms: C7_8  and  O2_9 
REMARK    4  A    between atoms: O2_9  and  C8_10 
REMARK    5  A    between atoms: C8_10  and  C9_12 
REMARK    6  A    between atoms: C16_20  and  O5_21 
ROOT
HETATM    1  C2  UNL     1       1.464  36.914  23.466  1.00  0.00     0.122 C 
HETATM    2  C7  UNL     1       2.810  36.321  23.820  1.00  0.00     0.172 C 
HETATM    3  C13 UNL     1       2.714  34.833  24.130  1.00  0.00     0.075 C 
HETATM    4  C14 UNL     1       1.648  34.554  25.167  1.00  0.00     0.197 C 
HETATM    5  O4  UNL     1       0.894  35.732  25.401  1.00  0.00    -0.367 OA
HETATM    6  C15 UNL     1       0.417  36.033  24.131  1.00  0.00     0.196 C 
HETATM    7  C16 UNL     1       0.131  34.757  23.430  1.00  0.00     0.222 C 
HETATM    8  C17 UNL     1       0.608  33.753  24.460  1.00  0.00     0.186 C 
HETATM    9  O6  UNL     1       0.235  32.622  24.640  1.00  0.00    -0.292 OA
ENDROOT
BRANCH   2  10
HETATM   10  O2  UNL     1       3.523  36.902  24.861  1.00  0.00    -0.312 OA
BRANCH  10  11
HETATM   11  C8  UNL     1       4.908  36.979  24.918  1.00  0.00     0.267 C 
HETATM   12  O3  UNL     1       5.425  37.736  24.026  1.00  0.00    -0.264 OA
BRANCH  11  13
HETATM   13  C9  UNL     1       5.776  36.294  25.873  1.00  0.00     0.037 C 
HETATM   14  C10 UNL     1       5.966  34.831  25.627  1.00  0.00     0.025 C 
HETATM   15  C11 UNL     1       7.149  36.947  25.975  1.00  0.00     0.025 C 
HETATM   16  C12 UNL     1       5.167  36.428  27.260  1.00  0.00     0.025 C 
ENDBRANCH  11  13
ENDBRANCH  10  11
ENDBRANCH   2  10
BRANCH   1  17
HETATM   17  O1  UNL     1       1.421  36.861  22.114  1.00  0.00    -0.379 OA
HETATM   18  C1  UNL     1       2.398  36.834  21.250  1.00  0.00     0.202 C 
ENDBRANCH   1  17
BRANCH   1  19
HETATM   19  C3  UNL     1       1.261  38.317  23.929  1.00  0.00    -0.015 C 
HETATM   20  C4  UNL     1      -0.101  38.828  23.432  1.00  0.00     0.018 C 
HETATM   21  C5  UNL     1       2.322  39.302  23.508  1.00  0.00     0.018 C 
HETATM   22  C6  UNL     1       1.217  38.470  25.434  1.00  0.00     0.018 C 
ENDBRANCH   1  19
BRANCH   7  23
HETATM   23  O5  UNL     1      -1.232  34.482  23.299  1.00  0.00    -0.385 OA
ATOM     24  H5  UNL     1      -1.438  33.921  22.561  1.00  0.00     0.210 HD
ENDBRANCH   7  23
TORSDOF 6
ENDMDL
MODEL 3
REMARK VINA RESULT: -6.160452778      1.146      1.493
REMARK  6 active torsions:
REMARK  status: ('A' for Active; 'I' for Inactive)
REMARK    1  A    between atoms: O1_2  and  C2_3 
REMARK    2  A    between atoms: C2_3  and  C3_4 
REMARK    3  A    between atoms: C7_8  and  O2_9 
REMARK    4  A    between atoms: O2_9  and  C8_10 
REMARK    5  A    between atoms: C8_10  and  C9_12 
REMARK    6  A    between atoms: C16_20  and  O5_21 
ROOT
HETATM    1  C2  UNL     1       1.148  37.477  22.791  1.00  0.00     0.122 C 
HETATM    2  C7  UNL     1       2.397  37.060  23.536  1.00  0.00     0.172 C 
HETATM    3  C13 UNL     1       2.301  35.631  24.056  1.00  0.00     0.075 C 
HETATM    4  C14 UNL     1       1.031  35.418  24.852  1.00  0.00     0.197 C 
HETATM    5  O4  UNL     1       0.188  36.550  24.711  1.00  0.00    -0.367 OA
HETATM    6  C15 UNL     1       0.015  36.618  23.333  1.00  0.00     0.196 C 
HETATM    7  C16 UNL     1      -0.032  35.233  22.805  1.00  0.00     0.222 C 
HETATM    8  C17 UNL     1       0.231  34.436  24.067  1.00  0.00     0.186 C 
HETATM    9  O6  UNL     1      -0.120  33.317  24.339  1.00  0.00    -0.292 OA
ENDROOT
BRANCH   2  10
HETATM   10  O2  UNL     1       2.811  37.847  24.604  1.00  0.00    -0.312 OA
BRANCH  10  11
HETATM   11  C8  UNL     1       4.017  37.692  25.273  1.00  0.00     0.267 C 
HETATM   12  O3  UNL     1       3.914  37.109  26.407  1.00  0.00    -0.264 OA
BRANCH  11  13
HETATM   13  C9  UNL     1       5.331  38.124  24.803  1.00  0.00     0.037 C 
HETATM   14  C10 UNL     1       5.382  38.580  23.379  1.00  0.00     0.025 C 
HETATM   15  C11 UNL     1       5.926  39.219  25.680  1.00  0.00     0.025 C 
HETATM   16  C12 UNL     1       6.295  36.953  24.921  1.00  0.00     0.025 C 
ENDBRANCH  11  13
ENDBRANCH  10  11
ENDBRANCH   2  10
BRANCH   1  17
HETATM   17  O1  UNL     1       1.433  37.221  21.493  1.00  0.00    -0.379 OA
HETATM   18  C1  UNL     1       2.589  37.098  20.902  1.00  0.00     0.202 C 
ENDBRANCH   1  17
BRANCH   1  19
HETATM   19  C3  UNL     1       0.773  38.911  22.959  1.00  0.00    -0.015 C 
HETATM   20  C4  UNL     1      -0.271  39.293  21.898  1.00  0.00     0.018 C 
HETATM   21  C5  UNL     1       1.913  39.895  22.883  1.00  0.00     0.018 C 
HETATM   22  C6  UNL     1       0.123  39.227  24.288  1.00  0.00     0.018 C 
ENDBRANCH   1  19
BRANCH   7  23
HETATM   23  O5  UNL     1      -1.309  34.826  22.411  1.00  0.00    -0.385 OA
ATOM     24  H5  UNL     1      -1.308  34.084  21.820  1.00  0.00     0.210 HD
ENDBRANCH   7  23
TORSDOF 6
ENDMDL
MODEL 4
REMARK VINA RESULT: -6.158522170      0.762      1.176
REMARK  6 active torsions:
REMARK  status: ('A' for Active; 'I' for Inactive)
REMARK    1  A    between atoms: O1_2  and  C2_3 
REMARK    2  A    between atoms: C2_3  and  C3_4 
REMARK    3  A    between atoms: C7_8  and  O2_9 
REMARK    4  A    between atoms: O2_9  and  C8_10 
REMARK    5  A    between atoms: C8_10  and  C9_12 
REMARK    6  A    between atoms: C16_20  and  O5_21 
ROOT
HETATM    1  C2  UNL     1       1.149  37.402  22.678  1.00  0.00     0.122 C 
HETATM    2  C7  UNL     1       2.478  36.893  23.191  1.00  0.00     0.172 C 
HETATM    3  C13 UNL     1       2.386  35.454  23.685  1.00  0.00     0.075 C 
HETATM    4  C14 UNL     1       1.257  35.284  24.679  1.00  0.00     0.197 C 
HETATM    5  O4  UNL     1       0.470  36.464  24.710  1.00  0.00    -0.367 OA
HETATM    6  C15 UNL     1       0.074  36.587  23.383  1.00  0.00     0.196 C 
HETATM    7  C16 UNL     1      -0.143  35.225  22.837  1.00  0.00     0.222 C 
HETATM    8  C17 UNL     1       0.280  34.374  24.017  1.00  0.00     0.186 C 
HETATM    9  O6  UNL     1      -0.086  33.267  24.318  1.00  0.00    -0.292 OA
ENDROOT
BRANCH   2  10
HETATM   10  O2  UNL     1       3.110  37.620  24.191  1.00  0.00    -0.312 OA
BRANCH  10  11
HETATM   11  C8  UNL     1       4.481  37.631  24.408  1.00  0.00     0.267 C 
HETATM   12  O3  UNL     1       5.155  38.161  23.459  1.00  0.00    -0.264 OA
BRANCH  11  13
HETATM   13  C9  UNL     1       5.179  37.105  25.579  1.00  0.00     0.037 C 
HETATM   14  C10 UNL     1       4.433  37.217  26.870  1.00  0.00     0.025 C 
HETATM   15  C11 UNL     1       5.605  35.654  25.394  1.00  0.00     0.025 C 
HETATM   16  C12 UNL     1       6.476  37.881  25.756  1.00  0.00     0.025 C 
ENDBRANCH  11  13
ENDBRANCH  10  11
ENDBRANCH   2  10
BRANCH   1  17
HETATM   17  O1  UNL     1       1.197  37.174  21.344  1.00  0.00    -0.379 OA
HETATM   18  C1  UNL     1       2.227  37.104  20.548  1.00  0.00     0.202 C 
ENDBRANCH   1  17
BRANCH   1  19
HETATM   19  C3  UNL     1       0.893  38.847  22.941  1.00  0.00    -0.015 C 
HETATM   20  C4  UNL     1      -0.318  39.310  22.115  1.00  0.00     0.018 C 
HETATM   21  C5  UNL     1       2.047  39.775  22.657  1.00  0.00     0.018 C 
HETATM   22  C6  UNL     1       0.536  39.159  24.378  1.00  0.00     0.018 C 
ENDBRANCH   1  19
BRANCH   7  23
HETATM   23  O5  UNL     1      -1.490  34.902  22.656  1.00  0.00    -0.385 OA
ATOM     24  H5  UNL     1      -1.741  34.079  23.056  1.00  0.00     0.210 HD
ENDBRANCH   7  23
TORSDOF 6
ENDMDL
MODEL 5
REMARK VINA RESULT: -6.144279467      1.403      1.723
REMARK  6 active torsions:
REMARK  status: ('A' for Active; 'I' for Inactive)
REMARK    1  A    between atoms: O1_2  and  C2_3 
REMARK    2  A    between atoms: C2_3  and  C3_4 
REMARK    3  A    between atoms: C7_8  and  O2_9 
REMARK    4  A    between atoms: O2_9  and  C8_10 
REMARK    5  A    between atoms: C8_10  and  C9_12 
REMARK    6  A    between atoms: C16_20  and  O5_21 
ROOT
HETATM    1  C2  UNL     1       1.414  37.929  23.350  1.00  0.00     0.122 C 
HETATM    2  C7  UNL     1       2.402  36.988  24.004  1.00  0.00     0.172 C 
HETATM    3  C13 UNL     1       1.994  35.529  23.840  1.00  0.00     0.075 C 
HETATM    4  C14 UNL     1       0.566  35.302  24.289  1.00  0.00     0.197 C 
HETATM    5  O4  UNL     1      -0.058  36.552  24.537  1.00  0.00    -0.367 OA
HETATM    6  C15 UNL     1       0.081  37.196  23.313  1.00  0.00     0.196 C 
HETATM    7  C16 UNL     1      -0.050  36.181  22.239  1.00  0.00     0.222 C 
HETATM    8  C17 UNL     1      -0.179  34.913  23.058  1.00  0.00     0.186 C 
HETATM    9  O6  UNL     1      -0.736  33.885  22.773  1.00  0.00    -0.292 OA
ENDROOT
BRANCH   2  10
HETATM   10  O2  UNL     1       2.685  37.175  25.351  1.00  0.00    -0.312 OA
BRANCH  10  11
HETATM   11  C8  UNL     1       3.901  36.869  25.948  1.00  0.00     0.267 C 
HETATM   12  O3  UNL     1       3.867  35.835  26.700  1.00  0.00    -0.264 OA
BRANCH  11  13
HETATM   13  C9  UNL     1       5.153  37.605  25.791  1.00  0.00     0.037 C 
HETATM   14  C10 UNL     1       5.654  37.721  24.386  1.00  0.00     0.025 C 
HETATM   15  C11 UNL     1       5.081  39.003  26.393  1.00  0.00     0.025 C 
HETATM   16  C12 UNL     1       6.236  36.886  26.582  1.00  0.00     0.025 C 
ENDBRANCH  11  13
ENDBRANCH  10  11
ENDBRANCH   2  10
BRANCH   1  17
HETATM   17  O1  UNL     1       1.930  38.152  22.120  1.00  0.00    -0.379 OA
HETATM   18  C1  UNL     1       3.124  37.900  21.659  1.00  0.00     0.202 C 
ENDBRANCH   1  17
BRANCH   1  19
HETATM   19  C3  UNL     1       1.220  39.223  24.067  1.00  0.00    -0.015 C 
HETATM   20  C4  UNL     1       0.029  39.974  23.451  1.00  0.00     0.018 C 
HETATM   21  C5  UNL     1       2.412  40.145  24.078  1.00  0.00     0.018 C 
HETATM   22  C6  UNL     1       0.878  39.071  25.533  1.00  0.00     0.018 C 
ENDBRANCH   1  19
BRANCH   7  23
HETATM   23  O5  UNL     1      -1.258  36.255  21.542  1.00  0.00    -0.385 OA
ATOM     24  H5  UNL     1      -1.153  36.277  20.598  1.00  0.00     0.210 HD
ENDBRANCH   7  23
TORSDOF 6
ENDMDL
