MODEL 1
REMARK VINA RESULT: -7.292496757      0.000      0.000
REMARK  4 active torsions:
REMARK  status: ('A' for Active; 'I' for Inactive)
REMARK    1  A    between atoms: C2_2  and  O2_4 
REMARK    2  A    between atoms: O2_4  and  C3_5 
REMARK    3  A    between atoms: C3_5  and  C4_6 
REMARK    4  A    between atoms: C9_12  and  O4_13 
ROOT
HETATM    1  C4  UNL     1       0.191  33.260  25.713  1.00  0.00     0.006 C 
HETATM    2  C5  UNL     1       0.218  32.777  27.114  1.00  0.00     0.020 C 
HETATM    3  C6  UNL     1      -1.298  33.284  25.244  1.00  0.00     0.179 C 
HETATM    4  O3  UNL     1      -1.123  34.098  24.098  1.00  0.00    -0.384 OA
HETATM    5  C7  UNL     1      -0.618  35.244  24.757  1.00  0.00     0.134 C 
HETATM    6  C8  UNL     1      -0.275  36.334  23.841  1.00  0.00     0.056 C 
HETATM    7  C9  UNL     1       0.374  35.971  22.559  1.00  0.00     0.126 C 
HETATM    8  C10 UNL     1       1.421  37.059  22.285  1.00  0.00     0.041 C 
HETATM    9  C11 UNL     1       1.050  38.140  23.264  1.00  0.00    -0.035 C 
HETATM   10  C12 UNL     1      -0.158  38.908  22.804  1.00  0.00     0.015 C 
HETATM   11  C13 UNL     1       2.168  39.105  23.523  1.00  0.00     0.015 C 
HETATM   12  C14 UNL     1       0.658  37.339  24.478  1.00  0.00     0.072 C 
HETATM   13  C15 UNL     1       1.813  36.648  25.102  1.00  0.00     0.132 C 
HETATM   14  O5  UNL     1       2.750  37.334  25.455  1.00  0.00    -0.298 OA
HETATM   15  C16 UNL     1       1.836  35.150  25.298  1.00  0.00     0.086 C 
HETATM   16  C17 UNL     1       0.446  34.753  25.667  1.00  0.00     0.034 C 
ENDROOT
BRANCH   1  17
HETATM   17  C3  UNL     1       0.893  32.484  24.680  1.00  0.00     0.190 C 
BRANCH  17  18
HETATM   18  O2  UNL     1       1.879  31.589  24.980  1.00  0.00    -0.321 OA
BRANCH  18  19
HETATM   19  C2  UNL     1       3.150  31.429  24.585  1.00  0.00     0.254 C 
HETATM   20  C1  UNL     1       4.208  32.513  24.757  1.00  0.00     0.126 C 
HETATM   21  O1  UNL     1       3.486  30.342  24.053  1.00  0.00    -0.266 OA
ENDBRANCH  18  19
ENDBRANCH  17  18
ENDBRANCH   1  17
BRANCH   7  22
HETATM   22  O4  UNL     1      -0.567  36.008  21.503  1.00  0.00    -0.395 OA
ATOM     23  H4  UNL     1      -0.255  35.498  20.764  1.00  0.00     0.210 HD
ENDBRANCH   7  22
TORSDOF 4
ENDMDL
MODEL 2
REMARK VINA RESULT: -7.212181092      2.201      3.795
REMARK  4 active torsions:
REMARK  status: ('A' for Active; 'I' for Inactive)
REMARK    1  A    between atoms: C2_2  and  O2_4 
REMARK    2  A    between atoms: O2_4  and  C3_5 
REMARK    3  A    between atoms: C3_5  and  C4_6 
REMARK    4  A    between atoms: C9_12  and  O4_13 
ROOT
HETATM    1  C4  UNL     1       3.324  35.678  24.880  1.00  0.00     0.006 C 
HETATM    2  C5  UNL     1       4.658  35.044  24.991  1.00  0.00     0.020 C 
HETATM    3  C6  UNL     1       3.189  36.712  26.042  1.00  0.00     0.179 C 
HETATM    4  O3  UNL     1       2.076  37.426  25.533  1.00  0.00    -0.384 OA
HETATM    5  C7  UNL     1       2.670  37.861  24.324  1.00  0.00     0.134 C 
HETATM    6  C8  UNL     1       1.759  38.637  23.478  1.00  0.00     0.056 C 
HETATM    7  C9  UNL     1       0.350  38.186  23.397  1.00  0.00     0.126 C 
HETATM    8  C10 UNL     1      -0.086  38.404  21.942  1.00  0.00     0.041 C 
HETATM    9  C11 UNL     1       1.005  39.281  21.389  1.00  0.00    -0.035 C 
HETATM   10  C12 UNL     1       0.857  40.703  21.855  1.00  0.00     0.015 C 
HETATM   11  C13 UNL     1       1.066  39.267  19.891  1.00  0.00     0.015 C 
HETATM   12  C14 UNL     1       2.231  38.701  22.044  1.00  0.00     0.072 C 
HETATM   13  C15 UNL     1       2.555  37.341  21.545  1.00  0.00     0.132 C 
HETATM   14  O5  UNL     1       2.732  37.212  20.352  1.00  0.00    -0.298 OA
HETATM   15  C16 UNL     1       2.662  36.156  22.475  1.00  0.00     0.086 C 
HETATM   16  C17 UNL     1       3.301  36.659  23.726  1.00  0.00     0.034 C 
ENDROOT
BRANCH   1  17
HETATM   17  C3  UNL     1       2.125  34.835  24.994  1.00  0.00     0.190 C 
BRANCH  17  18
HETATM   18  O2  UNL     1       1.890  34.039  26.078  1.00  0.00    -0.321 OA
BRANCH  18  19
HETATM   19  C2  UNL     1       1.105  32.977  26.308  1.00  0.00     0.254 C 
HETATM   20  C1  UNL     1       0.952  31.836  25.308  1.00  0.00     0.126 C 
HETATM   21  O1  UNL     1       0.470  32.915  27.389  1.00  0.00    -0.266 OA
ENDBRANCH  18  19
ENDBRANCH  17  18
ENDBRANCH   1  17
BRANCH   7  22
HETATM   22  O4  UNL     1      -0.475  38.992  24.215  1.00  0.00    -0.395 OA
ATOM     23  H4  UNL     1      -0.270  38.851  25.132  1.00  0.00     0.210 HD
ENDBRANCH   7  22
TORSDOF 4
ENDMDL
MODEL 3
REMARK VINA RESULT: -7.207922772      2.853      5.058
REMARK  4 active torsions:
REMARK  status: ('A' for Active; 'I' for Inactive)
REMARK    1  A    between atoms: C2_2  and  O2_4 
REMARK    2  A    between atoms: O2_4  and  C3_5 
REMARK    3  A    between atoms: C3_5  and  C4_6 
REMARK    4  A    between atoms: C9_12  and  O4_13 
ROOT
HETATM    1  C4  UNL     1       4.670  37.586  24.926  1.00  0.00     0.006 C 
HETATM    2  C5  UNL     1       5.298  38.884  24.583  1.00  0.00     0.020 C 
HETATM    3  C6  UNL     1       4.273  37.633  26.436  1.00  0.00     0.179 C 
HETATM    4  O3  UNL     1       3.395  36.521  26.436  1.00  0.00    -0.384 OA
HETATM    5  C7  UNL     1       2.465  37.016  25.491  1.00  0.00     0.134 C 
HETATM    6  C8  UNL     1       1.382  36.075  25.197  1.00  0.00     0.056 C 
HETATM    7  C9  UNL     1       1.733  34.640  25.087  1.00  0.00     0.126 C 
HETATM    8  C10 UNL     1       0.875  34.074  23.948  1.00  0.00     0.041 C 
HETATM    9  C11 UNL     1      -0.147  35.157  23.724  1.00  0.00    -0.035 C 
HETATM   10  C12 UNL     1      -1.204  35.144  24.793  1.00  0.00     0.015 C 
HETATM   11  C13 UNL     1      -0.813  35.067  22.384  1.00  0.00     0.015 C 
HETATM   12  C14 UNL     1       0.679  36.405  23.900  1.00  0.00     0.072 C 
HETATM   13  C15 UNL     1       1.668  36.592  22.810  1.00  0.00     0.132 C 
HETATM   14  O5  UNL     1       1.244  36.641  21.674  1.00  0.00    -0.298 OA
HETATM   15  C16 UNL     1       3.147  36.718  23.088  1.00  0.00     0.086 C 
HETATM   16  C17 UNL     1       3.272  37.509  24.348  1.00  0.00     0.034 C 
ENDROOT
BRANCH   1  17
HETATM   17  C3  UNL     1       5.461  36.355  24.789  1.00  0.00     0.190 C 
BRANCH  17  18
HETATM   18  O2  UNL     1       6.794  36.305  25.078  1.00  0.00    -0.321 OA
BRANCH  18  19
HETATM   19  C2  UNL     1       7.542  35.594  25.934  1.00  0.00     0.254 C 
HETATM   20  C1  UNL     1       7.509  35.824  27.441  1.00  0.00     0.126 C 
HETATM   21  O1  UNL     1       8.299  34.702  25.480  1.00  0.00    -0.266 OA
ENDBRANCH  18  19
ENDBRANCH  17  18
ENDBRANCH   1  17
BRANCH   7  22
HETATM   22  O4  UNL     1       1.378  33.952  26.271  1.00  0.00    -0.395 OA
ATOM     23  H4  UNL     1       0.754  33.262  26.079  1.00  0.00     0.210 HD
ENDBRANCH   7  22
TORSDOF 4
ENDMDL
MODEL 4
REMARK VINA RESULT: -7.192977510      2.894      6.169
REMARK  4 active torsions:
REMARK  status: ('A' for Active; 'I' for Inactive)
REMARK    1  A    between atoms: C2_2  and  O2_4 
REMARK    2  A    between atoms: O2_4  and  C3_5 
REMARK    3  A    between atoms: C3_5  and  C4_6 
REMARK    4  A    between atoms: C9_12  and  O4_13 
ROOT
HETATM    1  C4  UNL     1       1.772  37.454  24.638  1.00  0.00     0.006 C 
HETATM    2  C5  UNL     1       0.370  36.977  24.589  1.00  0.00     0.020 C 
HETATM    3  C6  UNL     1       1.873  38.526  25.768  1.00  0.00     0.179 C 
HETATM    4  O3  UNL     1       3.285  38.546  25.887  1.00  0.00    -0.384 OA
HETATM    5  C7  UNL     1       3.461  37.188  26.244  1.00  0.00     0.134 C 
HETATM    6  C8  UNL     1       4.866  36.815  26.424  1.00  0.00     0.056 C 
HETATM    7  C9  UNL     1       5.851  37.380  25.471  1.00  0.00     0.126 C 
HETATM    8  C10 UNL     1       6.869  36.265  25.195  1.00  0.00     0.041 C 
HETATM    9  C11 UNL     1       6.574  35.262  26.277  1.00  0.00    -0.035 C 
HETATM   10  C12 UNL     1       7.123  35.707  27.604  1.00  0.00     0.015 C 
HETATM   11  C13 UNL     1       7.104  33.894  25.969  1.00  0.00     0.015 C 
HETATM   12  C14 UNL     1       5.070  35.319  26.353  1.00  0.00     0.072 C 
HETATM   13  C15 UNL     1       4.418  34.765  25.141  1.00  0.00     0.132 C 
HETATM   14  O5  UNL     1       4.684  33.621  24.836  1.00  0.00    -0.298 OA
HETATM   15  C16 UNL     1       3.457  35.582  24.309  1.00  0.00     0.086 C 
HETATM   16  C17 UNL     1       2.664  36.404  25.269  1.00  0.00     0.034 C 
ENDROOT
BRANCH   1  17
HETATM   17  C3  UNL     1       2.341  38.111  23.452  1.00  0.00     0.190 C 
BRANCH  17  18
HETATM   18  O2  UNL     1       1.668  38.195  22.268  1.00  0.00    -0.321 OA
BRANCH  18  19
HETATM   19  C2  UNL     1       1.537  37.388  21.205  1.00  0.00     0.254 C 
HETATM   20  C1  UNL     1       2.696  37.068  20.268  1.00  0.00     0.126 C 
HETATM   21  O1  UNL     1       0.416  36.874  20.970  1.00  0.00    -0.266 OA
ENDBRANCH  18  19
ENDBRANCH  17  18
ENDBRANCH   1  17
BRANCH   7  22
HETATM   22  O4  UNL     1       6.548  38.458  26.063  1.00  0.00    -0.395 OA
ATOM     23  H4  UNL     1       7.031  38.943  25.404  1.00  0.00     0.210 HD
ENDBRANCH   7  22
TORSDOF 4
ENDMDL
MODEL 5
REMARK VINA RESULT: -7.168235787      3.093      6.661
REMARK  4 active torsions:
REMARK  status: ('A' for Active; 'I' for Inactive)
REMARK    1  A    between atoms: C2_2  and  O2_4 
REMARK    2  A    between atoms: O2_4  and  C3_5 
REMARK    3  A    between atoms: C3_5  and  C4_6 
REMARK    4  A    between atoms: C9_12  and  O4_13 
ROOT
HETATM    1  C4  UNL     1       1.803  37.664  24.609  1.00  0.00     0.006 C 
HETATM    2  C5  UNL     1       0.393  37.215  24.532  1.00  0.00     0.020 C 
HETATM    3  C6  UNL     1       1.910  38.705  25.768  1.00  0.00     0.179 C 
HETATM    4  O3  UNL     1       3.320  38.694  25.904  1.00  0.00    -0.384 OA
HETATM    5  C7  UNL     1       3.466  37.324  26.228  1.00  0.00     0.134 C 
HETATM    6  C8  UNL     1       4.862  36.919  26.415  1.00  0.00     0.056 C 
HETATM    7  C9  UNL     1       5.869  37.489  25.489  1.00  0.00     0.126 C 
HETATM    8  C10 UNL     1       6.868  36.362  25.196  1.00  0.00     0.041 C 
HETATM    9  C11 UNL     1       6.541  35.337  26.249  1.00  0.00    -0.035 C 
HETATM   10  C12 UNL     1       7.082  35.738  27.593  1.00  0.00     0.015 C 
HETATM   11  C13 UNL     1       7.048  33.968  25.912  1.00  0.00     0.015 C 
HETATM   12  C14 UNL     1       5.038  35.422  26.308  1.00  0.00     0.072 C 
HETATM   13  C15 UNL     1       4.390  34.912  25.075  1.00  0.00     0.132 C 
HETATM   14  O5  UNL     1       4.638  33.771  24.744  1.00  0.00    -0.298 OA
HETATM   15  C16 UNL     1       3.455  35.768  24.253  1.00  0.00     0.086 C 
HETATM   16  C17 UNL     1       2.666  36.582  25.224  1.00  0.00     0.034 C 
ENDROOT
BRANCH   1  17
HETATM   17  C3  UNL     1       2.399  38.340  23.448  1.00  0.00     0.190 C 
BRANCH  17  18
HETATM   18  O2  UNL     1       1.683  38.629  22.322  1.00  0.00    -0.321 OA
BRANCH  18  19
HETATM   19  C2  UNL     1       1.081  39.731  21.852  1.00  0.00     0.254 C 
HETATM   20  C1  UNL     1      -0.208  40.283  22.450  1.00  0.00     0.126 C 
HETATM   21  O1  UNL     1       1.598  40.335  20.880  1.00  0.00    -0.266 OA
ENDBRANCH  18  19
ENDBRANCH  17  18
ENDBRANCH   1  17
BRANCH   7  22
HETATM   22  O4  UNL     1       6.579  38.538  26.117  1.00  0.00    -0.395 OA
ATOM     23  H4  UNL     1       6.442  38.515  27.056  1.00  0.00     0.210 HD
ENDBRANCH   7  22
TORSDOF 4
ENDMDL
