MODEL 1
REMARK VINA RESULT: -9.438157212      0.000      0.000
REMARK  16 active torsions:
REMARK  status: ('A' for Active; 'I' for Inactive)
REMARK    1  A    between atoms: O1_2  and  C2_3 
REMARK    2  A    between atoms: C2_3  and  C3_4 
REMARK    3  A    between atoms: C3_4  and  N1_5 
REMARK    4  A    between atoms: N1_5  and  C4_7 
REMARK    5  A    between atoms: C5_10  and  N3_11 
REMARK    6  A    between atoms: N3_11  and  C6_13 
REMARK    7  A    between atoms: C6_13  and  C7_14 
REMARK    8  A    between atoms: C7_14  and  N4_15 
REMARK    9  A    between atoms: N4_15  and  C8_16 
REMARK   10  A    between atoms: C8_16  and  C9_17 
REMARK   11  A    between atoms: C9_17  and  O2_18 
REMARK   12  A    between atoms: O2_18  and  C10_19 
REMARK   13  A    between atoms: C10_19  and  C11_20 
REMARK   14  A    between atoms: C11_20  and  C12_22 
REMARK   15  A    between atoms: C20_35  and  N6_36 
REMARK   16  A    between atoms: N6_36  and  C21_38 
ROOT
HETATM    1  C4  UNL     1      21.650  28.656  13.711  1.00  0.00     0.707 A 
HETATM    2  N2  UNL     1      21.478  29.291  14.907  1.00  0.00    -0.022 N 
ATOM      3  H2  UNL     1      22.265  29.772  15.342  1.00  0.00     0.203 HD
HETATM    4  C5  UNL     1      20.293  29.287  15.508  1.00  0.00     0.707 A 
HETATM    5  N5  UNL     1      19.256  28.647  14.930  1.00  0.00    -0.021 N 
ATOM      6  H5  UNL     1      18.349  28.645  15.397  1.00  0.00     0.203 HD
HETATM    7  C20 UNL     1      19.390  28.012  13.756  1.00  0.00     0.711 A 
HETATM    8  N7  UNL     1      20.600  28.038  13.178  1.00  0.00    -0.021 N 
ATOM      9  H7  UNL     1      20.721  27.560  12.285  1.00  0.00     0.203 HD
ENDROOT
BRANCH   4  10
HETATM   10  N3  UNL     1      20.097  29.864  16.619  1.00  0.00    -0.223 N 
ATOM     11  H3  UNL     1      19.929  29.283  17.441  1.00  0.00     0.177 HD
BRANCH  10  12
HETATM   12  C6  UNL     1      20.097  31.303  16.784  1.00  0.00     0.166 C 
BRANCH  12  13
HETATM   13  C7  UNL     1      18.658  31.732  16.766  1.00  0.00     0.257 C 
BRANCH  13  14
HETATM   14  N4  UNL     1      18.389  32.866  15.884  1.00  0.00    -0.063 N 
HETATM   15  C13 UNL     1      17.324  32.487  14.994  1.00  0.00     0.237 C 
HETATM   16  C14 UNL     1      16.087  32.068  15.738  1.00  0.00     0.029 C 
HETATM   17  C15 UNL     1      15.608  33.220  16.567  1.00  0.00     0.012 C 
HETATM   18  C16 UNL     1      16.585  34.278  16.862  1.00  0.00    -0.023 C 
HETATM   19  C17 UNL     1      16.335  34.714  18.320  1.00  0.00     0.016 C 
HETATM   20  C18 UNL     1      16.235  35.538  16.052  1.00  0.00     0.016 C 
HETATM   21  C19 UNL     1      18.027  33.969  16.708  1.00  0.00     0.246 C 
BRANCH  14  22
HETATM   22  C8  UNL     1      19.609  33.035  15.135  1.00  0.00     0.263 C 
BRANCH  22  23
HETATM   23  C9  UNL     1      19.655  32.472  13.771  1.00  0.00     0.196 C 
BRANCH  23  24
HETATM   24  O2  UNL     1      20.941  32.089  13.364  1.00  0.00    -0.382 OA
BRANCH  24  25
HETATM   25  C10 UNL     1      21.834  33.039  13.829  1.00  0.00     0.255 C 
BRANCH  25  26
HETATM   26  C11 UNL     1      22.962  32.410  14.567  1.00  0.00     0.255 C 
HETATM   27  O3  UNL     1      23.540  31.402  14.223  1.00  0.00    -0.286 OA
BRANCH  26  28
HETATM   28  C12 UNL     1      23.405  33.080  15.826  1.00  0.00     0.453 C 
HETATM   29  F1  UNL     1      22.695  34.269  16.010  1.00  0.00    -0.163 F 
HETATM   30  F2  UNL     1      24.737  33.407  15.718  1.00  0.00    -0.163 F 
HETATM   31  F3  UNL     1      23.151  32.288  16.933  1.00  0.00    -0.163 F 
ENDBRANCH  26  28
ENDBRANCH  25  26
ENDBRANCH  24  25
ENDBRANCH  23  24
ENDBRANCH  22  23
ENDBRANCH  14  22
ENDBRANCH  13  14
ENDBRANCH  12  13
ENDBRANCH  10  12
ENDBRANCH   4  10
BRANCH   1  32
HETATM   32  N1  UNL     1      22.803  28.684  13.156  1.00  0.00    -0.223 N 
ATOM     33  H1  UNL     1      23.490  29.363  13.485  1.00  0.00     0.177 HD
BRANCH  32  34
HETATM   34  C3  UNL     1      23.168  27.792  12.082  1.00  0.00     0.164 C 
BRANCH  34  35
HETATM   35  C2  UNL     1      24.591  27.275  12.262  1.00  0.00     0.187 C 
BRANCH  35  36
HETATM   36  O1  UNL     1      24.730  25.960  11.899  1.00  0.00    -0.394 OA
HETATM   37  C1  UNL     1      24.016  25.602  10.766  1.00  0.00     0.201 C 
ENDBRANCH  35  36
ENDBRANCH  34  35
ENDBRANCH  32  34
ENDBRANCH   1  32
BRANCH   7  38
HETATM   38  N6  UNL     1      18.358  27.423  13.261  1.00  0.00    -0.190 N 
ATOM     39  H6  UNL     1      17.636  27.101  13.904  1.00  0.00     0.184 HD
BRANCH  38  40
HETATM   40  C21 UNL     1      18.164  27.196  11.879  1.00  0.00     0.061 A 
HETATM   41  C22 UNL     1      17.758  28.274  11.119  1.00  0.00    -0.034 A 
HETATM   42  C23 UNL     1      17.537  29.610  11.744  1.00  0.00     0.050 C 
HETATM   43  C24 UNL     1      17.566  28.065   9.768  1.00  0.00     0.009 A 
HETATM   44  C25 UNL     1      17.780  26.812   9.228  1.00  0.00     0.001 A 
HETATM   45  C26 UNL     1      18.188  25.753  10.026  1.00  0.00     0.009 A 
HETATM   46  C27 UNL     1      18.382  25.949  11.369  1.00  0.00    -0.034 A 
HETATM   47  C28 UNL     1      18.819  24.791  12.195  1.00  0.00     0.050 C 
ENDBRANCH  38  40
ENDBRANCH   7  38
TORSDOF 16
ENDMDL
MODEL 2
REMARK VINA RESULT: -9.379274491      0.102      1.467
REMARK  16 active torsions:
REMARK  status: ('A' for Active; 'I' for Inactive)
REMARK    1  A    between atoms: O1_2  and  C2_3 
REMARK    2  A    between atoms: C2_3  and  C3_4 
REMARK    3  A    between atoms: C3_4  and  N1_5 
REMARK    4  A    between atoms: N1_5  and  C4_7 
REMARK    5  A    between atoms: C5_10  and  N3_11 
REMARK    6  A    between atoms: N3_11  and  C6_13 
REMARK    7  A    between atoms: C6_13  and  C7_14 
REMARK    8  A    between atoms: C7_14  and  N4_15 
REMARK    9  A    between atoms: N4_15  and  C8_16 
REMARK   10  A    between atoms: C8_16  and  C9_17 
REMARK   11  A    between atoms: C9_17  and  O2_18 
REMARK   12  A    between atoms: O2_18  and  C10_19 
REMARK   13  A    between atoms: C10_19  and  C11_20 
REMARK   14  A    between atoms: C11_20  and  C12_22 
REMARK   15  A    between atoms: C20_35  and  N6_36 
REMARK   16  A    between atoms: N6_36  and  C21_38 
ROOT
HETATM    1  C4  UNL     1      21.682  28.709  13.689  1.00  0.00     0.707 A 
HETATM    2  N2  UNL     1      21.500  29.348  14.882  1.00  0.00    -0.022 N 
ATOM      3  H2  UNL     1      22.274  29.861  15.304  1.00  0.00     0.203 HD
HETATM    4  C5  UNL     1      20.323  29.305  15.496  1.00  0.00     0.707 A 
HETATM    5  N5  UNL     1      19.303  28.623  14.935  1.00  0.00    -0.021 N 
ATOM      6  H5  UNL     1      18.402  28.592  15.412  1.00  0.00     0.203 HD
HETATM    7  C20 UNL     1      19.448  27.983  13.764  1.00  0.00     0.711 A 
HETATM    8  N7  UNL     1      20.650  28.049  13.173  1.00  0.00    -0.021 N 
ATOM      9  H7  UNL     1      20.779  27.568  12.283  1.00  0.00     0.203 HD
ENDROOT
BRANCH   4  10
HETATM   10  N3  UNL     1      20.117  29.884  16.605  1.00  0.00    -0.223 N 
ATOM     11  H3  UNL     1      19.936  29.305  17.425  1.00  0.00     0.177 HD
BRANCH  10  12
HETATM   12  C6  UNL     1      20.125  31.323  16.770  1.00  0.00     0.166 C 
BRANCH  12  13
HETATM   13  C7  UNL     1      18.689  31.759  16.760  1.00  0.00     0.257 C 
BRANCH  13  14
HETATM   14  N4  UNL     1      18.419  32.890  15.874  1.00  0.00    -0.063 N 
HETATM   15  C13 UNL     1      17.367  32.500  14.972  1.00  0.00     0.237 C 
HETATM   16  C14 UNL     1      16.126  32.069  15.702  1.00  0.00     0.029 C 
HETATM   17  C15 UNL     1      15.626  33.216  16.525  1.00  0.00     0.012 C 
HETATM   18  C16 UNL     1      16.590  34.284  16.831  1.00  0.00    -0.023 C 
HETATM   19  C17 UNL     1      16.318  34.718  18.285  1.00  0.00     0.016 C 
HETATM   20  C18 UNL     1      16.236  35.540  16.016  1.00  0.00     0.016 C 
HETATM   21  C19 UNL     1      18.036  33.990  16.693  1.00  0.00     0.246 C 
BRANCH  14  22
HETATM   22  C8  UNL     1      19.646  33.071  15.140  1.00  0.00     0.263 C 
BRANCH  22  23
HETATM   23  C9  UNL     1      19.699  32.542  13.762  1.00  0.00     0.196 C 
BRANCH  23  24
HETATM   24  O2  UNL     1      21.003  32.341  13.287  1.00  0.00    -0.382 OA
BRANCH  24  25
HETATM   25  C10 UNL     1      21.833  33.241  13.932  1.00  0.00     0.255 C 
BRANCH  25  26
HETATM   26  C11 UNL     1      22.971  32.551  14.598  1.00  0.00     0.255 C 
HETATM   27  O3  UNL     1      23.496  31.535  14.198  1.00  0.00    -0.286 OA
BRANCH  26  28
HETATM   28  C12 UNL     1      23.494  33.165  15.854  1.00  0.00     0.453 C 
HETATM   29  F1  UNL     1      23.183  32.355  16.949  1.00  0.00    -0.163 F 
HETATM   30  F2  UNL     1      22.877  34.380  16.052  1.00  0.00    -0.163 F 
HETATM   31  F3  UNL     1      24.873  33.280  15.821  1.00  0.00    -0.163 F 
ENDBRANCH  26  28
ENDBRANCH  25  26
ENDBRANCH  24  25
ENDBRANCH  23  24
ENDBRANCH  22  23
ENDBRANCH  14  22
ENDBRANCH  13  14
ENDBRANCH  12  13
ENDBRANCH  10  12
ENDBRANCH   4  10
BRANCH   1  32
HETATM   32  N1  UNL     1      22.827  28.775  13.121  1.00  0.00    -0.223 N 
ATOM     33  H1  UNL     1      23.496  29.474  13.444  1.00  0.00     0.177 HD
BRANCH  32  34
HETATM   34  C3  UNL     1      23.207  27.897  12.040  1.00  0.00     0.164 C 
BRANCH  34  35
HETATM   35  C2  UNL     1      24.620  27.359  12.245  1.00  0.00     0.187 C 
BRANCH  35  36
HETATM   36  O1  UNL     1      24.727  26.023  11.957  1.00  0.00    -0.394 OA
HETATM   37  C1  UNL     1      24.059  25.631  10.808  1.00  0.00     0.201 C 
ENDBRANCH  35  36
ENDBRANCH  34  35
ENDBRANCH  32  34
ENDBRANCH   1  32
BRANCH   7  38
HETATM   38  N6  UNL     1      18.432  27.353  13.286  1.00  0.00    -0.190 N 
ATOM     39  H6  UNL     1      17.774  26.936  13.943  1.00  0.00     0.184 HD
BRANCH  38  40
HETATM   40  C21 UNL     1      18.174  27.204  11.904  1.00  0.00     0.061 A 
HETATM   41  C22 UNL     1      18.386  25.953  11.360  1.00  0.00    -0.034 A 
HETATM   42  C23 UNL     1      18.868  24.823  12.206  1.00  0.00     0.050 C 
HETATM   43  C24 UNL     1      18.136  25.794  10.012  1.00  0.00     0.009 A 
HETATM   44  C25 UNL     1      17.692  26.866   9.263  1.00  0.00     0.001 A 
HETATM   45  C26 UNL     1      17.492  28.108   9.847  1.00  0.00     0.009 A 
HETATM   46  C27 UNL     1      17.736  28.278  11.186  1.00  0.00    -0.034 A 
HETATM   47  C28 UNL     1      17.510  29.623  11.779  1.00  0.00     0.050 C 
ENDBRANCH  38  40
ENDBRANCH   7  38
TORSDOF 16
ENDMDL
MODEL 3
REMARK VINA RESULT: -9.114528449      1.108      1.507
REMARK  16 active torsions:
REMARK  status: ('A' for Active; 'I' for Inactive)
REMARK    1  A    between atoms: O1_2  and  C2_3 
REMARK    2  A    between atoms: C2_3  and  C3_4 
REMARK    3  A    between atoms: C3_4  and  N1_5 
REMARK    4  A    between atoms: N1_5  and  C4_7 
REMARK    5  A    between atoms: C5_10  and  N3_11 
REMARK    6  A    between atoms: N3_11  and  C6_13 
REMARK    7  A    between atoms: C6_13  and  C7_14 
REMARK    8  A    between atoms: C7_14  and  N4_15 
REMARK    9  A    between atoms: N4_15  and  C8_16 
REMARK   10  A    between atoms: C8_16  and  C9_17 
REMARK   11  A    between atoms: C9_17  and  O2_18 
REMARK   12  A    between atoms: O2_18  and  C10_19 
REMARK   13  A    between atoms: C10_19  and  C11_20 
REMARK   14  A    between atoms: C11_20  and  C12_22 
REMARK   15  A    between atoms: C20_35  and  N6_36 
REMARK   16  A    between atoms: N6_36  and  C21_38 
ROOT
HETATM    1  C4  UNL     1      21.643  28.605  13.631  1.00  0.00     0.707 A 
HETATM    2  N2  UNL     1      21.489  29.185  14.857  1.00  0.00    -0.022 N 
ATOM      3  H2  UNL     1      22.282  29.645  15.303  1.00  0.00     0.203 HD
HETATM    4  C5  UNL     1      20.312  29.152  15.474  1.00  0.00     0.707 A 
HETATM    5  N5  UNL     1      19.266  28.540  14.882  1.00  0.00    -0.021 N 
ATOM      6  H5  UNL     1      18.366  28.516  15.361  1.00  0.00     0.203 HD
HETATM    7  C20 UNL     1      19.383  27.960  13.678  1.00  0.00     0.711 A 
HETATM    8  N7  UNL     1      20.585  28.013  13.084  1.00  0.00    -0.021 N 
ATOM      9  H7  UNL     1      20.693  27.577  12.169  1.00  0.00     0.203 HD
ENDROOT
BRANCH   4  10
HETATM   10  N3  UNL     1      20.132  29.677  16.614  1.00  0.00    -0.223 N 
ATOM     11  H3  UNL     1      19.871  29.068  17.389  1.00  0.00     0.177 HD
BRANCH  10  12
HETATM   12  C6  UNL     1      20.275  31.095  16.873  1.00  0.00     0.166 C 
BRANCH  12  13
HETATM   13  C7  UNL     1      18.884  31.653  16.957  1.00  0.00     0.257 C 
BRANCH  13  14
HETATM   14  N4  UNL     1      18.768  33.030  16.479  1.00  0.00    -0.063 N 
HETATM   15  C13 UNL     1      18.722  32.991  15.041  1.00  0.00     0.237 C 
HETATM   16  C14 UNL     1      17.593  32.140  14.533  1.00  0.00     0.029 C 
HETATM   17  C15 UNL     1      16.298  32.712  15.022  1.00  0.00     0.012 C 
HETATM   18  C16 UNL     1      16.366  33.613  16.182  1.00  0.00    -0.023 C 
HETATM   19  C17 UNL     1      15.141  33.291  17.063  1.00  0.00     0.016 C 
HETATM   20  C18 UNL     1      16.099  35.057  15.724  1.00  0.00     0.016 C 
HETATM   21  C19 UNL     1      17.577  33.575  17.035  1.00  0.00     0.246 C 
BRANCH  14  22
HETATM   22  C8  UNL     1      19.990  33.662  16.908  1.00  0.00     0.263 C 
BRANCH  22  23
HETATM   23  C9  UNL     1      20.180  35.084  16.559  1.00  0.00     0.196 C 
BRANCH  23  24
HETATM   24  O2  UNL     1      21.354  35.333  15.834  1.00  0.00    -0.382 OA
BRANCH  24  25
HETATM   25  C10 UNL     1      22.262  34.335  16.139  1.00  0.00     0.255 C 
BRANCH  25  26
HETATM   26  C11 UNL     1      22.628  33.544  14.933  1.00  0.00     0.255 C 
HETATM   27  O3  UNL     1      22.190  33.735  13.820  1.00  0.00    -0.286 OA
BRANCH  26  28
HETATM   28  C12 UNL     1      23.607  32.433  15.123  1.00  0.00     0.453 C 
HETATM   29  F1  UNL     1      23.630  31.616  13.990  1.00  0.00    -0.163 F 
HETATM   30  F2  UNL     1      23.206  31.655  16.185  1.00  0.00    -0.163 F 
HETATM   31  F3  UNL     1      24.893  32.920  15.290  1.00  0.00    -0.163 F 
ENDBRANCH  26  28
ENDBRANCH  25  26
ENDBRANCH  24  25
ENDBRANCH  23  24
ENDBRANCH  22  23
ENDBRANCH  14  22
ENDBRANCH  13  14
ENDBRANCH  12  13
ENDBRANCH  10  12
ENDBRANCH   4  10
BRANCH   1  32
HETATM   32  N1  UNL     1      22.788  28.660  13.061  1.00  0.00    -0.223 N 
ATOM     33  H1  UNL     1      23.478  29.325  13.410  1.00  0.00     0.177 HD
BRANCH  32  34
HETATM   34  C3  UNL     1      23.138  27.815  11.944  1.00  0.00     0.164 C 
BRANCH  34  35
HETATM   35  C2  UNL     1      24.524  27.208  12.133  1.00  0.00     0.187 C 
BRANCH  35  36
HETATM   36  O1  UNL     1      24.559  25.866  11.856  1.00  0.00    -0.394 OA
HETATM   37  C1  UNL     1      23.939  25.511  10.669  1.00  0.00     0.201 C 
ENDBRANCH  35  36
ENDBRANCH  34  35
ENDBRANCH  32  34
ENDBRANCH   1  32
BRANCH   7  38
HETATM   38  N6  UNL     1      18.344  27.395  13.170  1.00  0.00    -0.190 N 
ATOM     39  H6  UNL     1      17.602  27.100  13.805  1.00  0.00     0.184 HD
BRANCH  38  40
HETATM   40  C21 UNL     1      18.168  27.158  11.788  1.00  0.00     0.061 A 
HETATM   41  C22 UNL     1      17.723  28.218  11.024  1.00  0.00    -0.034 A 
HETATM   42  C23 UNL     1      17.445  29.545  11.646  1.00  0.00     0.050 C 
HETATM   43  C24 UNL     1      17.548  27.999   9.672  1.00  0.00     0.009 A 
HETATM   44  C25 UNL     1      17.816  26.756   9.135  1.00  0.00     0.001 A 
HETATM   45  C26 UNL     1      18.261  25.715   9.937  1.00  0.00     0.009 A 
HETATM   46  C27 UNL     1      18.439  25.920  11.282  1.00  0.00    -0.034 A 
HETATM   47  C28 UNL     1      18.918  24.782  12.112  1.00  0.00     0.050 C 
ENDBRANCH  38  40
ENDBRANCH   7  38
TORSDOF 16
ENDMDL
MODEL 4
REMARK VINA RESULT: -8.916263577      2.503      3.153
REMARK  16 active torsions:
REMARK  status: ('A' for Active; 'I' for Inactive)
REMARK    1  A    between atoms: O1_2  and  C2_3 
REMARK    2  A    between atoms: C2_3  and  C3_4 
REMARK    3  A    between atoms: C3_4  and  N1_5 
REMARK    4  A    between atoms: N1_5  and  C4_7 
REMARK    5  A    between atoms: C5_10  and  N3_11 
REMARK    6  A    between atoms: N3_11  and  C6_13 
REMARK    7  A    between atoms: C6_13  and  C7_14 
REMARK    8  A    between atoms: C7_14  and  N4_15 
REMARK    9  A    between atoms: N4_15  and  C8_16 
REMARK   10  A    between atoms: C8_16  and  C9_17 
REMARK   11  A    between atoms: C9_17  and  O2_18 
REMARK   12  A    between atoms: O2_18  and  C10_19 
REMARK   13  A    between atoms: C10_19  and  C11_20 
REMARK   14  A    between atoms: C11_20  and  C12_22 
REMARK   15  A    between atoms: C20_35  and  N6_36 
REMARK   16  A    between atoms: N6_36  and  C21_38 
ROOT
HETATM    1  C4  UNL     1      21.692  28.601  13.623  1.00  0.00     0.707 A 
HETATM    2  N2  UNL     1      21.547  29.227  14.827  1.00  0.00    -0.022 N 
ATOM      3  H2  UNL     1      22.346  29.695  15.254  1.00  0.00     0.203 HD
HETATM    4  C5  UNL     1      20.372  29.230  15.447  1.00  0.00     0.707 A 
HETATM    5  N5  UNL     1      19.318  28.607  14.880  1.00  0.00    -0.021 N 
ATOM      6  H5  UNL     1      18.418  28.611  15.360  1.00  0.00     0.203 HD
HETATM    7  C20 UNL     1      19.426  27.982  13.697  1.00  0.00     0.711 A 
HETATM    8  N7  UNL     1      20.627  28.001  13.100  1.00  0.00    -0.021 N 
ATOM      9  H7  UNL     1      20.729  27.530  12.201  1.00  0.00     0.203 HD
ENDROOT
BRANCH   4  10
HETATM   10  N3  UNL     1      20.199  29.798  16.567  1.00  0.00    -0.223 N 
ATOM     11  H3  UNL     1      19.881  29.229  17.352  1.00  0.00     0.177 HD
BRANCH  10  12
HETATM   12  C6  UNL     1      20.429  31.210  16.791  1.00  0.00     0.166 C 
BRANCH  12  13
HETATM   13  C7  UNL     1      19.074  31.851  16.877  1.00  0.00     0.257 C 
BRANCH  13  14
HETATM   14  N4  UNL     1      18.945  33.073  16.085  1.00  0.00    -0.063 N 
HETATM   15  C13 UNL     1      18.530  32.695  14.760  1.00  0.00     0.237 C 
HETATM   16  C14 UNL     1      17.246  31.913  14.770  1.00  0.00     0.029 C 
HETATM   17  C15 UNL     1      16.167  32.762  15.367  1.00  0.00     0.012 C 
HETATM   18  C16 UNL     1      16.598  33.899  16.195  1.00  0.00    -0.023 C 
HETATM   19  C17 UNL     1      15.618  33.974  17.384  1.00  0.00     0.016 C 
HETATM   20  C18 UNL     1      16.334  35.212  15.438  1.00  0.00     0.016 C 
HETATM   21  C19 UNL     1      17.980  33.898  16.729  1.00  0.00     0.246 C 
BRANCH  14  22
HETATM   22  C8  UNL     1      20.281  33.613  16.039  1.00  0.00     0.263 C 
BRANCH  22  23
HETATM   23  C9  UNL     1      20.444  35.052  16.327  1.00  0.00     0.196 C 
BRANCH  23  24
HETATM   24  O2  UNL     1      21.181  35.313  17.491  1.00  0.00    -0.382 OA
BRANCH  24  25
HETATM   25  C10 UNL     1      20.708  36.493  18.038  1.00  0.00     0.255 C 
BRANCH  25  26
HETATM   26  C11 UNL     1      19.630  36.239  19.031  1.00  0.00     0.255 C 
HETATM   27  O3  UNL     1      19.717  35.480  19.971  1.00  0.00    -0.286 OA
BRANCH  26  28
HETATM   28  C12 UNL     1      18.348  36.981  18.841  1.00  0.00     0.453 C 
HETATM   29  F1  UNL     1      18.089  37.149  17.479  1.00  0.00    -0.163 F 
HETATM   30  F2  UNL     1      18.466  38.234  19.396  1.00  0.00    -0.163 F 
HETATM   31  F3  UNL     1      17.277  36.276  19.367  1.00  0.00    -0.163 F 
ENDBRANCH  26  28
ENDBRANCH  25  26
ENDBRANCH  24  25
ENDBRANCH  23  24
ENDBRANCH  22  23
ENDBRANCH  14  22
ENDBRANCH  13  14
ENDBRANCH  12  13
ENDBRANCH  10  12
ENDBRANCH   4  10
BRANCH   1  32
HETATM   32  N1  UNL     1      22.837  28.623  13.049  1.00  0.00    -0.223 N 
ATOM     33  H1  UNL     1      23.548  29.266  13.396  1.00  0.00     0.177 HD
BRANCH  32  34
HETATM   34  C3  UNL     1      23.158  27.770  11.930  1.00  0.00     0.164 C 
BRANCH  34  35
HETATM   35  C2  UNL     1      24.555  27.176  12.080  1.00  0.00     0.187 C 
BRANCH  35  36
HETATM   36  O1  UNL     1      24.596  25.835  11.798  1.00  0.00    -0.394 OA
HETATM   37  C1  UNL     1      23.920  25.474  10.643  1.00  0.00     0.201 C 
ENDBRANCH  35  36
ENDBRANCH  34  35
ENDBRANCH  32  34
ENDBRANCH   1  32
BRANCH   7  38
HETATM   38  N6  UNL     1      18.380  27.410  13.213  1.00  0.00    -0.190 N 
ATOM     39  H6  UNL     1      17.656  27.105  13.864  1.00  0.00     0.184 HD
BRANCH  38  40
HETATM   40  C21 UNL     1      18.172  27.177  11.834  1.00  0.00     0.061 A 
HETATM   41  C22 UNL     1      17.750  28.250  11.076  1.00  0.00    -0.034 A 
HETATM   42  C23 UNL     1      17.525  29.586  11.700  1.00  0.00     0.050 C 
HETATM   43  C24 UNL     1      17.544  28.035   9.727  1.00  0.00     0.009 A 
HETATM   44  C25 UNL     1      17.762  26.783   9.189  1.00  0.00     0.001 A 
HETATM   45  C26 UNL     1      18.187  25.729   9.985  1.00  0.00     0.009 A 
HETATM   46  C27 UNL     1      18.395  25.931  11.325  1.00  0.00    -0.034 A 
HETATM   47  C28 UNL     1      18.850  24.779  12.149  1.00  0.00     0.050 C 
ENDBRANCH  38  40
ENDBRANCH   7  38
TORSDOF 16
ENDMDL
MODEL 5
REMARK VINA RESULT: -8.742465740      2.851      4.177
REMARK  16 active torsions:
REMARK  status: ('A' for Active; 'I' for Inactive)
REMARK    1  A    between atoms: O1_2  and  C2_3 
REMARK    2  A    between atoms: C2_3  and  C3_4 
REMARK    3  A    between atoms: C3_4  and  N1_5 
REMARK    4  A    between atoms: N1_5  and  C4_7 
REMARK    5  A    between atoms: C5_10  and  N3_11 
REMARK    6  A    between atoms: N3_11  and  C6_13 
REMARK    7  A    between atoms: C6_13  and  C7_14 
REMARK    8  A    between atoms: C7_14  and  N4_15 
REMARK    9  A    between atoms: N4_15  and  C8_16 
REMARK   10  A    between atoms: C8_16  and  C9_17 
REMARK   11  A    between atoms: C9_17  and  O2_18 
REMARK   12  A    between atoms: O2_18  and  C10_19 
REMARK   13  A    between atoms: C10_19  and  C11_20 
REMARK   14  A    between atoms: C11_20  and  C12_22 
REMARK   15  A    between atoms: C20_35  and  N6_36 
REMARK   16  A    between atoms: N6_36  and  C21_38 
ROOT
HETATM    1  C4  UNL     1      21.634  28.687  13.648  1.00  0.00     0.707 A 
HETATM    2  N2  UNL     1      21.520  29.232  14.894  1.00  0.00    -0.022 N 
ATOM      3  H2  UNL     1      22.323  29.693  15.321  1.00  0.00     0.203 HD
HETATM    4  C5  UNL     1      20.369  29.166  15.555  1.00  0.00     0.707 A 
HETATM    5  N5  UNL     1      19.309  28.554  14.989  1.00  0.00    -0.021 N 
ATOM      6  H5  UNL     1      18.429  28.505  15.501  1.00  0.00     0.203 HD
HETATM    7  C20 UNL     1      19.387  28.007  13.765  1.00  0.00     0.711 A 
HETATM    8  N7  UNL     1      20.564  28.093  13.128  1.00  0.00    -0.021 N 
ATOM      9  H7  UNL     1      20.642  27.683  12.197  1.00  0.00     0.203 HD
ENDROOT
BRANCH   4  10
HETATM   10  N3  UNL     1      20.226  29.659  16.715  1.00  0.00    -0.223 N 
ATOM     11  H3  UNL     1      20.585  29.131  17.510  1.00  0.00     0.177 HD
BRANCH  10  12
HETATM   12  C6  UNL     1      19.579  30.930  16.970  1.00  0.00     0.166 C 
BRANCH  12  13
HETATM   13  C7  UNL     1      20.613  31.989  16.717  1.00  0.00     0.257 C 
BRANCH  13  14
HETATM   14  N4  UNL     1      20.052  33.313  16.452  1.00  0.00    -0.063 N 
HETATM   15  C13 UNL     1      20.728  33.853  15.303  1.00  0.00     0.237 C 
HETATM   16  C14 UNL     1      20.605  32.959  14.101  1.00  0.00     0.029 C 
HETATM   17  C15 UNL     1      19.156  32.808  13.756  1.00  0.00     0.012 C 
HETATM   18  C16 UNL     1      18.185  33.120  14.816  1.00  0.00    -0.023 C 
HETATM   19  C17 UNL     1      17.057  32.073  14.702  1.00  0.00     0.016 C 
HETATM   20  C18 UNL     1      17.472  34.442  14.484  1.00  0.00     0.016 C 
HETATM   21  C19 UNL     1      18.657  33.146  16.220  1.00  0.00     0.246 C 
BRANCH  14  22
HETATM   22  C8  UNL     1      20.391  34.085  17.622  1.00  0.00     0.263 C 
BRANCH  22  23
HETATM   23  C9  UNL     1      19.543  35.252  17.936  1.00  0.00     0.196 C 
BRANCH  23  24
HETATM   24  O2  UNL     1      18.590  35.003  18.934  1.00  0.00    -0.382 OA
BRANCH  24  25
HETATM   25  C10 UNL     1      17.639  36.006  18.874  1.00  0.00     0.255 C 
BRANCH  25  26
HETATM   26  C11 UNL     1      16.303  35.468  18.500  1.00  0.00     0.255 C 
HETATM   27  O3  UNL     1      15.769  34.515  19.022  1.00  0.00    -0.286 OA
BRANCH  26  28
HETATM   28  C12 UNL     1      15.579  36.163  17.395  1.00  0.00     0.453 C 
HETATM   29  F1  UNL     1      14.674  37.087  17.923  1.00  0.00    -0.163 F 
HETATM   30  F2  UNL     1      14.853  35.238  16.679  1.00  0.00    -0.163 F 
HETATM   31  F3  UNL     1      16.453  36.875  16.590  1.00  0.00    -0.163 F 
ENDBRANCH  26  28
ENDBRANCH  25  26
ENDBRANCH  24  25
ENDBRANCH  23  24
ENDBRANCH  22  23
ENDBRANCH  14  22
ENDBRANCH  13  14
ENDBRANCH  12  13
ENDBRANCH  10  12
ENDBRANCH   4  10
BRANCH   1  32
HETATM   32  N1  UNL     1      22.755  28.774  13.036  1.00  0.00    -0.223 N 
ATOM     33  H1  UNL     1      23.491  29.352  13.440  1.00  0.00     0.177 HD
BRANCH  32  34
HETATM   34  C3  UNL     1      23.015  28.083  11.796  1.00  0.00     0.164 C 
BRANCH  34  35
HETATM   35  C2  UNL     1      24.078  27.005  11.984  1.00  0.00     0.187 C 
BRANCH  35  36
HETATM   36  O1  UNL     1      23.647  25.761  11.603  1.00  0.00    -0.394 OA
HETATM   37  C1  UNL     1      22.347  25.729  11.124  1.00  0.00     0.201 C 
ENDBRANCH  35  36
ENDBRANCH  34  35
ENDBRANCH  32  34
ENDBRANCH   1  32
BRANCH   7  38
HETATM   38  N6  UNL     1      18.337  27.440  13.284  1.00  0.00    -0.190 N 
ATOM     39  H6  UNL     1      17.616  27.134  13.938  1.00  0.00     0.184 HD
BRANCH  38  40
HETATM   40  C21 UNL     1      18.121  27.214  11.906  1.00  0.00     0.061 A 
HETATM   41  C22 UNL     1      17.680  28.288  11.158  1.00  0.00    -0.034 A 
HETATM   42  C23 UNL     1      17.446  29.616  11.793  1.00  0.00     0.050 C 
HETATM   43  C24 UNL     1      17.467  28.080   9.810  1.00  0.00     0.009 A 
HETATM   44  C25 UNL     1      17.694  26.834   9.261  1.00  0.00     0.001 A 
HETATM   45  C26 UNL     1      18.137  25.780  10.046  1.00  0.00     0.009 A 
HETATM   46  C27 UNL     1      18.353  25.974  11.387  1.00  0.00    -0.034 A 
HETATM   47  C28 UNL     1      18.828  24.822  12.199  1.00  0.00     0.050 C 
ENDBRANCH  38  40
ENDBRANCH   7  38
TORSDOF 16
ENDMDL
