MODEL 1
REMARK VINA RESULT: -8.675169907      0.000      0.000
REMARK  14 active torsions:
REMARK  status: ('A' for Active; 'I' for Inactive)
REMARK    1  A    between atoms: O1_2  and  C2_3 
REMARK       I    between atoms: N1_5  and  C4_6 
REMARK    2  A    between atoms: C4_6  and  C5_8 
REMARK    3  A    between atoms: C5_8  and  C6_9 
REMARK    4  A    between atoms: C6_9  and  C7_10 
REMARK    5  A    between atoms: C6_9  and  N2_14 
REMARK    6  A    between atoms: C7_10  and  C8_11 
REMARK    7  A    between atoms: N2_14  and  C9_16 
REMARK    8  A    between atoms: C9_16  and  C10_17 
REMARK    9  A    between atoms: C9_16  and  C23_32 
REMARK   10  A    between atoms: C10_17  and  C11_18 
REMARK   11  A    between atoms: C10_17  and  N3_25 
REMARK   12  A    between atoms: C11_18  and  C12_19 
REMARK   13  A    between atoms: C25_37  and  O6_38 
REMARK   14  A    between atoms: C27_40  and  O7_41 
ROOT
HETATM    1  N2  UNL     1      20.461  29.827  14.565  1.00  0.00    -0.403 N 
ATOM      2  H2  UNL     1      20.849  29.070  15.127  1.00  0.00     0.154 HD
ENDROOT
BRANCH   1   3
HETATM    3  C6  UNL     1      20.875  31.141  14.815  1.00  0.00     0.096 C 
BRANCH   3   4
HETATM    4  C5  UNL     1      20.747  31.628  16.228  1.00  0.00     0.128 C 
BRANCH   4   5
HETATM    5  C4  UNL     1      19.340  31.762  16.605  1.00  0.00     0.221 C 
HETATM    6  N1  UNL     1      18.728  33.010  16.831  1.00  0.00    -0.347 N 
HETATM    7  C3  UNL     1      17.316  33.104  17.246  1.00  0.00     0.160 C 
HETATM    8  C24 UNL     1      19.384  34.295  16.685  1.00  0.00     0.160 C 
HETATM    9  C2  UNL     1      16.476  33.878  16.268  1.00  0.00     0.170 C 
HETATM   10  C27 UNL     1      17.348  34.691  15.351  1.00  0.00     0.179 C 
HETATM   11  C25 UNL     1      18.444  35.364  16.133  1.00  0.00     0.170 C 
HETATM   12  O2  UNL     1      18.585  30.742  16.751  1.00  0.00    -0.273 OA
BRANCH   9  13
HETATM   13  O1  UNL     1      15.626  34.754  16.933  1.00  0.00    -0.386 OA
HETATM   14  C1  UNL     1      15.405  34.415  18.262  1.00  0.00     0.202 C 
ENDBRANCH   9  13
BRANCH  10  15
HETATM   15  O7  UNL     1      16.607  35.620  14.619  1.00  0.00    -0.390 OA
ATOM     16  H7  UNL     1      16.545  35.379  13.702  1.00  0.00     0.210 HD
ENDBRANCH  10  15
BRANCH  11  17
HETATM   17  O6  UNL     1      17.970  36.189  17.124  1.00  0.00    -0.386 OA
HETATM   18  C26 UNL     1      18.959  36.450  18.069  1.00  0.00     0.202 C 
ENDBRANCH  11  17
ENDBRANCH   4   5
ENDBRANCH   3   4
BRANCH   3  19
HETATM   19  C7  UNL     1      22.400  31.146  14.557  1.00  0.00     0.138 C 
BRANCH  19  20
HETATM   20  C8  UNL     1      22.930  32.480  14.241  1.00  0.00     0.174 C 
HETATM   21  O3  UNL     1      22.283  33.288  13.575  1.00  0.00    -0.648 OA
HETATM   22  O4  UNL     1      24.187  32.830  14.704  1.00  0.00    -0.648 OA
ENDBRANCH  19  20
ENDBRANCH   3  19
ENDBRANCH   1   3
BRANCH   1  23
HETATM   23  C9  UNL     1      19.522  29.519  13.557  1.00  0.00     0.208 C 
BRANCH  23  24
HETATM   24  C10 UNL     1      20.136  28.526  12.611  1.00  0.00     0.118 C 
BRANCH  24  25
HETATM   25  C11 UNL     1      21.387  27.857  13.009  1.00  0.00     0.032 C 
BRANCH  25  26
HETATM   26  C12 UNL     1      22.422  27.788  11.865  1.00  0.00    -0.013 C 
HETATM   27  C13 UNL     1      22.623  26.346  11.567  1.00  0.00     0.005 C 
HETATM   28  C14 UNL     1      23.916  25.913  11.008  1.00  0.00     0.000 C 
HETATM   29  C15 UNL     1      25.064  26.855  11.077  1.00  0.00     0.000 C 
HETATM   30  C16 UNL     1      24.691  28.299  11.160  1.00  0.00     0.000 C 
HETATM   31  C17 UNL     1      23.718  28.409  12.328  1.00  0.00     0.005 C 
ENDBRANCH  25  26
ENDBRANCH  24  25
BRANCH  24  32
HETATM   32  N3  UNL     1      19.207  27.578  12.051  1.00  0.00    -0.345 N 
HETATM   33  C18 UNL     1      18.272  26.660  12.730  1.00  0.00     0.127 C 
HETATM   34  C19 UNL     1      18.228  25.430  11.898  1.00  0.00     0.033 C 
HETATM   35  C20 UNL     1      18.690  25.826  10.541  1.00  0.00     0.075 C 
HETATM   36  C21 UNL     1      17.558  25.680   9.549  1.00  0.00     0.020 C 
HETATM   37  C22 UNL     1      18.970  27.289  10.671  1.00  0.00     0.224 C 
HETATM   38  O5  UNL     1      18.975  28.064   9.684  1.00  0.00    -0.273 OA
ENDBRANCH  24  32
ENDBRANCH  23  24
BRANCH  23  39
HETATM   39  C23 UNL     1      18.926  30.751  13.002  1.00  0.00     0.409 C 
HETATM   40  F1  UNL     1      19.804  31.558  12.274  1.00  0.00    -0.169 F 
HETATM   41  F2  UNL     1      18.095  31.474  13.791  1.00  0.00    -0.169 F 
HETATM   42  F3  UNL     1      18.054  30.317  11.965  1.00  0.00    -0.169 F 
ENDBRANCH  23  39
ENDBRANCH   1  23
TORSDOF 14
ENDMDL
MODEL 2
REMARK VINA RESULT: -8.550346160      2.268      9.232
REMARK  14 active torsions:
REMARK  status: ('A' for Active; 'I' for Inactive)
REMARK    1  A    between atoms: O1_2  and  C2_3 
REMARK       I    between atoms: N1_5  and  C4_6 
REMARK    2  A    between atoms: C4_6  and  C5_8 
REMARK    3  A    between atoms: C5_8  and  C6_9 
REMARK    4  A    between atoms: C6_9  and  C7_10 
REMARK    5  A    between atoms: C6_9  and  N2_14 
REMARK    6  A    between atoms: C7_10  and  C8_11 
REMARK    7  A    between atoms: N2_14  and  C9_16 
REMARK    8  A    between atoms: C9_16  and  C10_17 
REMARK    9  A    between atoms: C9_16  and  C23_32 
REMARK   10  A    between atoms: C10_17  and  C11_18 
REMARK   11  A    between atoms: C10_17  and  N3_25 
REMARK   12  A    between atoms: C11_18  and  C12_19 
REMARK   13  A    between atoms: C25_37  and  O6_38 
REMARK   14  A    between atoms: C27_40  and  O7_41 
ROOT
HETATM    1  N2  UNL     1      19.502  33.285  16.832  1.00  0.00    -0.403 N 
ATOM      2  H2  UNL     1      18.830  32.732  17.364  1.00  0.00     0.154 HD
ENDROOT
BRANCH   1   3
HETATM    3  C6  UNL     1      20.818  32.821  16.710  1.00  0.00     0.096 C 
BRANCH   3   4
HETATM    4  C5  UNL     1      20.992  31.353  16.461  1.00  0.00     0.128 C 
BRANCH   4   5
HETATM    5  C4  UNL     1      20.122  30.903  15.376  1.00  0.00     0.221 C 
HETATM    6  N1  UNL     1      20.619  30.433  14.145  1.00  0.00    -0.347 N 
HETATM    7  C3  UNL     1      19.709  30.022  13.060  1.00  0.00     0.160 C 
HETATM    8  C24 UNL     1      22.024  30.298  13.815  1.00  0.00     0.160 C 
HETATM    9  C2  UNL     1      19.894  28.583  12.662  1.00  0.00     0.170 C 
HETATM   10  C27 UNL     1      21.209  28.060  13.171  1.00  0.00     0.179 C 
HETATM   11  C25 UNL     1      22.298  29.074  12.944  1.00  0.00     0.170 C 
HETATM   12  O2  UNL     1      18.849  30.914  15.489  1.00  0.00    -0.273 OA
BRANCH   9  13
HETATM   13  O1  UNL     1      19.891  28.450  11.279  1.00  0.00    -0.386 OA
HETATM   14  C1  UNL     1      18.662  28.064  10.758  1.00  0.00     0.202 C 
ENDBRANCH   9  13
BRANCH  10  15
HETATM   15  O7  UNL     1      21.536  26.832  12.597  1.00  0.00    -0.390 OA
ATOM     16  H7  UNL     1      21.476  26.857  11.649  1.00  0.00     0.210 HD
ENDBRANCH  10  15
BRANCH  11  17
HETATM   17  O6  UNL     1      22.450  29.414  11.621  1.00  0.00    -0.386 OA
HETATM   18  C26 UNL     1      23.659  28.939  11.121  1.00  0.00     0.202 C 
ENDBRANCH  11  17
ENDBRANCH   4   5
ENDBRANCH   3   4
BRANCH   3  19
HETATM   19  C7  UNL     1      21.368  33.485  15.425  1.00  0.00     0.138 C 
BRANCH  19  20
HETATM   20  C8  UNL     1      22.836  33.566  15.398  1.00  0.00     0.174 C 
HETATM   21  O3  UNL     1      23.484  33.831  16.410  1.00  0.00    -0.648 OA
HETATM   22  O4  UNL     1      23.498  33.338  14.204  1.00  0.00    -0.648 OA
ENDBRANCH  19  20
ENDBRANCH   3  19
ENDBRANCH   1   3
BRANCH   1  23
HETATM   23  C9  UNL     1      19.077  34.493  16.240  1.00  0.00     0.208 C 
BRANCH  23  24
HETATM   24  C10 UNL     1      18.828  35.502  17.325  1.00  0.00     0.118 C 
BRANCH  24  25
HETATM   25  C11 UNL     1      18.245  35.038  18.596  1.00  0.00     0.032 C 
BRANCH  25  26
HETATM   26  C12 UNL     1      16.806  35.551  18.821  1.00  0.00    -0.013 C 
HETATM   27  C13 UNL     1      15.898  34.466  18.364  1.00  0.00     0.005 C 
HETATM   28  C14 UNL     1      14.555  34.828  17.876  1.00  0.00     0.000 C 
HETATM   29  C15 UNL     1      14.285  36.252  17.546  1.00  0.00     0.000 C 
HETATM   30  C16 UNL     1      15.152  37.239  18.256  1.00  0.00     0.000 C 
HETATM   31  C17 UNL     1      16.587  36.795  17.995  1.00  0.00     0.005 C 
ENDBRANCH  25  26
ENDBRANCH  24  25
BRANCH  24  32
HETATM   32  N3  UNL     1      19.924  36.405  17.568  1.00  0.00    -0.345 N 
HETATM   33  C18 UNL     1      20.038  37.849  17.283  1.00  0.00     0.127 C 
HETATM   34  C19 UNL     1      21.456  38.082  16.905  1.00  0.00     0.033 C 
HETATM   35  C20 UNL     1      22.231  36.941  17.462  1.00  0.00     0.075 C 
HETATM   36  C21 UNL     1      23.179  37.437  18.532  1.00  0.00     0.020 C 
HETATM   37  C22 UNL     1      21.197  36.108  18.149  1.00  0.00     0.224 C 
HETATM   38  O5  UNL     1      21.482  35.307  19.072  1.00  0.00    -0.273 OA
ENDBRANCH  24  32
ENDBRANCH  23  24
BRANCH  23  39
HETATM   39  C23 UNL     1      18.013  34.245  15.247  1.00  0.00     0.409 C 
HETATM   40  F1  UNL     1      18.439  33.647  14.058  1.00  0.00    -0.169 F 
HETATM   41  F2  UNL     1      17.093  35.217  15.035  1.00  0.00    -0.169 F 
HETATM   42  F3  UNL     1      17.221  33.196  15.794  1.00  0.00    -0.169 F 
ENDBRANCH  23  39
ENDBRANCH   1  23
TORSDOF 14
ENDMDL
MODEL 3
REMARK VINA RESULT: -8.548187721      1.174      2.057
REMARK  14 active torsions:
REMARK  status: ('A' for Active; 'I' for Inactive)
REMARK    1  A    between atoms: O1_2  and  C2_3 
REMARK       I    between atoms: N1_5  and  C4_6 
REMARK    2  A    between atoms: C4_6  and  C5_8 
REMARK    3  A    between atoms: C5_8  and  C6_9 
REMARK    4  A    between atoms: C6_9  and  C7_10 
REMARK    5  A    between atoms: C6_9  and  N2_14 
REMARK    6  A    between atoms: C7_10  and  C8_11 
REMARK    7  A    between atoms: N2_14  and  C9_16 
REMARK    8  A    between atoms: C9_16  and  C10_17 
REMARK    9  A    between atoms: C9_16  and  C23_32 
REMARK   10  A    between atoms: C10_17  and  C11_18 
REMARK   11  A    between atoms: C10_17  and  N3_25 
REMARK   12  A    between atoms: C11_18  and  C12_19 
REMARK   13  A    between atoms: C25_37  and  O6_38 
REMARK   14  A    between atoms: C27_40  and  O7_41 
ROOT
HETATM    1  N2  UNL     1      20.041  29.613  14.794  1.00  0.00    -0.403 N 
ATOM      2  H2  UNL     1      20.442  28.858  15.350  1.00  0.00     0.154 HD
ENDROOT
BRANCH   1   3
HETATM    3  C6  UNL     1      20.411  30.934  15.077  1.00  0.00     0.096 C 
BRANCH   3   4
HETATM    4  C5  UNL     1      20.489  31.315  16.525  1.00  0.00     0.128 C 
BRANCH   4   5
HETATM    5  C4  UNL     1      20.720  32.751  16.673  1.00  0.00     0.221 C 
HETATM    6  N1  UNL     1      19.677  33.697  16.648  1.00  0.00    -0.347 N 
HETATM    7  C3  UNL     1      19.953  35.141  16.763  1.00  0.00     0.160 C 
HETATM    8  C24 UNL     1      18.270  33.377  16.518  1.00  0.00     0.160 C 
HETATM    9  C2  UNL     1      19.284  35.765  17.958  1.00  0.00     0.170 C 
HETATM   10  C27 UNL     1      18.196  34.867  18.482  1.00  0.00     0.179 C 
HETATM   11  C25 UNL     1      17.386  34.309  17.343  1.00  0.00     0.170 C 
HETATM   12  O2  UNL     1      21.895  33.228  16.833  1.00  0.00    -0.273 OA
BRANCH   9  13
HETATM   13  O1  UNL     1      18.704  36.981  17.619  1.00  0.00    -0.386 OA
HETATM   14  C1  UNL     1      19.529  38.076  17.849  1.00  0.00     0.202 C 
ENDBRANCH   9  13
BRANCH  10  15
HETATM   15  O7  UNL     1      17.383  35.524  19.406  1.00  0.00    -0.390 OA
ATOM     16  H7  UNL     1      17.862  35.761  20.192  1.00  0.00     0.210 HD
ENDBRANCH  10  15
BRANCH  11  17
HETATM   17  O6  UNL     1      16.807  35.284  16.565  1.00  0.00    -0.386 OA
HETATM   18  C26 UNL     1      15.566  34.869  16.090  1.00  0.00     0.202 C 
ENDBRANCH  11  17
ENDBRANCH   4   5
ENDBRANCH   3   4
BRANCH   3  19
HETATM   19  C7  UNL     1      21.869  31.067  14.577  1.00  0.00     0.138 C 
BRANCH  19  20
HETATM   20  C8  UNL     1      22.007  31.974  13.428  1.00  0.00     0.174 C 
HETATM   21  O3  UNL     1      21.784  31.595  12.279  1.00  0.00    -0.648 OA
HETATM   22  O4  UNL     1      22.398  33.284  13.650  1.00  0.00    -0.648 OA
ENDBRANCH  19  20
ENDBRANCH   3  19
ENDBRANCH   1   3
BRANCH   1  23
HETATM   23  C9  UNL     1      19.132  29.296  13.763  1.00  0.00     0.208 C 
BRANCH  23  24
HETATM   24  C10 UNL     1      19.849  28.495  12.714  1.00  0.00     0.118 C 
BRANCH  24  25
HETATM   25  C11 UNL     1      21.171  27.933  13.040  1.00  0.00     0.032 C 
BRANCH  25  26
HETATM   26  C12 UNL     1      22.104  27.839  11.814  1.00  0.00    -0.013 C 
HETATM   27  C13 UNL     1      22.349  26.391  11.583  1.00  0.00     0.005 C 
HETATM   28  C14 UNL     1      23.607  25.981  10.935  1.00  0.00     0.000 C 
HETATM   29  C15 UNL     1      24.709  26.975  10.845  1.00  0.00     0.000 C 
HETATM   30  C16 UNL     1      24.275  28.403  10.879  1.00  0.00     0.000 C 
HETATM   31  C17 UNL     1      23.403  28.542  12.122  1.00  0.00     0.005 C 
ENDBRANCH  25  26
ENDBRANCH  24  25
BRANCH  24  32
HETATM   32  N3  UNL     1      19.031  27.517  12.044  1.00  0.00    -0.345 N 
HETATM   33  C18 UNL     1      18.207  26.430  12.607  1.00  0.00     0.127 C 
HETATM   34  C19 UNL     1      18.300  25.302  11.644  1.00  0.00     0.033 C 
HETATM   35  C20 UNL     1      18.710  25.897  10.344  1.00  0.00     0.075 C 
HETATM   36  C21 UNL     1      17.599  25.736   9.330  1.00  0.00     0.020 C 
HETATM   37  C22 UNL     1      18.824  27.358  10.638  1.00  0.00     0.224 C 
HETATM   38  O5  UNL     1      18.738  28.234   9.743  1.00  0.00    -0.273 OA
ENDBRANCH  24  32
ENDBRANCH  23  24
BRANCH  23  39
HETATM   39  C23 UNL     1      18.375  30.493  13.346  1.00  0.00     0.409 C 
HETATM   40  F1  UNL     1      19.055  31.353  12.481  1.00  0.00    -0.169 F 
HETATM   41  F2  UNL     1      17.664  31.164  14.286  1.00  0.00    -0.169 F 
HETATM   42  F3  UNL     1      17.352  30.014  12.482  1.00  0.00    -0.169 F 
ENDBRANCH  23  39
ENDBRANCH   1  23
TORSDOF 14
ENDMDL
MODEL 4
REMARK VINA RESULT: -8.528780356      2.136      3.386
REMARK  14 active torsions:
REMARK  status: ('A' for Active; 'I' for Inactive)
REMARK    1  A    between atoms: O1_2  and  C2_3 
REMARK       I    between atoms: N1_5  and  C4_6 
REMARK    2  A    between atoms: C4_6  and  C5_8 
REMARK    3  A    between atoms: C5_8  and  C6_9 
REMARK    4  A    between atoms: C6_9  and  C7_10 
REMARK    5  A    between atoms: C6_9  and  N2_14 
REMARK    6  A    between atoms: C7_10  and  C8_11 
REMARK    7  A    between atoms: N2_14  and  C9_16 
REMARK    8  A    between atoms: C9_16  and  C10_17 
REMARK    9  A    between atoms: C9_16  and  C23_32 
REMARK   10  A    between atoms: C10_17  and  C11_18 
REMARK   11  A    between atoms: C10_17  and  N3_25 
REMARK   12  A    between atoms: C11_18  and  C12_19 
REMARK   13  A    between atoms: C25_37  and  O6_38 
REMARK   14  A    between atoms: C27_40  and  O7_41 
ROOT
HETATM    1  N2  UNL     1      21.048  30.826  16.572  1.00  0.00    -0.403 N 
ATOM      2  H2  UNL     1      21.529  30.202  17.219  1.00  0.00     0.154 HD
ENDROOT
BRANCH   1   3
HETATM    3  C6  UNL     1      21.590  32.093  16.320  1.00  0.00     0.096 C 
BRANCH   3   4
HETATM    4  C5  UNL     1      21.956  32.918  17.518  1.00  0.00     0.128 C 
BRANCH   4   5
HETATM    5  C4  UNL     1      22.032  34.336  17.168  1.00  0.00     0.221 C 
HETATM    6  N1  UNL     1      20.907  35.183  17.176  1.00  0.00    -0.347 N 
HETATM    7  C3  UNL     1      21.015  36.600  16.781  1.00  0.00     0.160 C 
HETATM    8  C24 UNL     1      19.568  34.782  17.560  1.00  0.00     0.160 C 
HETATM    9  C2  UNL     1      20.611  37.540  17.884  1.00  0.00     0.170 C 
HETATM   10  C27 UNL     1      19.826  36.810  18.939  1.00  0.00     0.179 C 
HETATM   11  C25 UNL     1      18.822  35.890  18.298  1.00  0.00     0.170 C 
HETATM   12  O2  UNL     1      23.136  34.886  16.834  1.00  0.00    -0.273 OA
BRANCH   9  13
HETATM   13  O1  UNL     1      19.812  38.564  17.391  1.00  0.00    -0.386 OA
HETATM   14  C1  UNL     1      20.525  39.568  16.746  1.00  0.00     0.202 C 
ENDBRANCH   9  13
BRANCH  10  15
HETATM   15  O7  UNL     1      19.209  37.691  19.827  1.00  0.00    -0.390 OA
ATOM     16  H7  UNL     1      19.741  37.845  20.599  1.00  0.00     0.210 HD
ENDBRANCH  10  15
BRANCH  11  17
HETATM   17  O6  UNL     1      17.937  36.546  17.475  1.00  0.00    -0.386 OA
HETATM   18  C26 UNL     1      17.129  35.642  16.792  1.00  0.00     0.202 C 
ENDBRANCH  11  17
ENDBRANCH   4   5
ENDBRANCH   3   4
BRANCH   3  19
HETATM   19  C7  UNL     1      22.945  31.827  15.622  1.00  0.00     0.138 C 
BRANCH  19  20
HETATM   20  C8  UNL     1      23.128  32.612  14.393  1.00  0.00     0.174 C 
HETATM   21  O3  UNL     1      24.121  33.318  14.222  1.00  0.00    -0.648 OA
HETATM   22  O4  UNL     1      22.156  32.552  13.408  1.00  0.00    -0.648 OA
ENDBRANCH  19  20
ENDBRANCH   3  19
ENDBRANCH   1   3
BRANCH   1  23
HETATM   23  C9  UNL     1      19.856  30.388  15.957  1.00  0.00     0.208 C 
BRANCH  23  24
HETATM   24  C10 UNL     1      20.184  29.853  14.592  1.00  0.00     0.118 C 
BRANCH  24  25
HETATM   25  C11 UNL     1      21.317  28.921  14.456  1.00  0.00     0.032 C 
BRANCH  25  26
HETATM   26  C12 UNL     1      21.824  28.797  13.003  1.00  0.00    -0.013 C 
HETATM   27  C13 UNL     1      21.564  27.395  12.585  1.00  0.00     0.005 C 
HETATM   28  C14 UNL     1      22.431  26.791  11.557  1.00  0.00     0.000 C 
HETATM   29  C15 UNL     1      23.711  27.472  11.227  1.00  0.00     0.000 C 
HETATM   30  C16 UNL     1      23.738  28.937  11.513  1.00  0.00     0.000 C 
HETATM   31  C17 UNL     1      23.305  29.085  12.967  1.00  0.00     0.005 C 
ENDBRANCH  25  26
ENDBRANCH  24  25
BRANCH  24  32
HETATM   32  N3  UNL     1      19.047  29.386  13.842  1.00  0.00    -0.345 N 
HETATM   33  C18 UNL     1      18.211  28.187  14.044  1.00  0.00     0.127 C 
HETATM   34  C19 UNL     1      17.827  27.720  12.687  1.00  0.00     0.033 C 
HETATM   35  C20 UNL     1      17.982  28.891  11.783  1.00  0.00     0.075 C 
HETATM   36  C21 UNL     1      16.632  29.309  11.244  1.00  0.00     0.020 C 
HETATM   37  C22 UNL     1      18.447  29.985  12.690  1.00  0.00     0.224 C 
HETATM   38  O5  UNL     1      18.295  31.199  12.413  1.00  0.00    -0.273 OA
ENDBRANCH  24  32
ENDBRANCH  23  24
BRANCH  23  39
HETATM   39  C23 UNL     1      18.796  31.409  16.082  1.00  0.00     0.409 C 
HETATM   40  F1  UNL     1      18.784  32.377  15.075  1.00  0.00    -0.169 F 
HETATM   41  F2  UNL     1      18.553  31.935  17.307  1.00  0.00    -0.169 F 
HETATM   42  F3  UNL     1      17.579  30.728  15.800  1.00  0.00    -0.169 F 
ENDBRANCH  23  39
ENDBRANCH   1  23
TORSDOF 14
ENDMDL
MODEL 5
REMARK VINA RESULT: -8.436645583      2.377      8.359
REMARK  14 active torsions:
REMARK  status: ('A' for Active; 'I' for Inactive)
REMARK    1  A    between atoms: O1_2  and  C2_3 
REMARK       I    between atoms: N1_5  and  C4_6 
REMARK    2  A    between atoms: C4_6  and  C5_8 
REMARK    3  A    between atoms: C5_8  and  C6_9 
REMARK    4  A    between atoms: C6_9  and  C7_10 
REMARK    5  A    between atoms: C6_9  and  N2_14 
REMARK    6  A    between atoms: C7_10  and  C8_11 
REMARK    7  A    between atoms: N2_14  and  C9_16 
REMARK    8  A    between atoms: C9_16  and  C10_17 
REMARK    9  A    between atoms: C9_16  and  C23_32 
REMARK   10  A    between atoms: C10_17  and  C11_18 
REMARK   11  A    between atoms: C10_17  and  N3_25 
REMARK   12  A    between atoms: C11_18  and  C12_19 
REMARK   13  A    between atoms: C25_37  and  O6_38 
REMARK   14  A    between atoms: C27_40  and  O7_41 
ROOT
HETATM    1  N2  UNL     1      19.920  32.764  14.506  1.00  0.00    -0.403 N 
ATOM      2  H2  UNL     1      19.536  33.569  14.011  1.00  0.00     0.154 HD
ENDROOT
BRANCH   1   3
HETATM    3  C6  UNL     1      21.038  32.109  13.976  1.00  0.00     0.096 C 
BRANCH   3   4
HETATM    4  C5  UNL     1      20.983  31.760  12.518  1.00  0.00     0.128 C 
BRANCH   4   5
HETATM    5  C4  UNL     1      21.367  30.366  12.304  1.00  0.00     0.221 C 
HETATM    6  N1  UNL     1      20.450  29.300  12.389  1.00  0.00    -0.347 N 
HETATM    7  C3  UNL     1      20.883  27.903  12.203  1.00  0.00     0.160 C 
HETATM    8  C24 UNL     1      19.033  29.445  12.654  1.00  0.00     0.160 C 
HETATM    9  C2  UNL     1      20.185  27.229  11.053  1.00  0.00     0.170 C 
HETATM   10  C27 UNL     1      18.955  28.000  10.657  1.00  0.00     0.179 C 
HETATM   11  C25 UNL     1      18.193  28.431  11.881  1.00  0.00     0.170 C 
HETATM   12  O2  UNL     1      22.571  30.038  12.024  1.00  0.00    -0.273 OA
BRANCH   9  13
HETATM   13  O1  UNL     1      19.788  25.944  11.402  1.00  0.00    -0.386 OA
HETATM   14  C1  UNL     1      20.833  25.030  11.445  1.00  0.00     0.202 C 
ENDBRANCH   9  13
BRANCH  10  15
HETATM   15  O7  UNL     1      18.144  27.271   9.788  1.00  0.00    -0.390 OA
ATOM     16  H7  UNL     1      17.276  27.651   9.712  1.00  0.00     0.210 HD
ENDBRANCH  10  15
BRANCH  11  17
HETATM   17  O6  UNL     1      17.808  27.377  12.675  1.00  0.00    -0.386 OA
HETATM   18  C26 UNL     1      17.596  27.793  13.986  1.00  0.00     0.202 C 
ENDBRANCH  11  17
ENDBRANCH   4   5
ENDBRANCH   3   4
BRANCH   3  19
HETATM   19  C7  UNL     1      22.195  33.131  14.071  1.00  0.00     0.138 C 
BRANCH  19  20
HETATM   20  C8  UNL     1      23.377  32.605  14.768  1.00  0.00     0.174 C 
HETATM   21  O3  UNL     1      23.476  31.413  15.057  1.00  0.00    -0.648 OA
HETATM   22  O4  UNL     1      24.400  33.475  15.106  1.00  0.00    -0.648 OA
ENDBRANCH  19  20
ENDBRANCH   3  19
ENDBRANCH   1   3
BRANCH   1  23
HETATM   23  C9  UNL     1      19.308  32.345  15.707  1.00  0.00     0.208 C 
BRANCH  23  24
HETATM   24  C10 UNL     1      18.976  33.557  16.530  1.00  0.00     0.118 C 
BRANCH  24  25
HETATM   25  C11 UNL     1      19.676  34.820  16.235  1.00  0.00     0.032 C 
BRANCH  25  26
HETATM   26  C12 UNL     1      20.442  35.382  17.452  1.00  0.00    -0.013 C 
HETATM   27  C13 UNL     1      20.275  36.859  17.408  1.00  0.00     0.005 C 
HETATM   28  C14 UNL     1      21.321  37.707  18.008  1.00  0.00     0.000 C 
HETATM   29  C15 UNL     1      22.633  37.086  18.326  1.00  0.00     0.000 C 
HETATM   30  C16 UNL     1      22.595  35.611  18.554  1.00  0.00     0.000 C 
HETATM   31  C17 UNL     1      21.902  35.020  17.332  1.00  0.00     0.005 C 
ENDBRANCH  25  26
ENDBRANCH  24  25
BRANCH  24  32
HETATM   32  N3  UNL     1      17.567  33.787  16.718  1.00  0.00    -0.345 N 
HETATM   33  C18 UNL     1      16.413  33.216  15.996  1.00  0.00     0.127 C 
HETATM   34  C19 UNL     1      15.394  34.295  15.932  1.00  0.00     0.033 C 
HETATM   35  C20 UNL     1      15.727  35.250  17.022  1.00  0.00     0.075 C 
HETATM   36  C21 UNL     1      14.627  35.250  18.061  1.00  0.00     0.020 C 
HETATM   37  C22 UNL     1      16.935  34.650  17.667  1.00  0.00     0.224 C 
HETATM   38  O5  UNL     1      17.268  34.911  18.849  1.00  0.00    -0.273 OA
ENDBRANCH  24  32
ENDBRANCH  23  24
BRANCH  23  39
HETATM   39  C23 UNL     1      20.079  31.253  16.333  1.00  0.00     0.409 C 
HETATM   40  F1  UNL     1      21.169  31.662  17.105  1.00  0.00    -0.169 F 
HETATM   41  F2  UNL     1      20.357  30.154  15.589  1.00  0.00    -0.169 F 
HETATM   42  F3  UNL     1      19.231  30.722  17.346  1.00  0.00    -0.169 F 
ENDBRANCH  23  39
ENDBRANCH   1  23
TORSDOF 14
ENDMDL
