MODEL 1
REMARK VINA RESULT: -9.702095413      0.000      0.000
REMARK  13 active torsions:
REMARK  status: ('A' for Active; 'I' for Inactive)
REMARK    1  A    between atoms: C2_2  and  C3_3 
REMARK    2  A    between atoms: C4_4  and  C5_5 
REMARK       I    between atoms: C5_5  and  N1_7 
REMARK    3  A    between atoms: N1_7  and  C6_9 
REMARK    4  A    between atoms: C6_9  and  C7_10 
REMARK    5  A    between atoms: C7_10  and  N2_11 
REMARK    6  A    between atoms: C10_14  and  C11_15 
REMARK    7  A    between atoms: C13_20  and  C14_21 
REMARK    8  A    between atoms: N3_28  and  C18_29 
REMARK       I    between atoms: N4_33  and  C22_34 
REMARK    9  A    between atoms: C22_34  and  C23_36 
REMARK   10  A    between atoms: C23_36  and  C24_37 
REMARK   11  A    between atoms: C24_37  and  N5_38 
REMARK   12  A    between atoms: N5_38  and  C25_41 
REMARK   13  A    between atoms: C25_41  and  C26_42 
ROOT
HETATM    1  C3  UNL     1      20.050  32.571  14.730  1.00  0.00     0.027 A 
HETATM    2  C4  UNL     1      21.050  31.909  14.092  1.00  0.00     0.056 A 
HETATM    3  C15 UNL     1      22.070  31.815  15.058  1.00  0.00     0.043 A 
HETATM    4  C16 UNL     1      21.659  32.409  16.226  1.00  0.00     0.009 A 
HETATM    5  C17 UNL     1      22.445  32.512  17.482  1.00  0.00     0.068 C 
HETATM    6  N3  UNL     1      20.430  32.871  16.035  1.00  0.00    -0.347 N 
ENDROOT
BRANCH   2   7
HETATM    7  C5  UNL     1      21.219  31.306  12.778  1.00  0.00     0.257 C 
HETATM    8  O1  UNL     1      20.722  31.946  11.777  1.00  0.00    -0.267 OA
HETATM    9  N1  UNL     1      21.866  30.121  12.501  1.00  0.00    -0.332 N 
ATOM     10  H1  UNL     1      22.240  29.651  13.325  1.00  0.00     0.168 HD
BRANCH   9  11
HETATM   11  C6  UNL     1      22.109  29.434  11.288  1.00  0.00     0.102 C 
BRANCH  11  12
HETATM   12  C7  UNL     1      21.812  28.016  11.111  1.00  0.00     0.077 C 
BRANCH  12  13
HETATM   13  N2  UNL     1      22.642  26.988  11.600  1.00  0.00    -0.279 NA
HETATM   14  C8  UNL     1      22.019  25.677  11.626  1.00  0.00     0.096 C 
HETATM   15  C9  UNL     1      21.574  25.228  10.265  1.00  0.00     0.028 C 
HETATM   16  C10 UNL     1      22.846  24.922   9.495  1.00  0.00     0.096 C 
HETATM   17  C12 UNL     1      24.032  25.624  10.040  1.00  0.00     0.042 C 
HETATM   18  C13 UNL     1      23.808  26.910  10.743  1.00  0.00     0.171 C 
BRANCH  16  19
HETATM   19  C11 UNL     1      22.655  25.046   8.017  1.00  0.00     0.391 C 
HETATM   20  F1  UNL     1      23.471  26.025   7.468  1.00  0.00    -0.171 F 
HETATM   21  F2  UNL     1      23.041  23.862   7.385  1.00  0.00    -0.171 F 
HETATM   22  F3  UNL     1      21.363  25.308   7.632  1.00  0.00    -0.171 F 
ENDBRANCH  16  19
BRANCH  18  23
HETATM   23  C14 UNL     1      25.084  27.179  11.556  1.00  0.00     0.403 C 
HETATM   24  F4  UNL     1      25.094  26.271  12.589  1.00  0.00    -0.169 F 
HETATM   25  F5  UNL     1      26.154  26.864  10.717  1.00  0.00    -0.169 F 
HETATM   26  F6  UNL     1      25.135  28.482  11.943  1.00  0.00    -0.169 F 
ENDBRANCH  18  23
ENDBRANCH  12  13
ENDBRANCH  11  12
ENDBRANCH   9  11
ENDBRANCH   2   7
BRANCH   1  27
HETATM   27  C2  UNL     1      18.748  32.933  14.101  1.00  0.00     0.054 C 
HETATM   28  C1  UNL     1      17.890  31.677  13.910  1.00  0.00     0.011 C 
ENDBRANCH   1  27
BRANCH   6  29
HETATM   29  C18 UNL     1      19.554  33.559  16.913  1.00  0.00     0.108 C 
HETATM   30  C19 UNL     1      19.587  35.040  16.597  1.00  0.00     0.029 C 
HETATM   31  C20 UNL     1      19.078  35.893  17.709  1.00  0.00     0.022 C 
HETATM   32  C21 UNL     1      18.335  35.015  18.698  1.00  0.00     0.126 C 
HETATM   33  N4  UNL     1      17.506  34.139  17.913  1.00  0.00    -0.350 N 
HETATM   34  C22 UNL     1      16.098  34.270  17.992  1.00  0.00     0.221 C 
HETATM   35  C29 UNL     1      18.145  33.128  17.014  1.00  0.00     0.151 C 
HETATM   36  O2  UNL     1      15.412  33.454  17.282  1.00  0.00    -0.273 OA
BRANCH  34  37
HETATM   37  C23 UNL     1      15.453  35.283  18.833  1.00  0.00     0.130 C 
BRANCH  37  38
HETATM   38  C24 UNL     1      14.557  36.193  18.030  1.00  0.00     0.241 C 
BRANCH  38  39
HETATM   39  N5  UNL     1      14.600  37.550  18.445  1.00  0.00    -0.074 N 
ATOM     40  H52 UNL     1      13.980  38.125  17.874  1.00  0.00     0.277 HD
ATOM     41  H51 UNL     1      14.148  37.668  19.353  1.00  0.00     0.277 HD
BRANCH  39  42
HETATM   42  C25 UNL     1      15.925  38.087  18.462  1.00  0.00     0.237 C 
BRANCH  42  43
HETATM   43  C26 UNL     1      16.448  38.690  17.210  1.00  0.00     0.011 A 
HETATM   44  C27 UNL     1      17.783  39.371  17.200  1.00  0.00     0.007 A 
HETATM   45  C28 UNL     1      16.544  40.178  17.050  1.00  0.00     0.007 A 
ENDBRANCH  42  43
ENDBRANCH  39  42
ENDBRANCH  38  39
ENDBRANCH  37  38
ENDBRANCH  34  37
ENDBRANCH   6  29
TORSDOF 13
ENDMDL
MODEL 2
REMARK VINA RESULT: -9.505537815      2.780      3.484
REMARK  13 active torsions:
REMARK  status: ('A' for Active; 'I' for Inactive)
REMARK    1  A    between atoms: C2_2  and  C3_3 
REMARK    2  A    between atoms: C4_4  and  C5_5 
REMARK       I    between atoms: C5_5  and  N1_7 
REMARK    3  A    between atoms: N1_7  and  C6_9 
REMARK    4  A    between atoms: C6_9  and  C7_10 
REMARK    5  A    between atoms: C7_10  and  N2_11 
REMARK    6  A    between atoms: C10_14  and  C11_15 
REMARK    7  A    between atoms: C13_20  and  C14_21 
REMARK    8  A    between atoms: N3_28  and  C18_29 
REMARK       I    between atoms: N4_33  and  C22_34 
REMARK    9  A    between atoms: C22_34  and  C23_36 
REMARK   10  A    between atoms: C23_36  and  C24_37 
REMARK   11  A    between atoms: C24_37  and  N5_38 
REMARK   12  A    between atoms: N5_38  and  C25_41 
REMARK   13  A    between atoms: C25_41  and  C26_42 
ROOT
HETATM    1  C3  UNL     1      20.107  32.693  14.950  1.00  0.00     0.027 A 
HETATM    2  C4  UNL     1      21.011  31.911  14.305  1.00  0.00     0.056 A 
HETATM    3  C15 UNL     1      22.047  31.739  15.243  1.00  0.00     0.043 A 
HETATM    4  C16 UNL     1      21.740  32.408  16.403  1.00  0.00     0.009 A 
HETATM    5  C17 UNL     1      22.573  32.464  17.630  1.00  0.00     0.068 C 
HETATM    6  N3  UNL     1      20.560  32.991  16.233  1.00  0.00    -0.347 N 
ENDROOT
BRANCH   2   7
HETATM    7  C5  UNL     1      21.072  31.255  13.007  1.00  0.00     0.257 C 
HETATM    8  O1  UNL     1      20.602  31.908  12.003  1.00  0.00    -0.267 OA
HETATM    9  N1  UNL     1      21.594  30.005  12.748  1.00  0.00    -0.332 N 
ATOM     10  H1  UNL     1      21.952  29.526  13.575  1.00  0.00     0.168 HD
BRANCH   9  11
HETATM   11  C6  UNL     1      21.725  29.261  11.552  1.00  0.00     0.102 C 
BRANCH  11  12
HETATM   12  C7  UNL     1      20.780  28.219  11.163  1.00  0.00     0.077 C 
BRANCH  12  13
HETATM   13  N2  UNL     1      19.388  28.327  11.364  1.00  0.00    -0.279 NA
HETATM   14  C8  UNL     1      18.587  27.953  10.213  1.00  0.00     0.096 C 
HETATM   15  C9  UNL     1      18.828  26.535   9.786  1.00  0.00     0.028 C 
HETATM   16  C10 UNL     1      18.201  25.666  10.861  1.00  0.00     0.096 C 
HETATM   17  C12 UNL     1      18.062  26.369  12.159  1.00  0.00     0.042 C 
HETATM   18  C13 UNL     1      19.027  27.453  12.462  1.00  0.00     0.171 C 
BRANCH  16  19
HETATM   19  C11 UNL     1      18.831  24.313  10.934  1.00  0.00     0.391 C 
HETATM   20  F1  UNL     1      18.944  23.861  12.241  1.00  0.00    -0.171 F 
HETATM   21  F2  UNL     1      18.018  23.372  10.298  1.00  0.00    -0.171 F 
HETATM   22  F3  UNL     1      20.072  24.233  10.351  1.00  0.00    -0.171 F 
ENDBRANCH  16  19
BRANCH  18  23
HETATM   23  C14 UNL     1      18.406  28.269  13.608  1.00  0.00     0.403 C 
HETATM   24  F4  UNL     1      17.679  29.281  13.025  1.00  0.00    -0.169 F 
HETATM   25  F5  UNL     1      17.499  27.419  14.243  1.00  0.00    -0.169 F 
HETATM   26  F6  UNL     1      19.371  28.684  14.472  1.00  0.00    -0.169 F 
ENDBRANCH  18  23
ENDBRANCH  12  13
ENDBRANCH  11  12
ENDBRANCH   9  11
ENDBRANCH   2   7
BRANCH   1  27
HETATM   27  C2  UNL     1      18.831  33.171  14.349  1.00  0.00     0.054 C 
HETATM   28  C1  UNL     1      17.806  32.031  14.314  1.00  0.00     0.011 C 
ENDBRANCH   1  27
BRANCH   6  29
HETATM   29  C18 UNL     1      19.790  33.793  17.113  1.00  0.00     0.108 C 
HETATM   30  C19 UNL     1      19.909  35.246  16.702  1.00  0.00     0.029 C 
HETATM   31  C20 UNL     1      19.530  36.199  17.785  1.00  0.00     0.022 C 
HETATM   32  C21 UNL     1      18.788  35.439  18.868  1.00  0.00     0.126 C 
HETATM   33  N4  UNL     1      17.852  34.582  18.188  1.00  0.00    -0.350 N 
HETATM   34  C22 UNL     1      16.465  34.823  18.337  1.00  0.00     0.221 C 
HETATM   35  C29 UNL     1      18.363  33.475  17.320  1.00  0.00     0.151 C 
HETATM   36  O2  UNL     1      15.681  34.021  17.720  1.00  0.00    -0.273 OA
BRANCH  34  37
HETATM   37  C23 UNL     1      15.946  35.929  19.147  1.00  0.00     0.130 C 
BRANCH  37  38
HETATM   38  C24 UNL     1      15.259  36.973  18.301  1.00  0.00     0.241 C 
BRANCH  38  39
HETATM   39  N5  UNL     1      15.913  37.231  17.067  1.00  0.00    -0.074 N 
ATOM     40  H52 UNL     1      16.453  36.420  16.765  1.00  0.00     0.277 HD
ATOM     41  H51 UNL     1      15.241  37.278  16.301  1.00  0.00     0.277 HD
BRANCH  39  42
HETATM   42  C25 UNL     1      16.729  38.404  17.104  1.00  0.00     0.237 C 
BRANCH  42  43
HETATM   43  C26 UNL     1      16.091  39.685  17.497  1.00  0.00     0.011 A 
HETATM   44  C27 UNL     1      16.408  40.947  16.753  1.00  0.00     0.007 A 
HETATM   45  C28 UNL     1      16.884  40.777  18.150  1.00  0.00     0.007 A 
ENDBRANCH  42  43
ENDBRANCH  39  42
ENDBRANCH  38  39
ENDBRANCH  37  38
ENDBRANCH  34  37
ENDBRANCH   6  29
TORSDOF 13
ENDMDL
MODEL 3
REMARK VINA RESULT: -9.389902995      5.427     12.256
REMARK  13 active torsions:
REMARK  status: ('A' for Active; 'I' for Inactive)
REMARK    1  A    between atoms: C2_2  and  C3_3 
REMARK    2  A    between atoms: C4_4  and  C5_5 
REMARK       I    between atoms: C5_5  and  N1_7 
REMARK    3  A    between atoms: N1_7  and  C6_9 
REMARK    4  A    between atoms: C6_9  and  C7_10 
REMARK    5  A    between atoms: C7_10  and  N2_11 
REMARK    6  A    between atoms: C10_14  and  C11_15 
REMARK    7  A    between atoms: C13_20  and  C14_21 
REMARK    8  A    between atoms: N3_28  and  C18_29 
REMARK       I    between atoms: N4_33  and  C22_34 
REMARK    9  A    between atoms: C22_34  and  C23_36 
REMARK   10  A    between atoms: C23_36  and  C24_37 
REMARK   11  A    between atoms: C24_37  and  N5_38 
REMARK   12  A    between atoms: N5_38  and  C25_41 
REMARK   13  A    between atoms: C25_41  and  C26_42 
ROOT
HETATM    1  C3  UNL     1      19.669  29.500  13.121  1.00  0.00     0.027 A 
HETATM    2  C4  UNL     1      19.141  30.623  13.673  1.00  0.00     0.056 A 
HETATM    3  C15 UNL     1      17.883  30.752  13.053  1.00  0.00     0.043 A 
HETATM    4  C16 UNL     1      17.695  29.720  12.166  1.00  0.00     0.009 A 
HETATM    5  C17 UNL     1      16.495  29.497  11.321  1.00  0.00     0.068 C 
HETATM    6  N3  UNL     1      18.778  28.954  12.202  1.00  0.00    -0.347 N 
ENDROOT
BRANCH   2   7
HETATM    7  C5  UNL     1      19.559  31.568  14.700  1.00  0.00     0.257 C 
HETATM    8  O1  UNL     1      20.111  31.074  15.752  1.00  0.00    -0.267 OA
HETATM    9  N1  UNL     1      19.428  32.939  14.649  1.00  0.00    -0.332 N 
ATOM     10  H1  UNL     1      18.983  33.281  13.797  1.00  0.00     0.168 HD
BRANCH   9  11
HETATM   11  C6  UNL     1      19.794  33.961  15.556  1.00  0.00     0.102 C 
BRANCH  11  12
HETATM   12  C7  UNL     1      18.850  34.557  16.496  1.00  0.00     0.077 C 
BRANCH  12  13
HETATM   13  N2  UNL     1      17.988  33.795  17.310  1.00  0.00    -0.279 NA
HETATM   14  C8  UNL     1      17.920  34.241  18.690  1.00  0.00     0.096 C 
HETATM   15  C9  UNL     1      17.444  35.659  18.810  1.00  0.00     0.028 C 
HETATM   16  C10 UNL     1      15.971  35.633  18.447  1.00  0.00     0.096 C 
HETATM   17  C12 UNL     1      15.604  34.463  17.615  1.00  0.00     0.042 C 
HETATM   18  C13 UNL     1      16.655  33.877  16.749  1.00  0.00     0.171 C 
BRANCH  16  19
HETATM   19  C11 UNL     1      15.491  36.953  17.937  1.00  0.00     0.391 C 
HETATM   20  F1  UNL     1      15.898  37.186  16.631  1.00  0.00    -0.171 F 
HETATM   21  F2  UNL     1      14.095  36.967  17.885  1.00  0.00    -0.171 F 
HETATM   22  F3  UNL     1      15.877  38.030  18.697  1.00  0.00    -0.171 F 
ENDBRANCH  16  19
BRANCH  18  23
HETATM   23  C14 UNL     1      16.156  32.476  16.360  1.00  0.00     0.403 C 
HETATM   24  F4  UNL     1      16.108  32.439  14.986  1.00  0.00    -0.169 F 
HETATM   25  F5  UNL     1      17.149  31.583  16.765  1.00  0.00    -0.169 F 
HETATM   26  F6  UNL     1      14.975  32.204  16.980  1.00  0.00    -0.169 F 
ENDBRANCH  18  23
ENDBRANCH  12  13
ENDBRANCH  11  12
ENDBRANCH   9  11
ENDBRANCH   2   7
BRANCH   1  27
HETATM   27  C2  UNL     1      21.018  28.958  13.449  1.00  0.00     0.054 C 
HETATM   28  C1  UNL     1      22.094  29.717  12.664  1.00  0.00     0.011 C 
ENDBRANCH   1  27
BRANCH   6  29
HETATM   29  C18 UNL     1      19.095  27.768  11.491  1.00  0.00     0.108 C 
HETATM   30  C19 UNL     1      18.300  26.612  12.061  1.00  0.00     0.029 C 
HETATM   31  C20 UNL     1      18.867  25.277  11.715  1.00  0.00     0.022 C 
HETATM   32  C21 UNL     1      19.869  25.448  10.590  1.00  0.00     0.126 C 
HETATM   33  N4  UNL     1      19.253  26.332   9.635  1.00  0.00    -0.350 N 
HETATM   34  C22 UNL     1      18.908  25.831   8.356  1.00  0.00     0.221 C 
HETATM   35  C29 UNL     1      18.967  27.750  10.020  1.00  0.00     0.151 C 
HETATM   36  O2  UNL     1      18.376  26.667   7.545  1.00  0.00    -0.273 OA
BRANCH  34  37
HETATM   37  C23 UNL     1      19.139  24.435   7.975  1.00  0.00     0.130 C 
BRANCH  37  38
HETATM   38  C24 UNL     1      20.243  24.305   6.955  1.00  0.00     0.241 C 
BRANCH  38  39
HETATM   39  N5  UNL     1      21.162  25.387   6.965  1.00  0.00    -0.074 N 
ATOM     40  H52 UNL     1      21.255  25.795   6.034  1.00  0.00     0.277 HD
ATOM     41  H51 UNL     1      20.775  26.190   7.461  1.00  0.00     0.277 HD
BRANCH  39  42
HETATM   42  C25 UNL     1      22.440  25.028   7.495  1.00  0.00     0.237 C 
BRANCH  42  43
HETATM   43  C26 UNL     1      22.859  25.642   8.780  1.00  0.00     0.011 A 
HETATM   44  C27 UNL     1      24.289  26.033   9.001  1.00  0.00     0.007 A 
HETATM   45  C28 UNL     1      23.715  24.889   9.755  1.00  0.00     0.007 A 
ENDBRANCH  42  43
ENDBRANCH  39  42
ENDBRANCH  38  39
ENDBRANCH  37  38
ENDBRANCH  34  37
ENDBRANCH   6  29
TORSDOF 13
ENDMDL
MODEL 4
REMARK VINA RESULT: -9.384384575      6.236     12.313
REMARK  13 active torsions:
REMARK  status: ('A' for Active; 'I' for Inactive)
REMARK    1  A    between atoms: C2_2  and  C3_3 
REMARK    2  A    between atoms: C4_4  and  C5_5 
REMARK       I    between atoms: C5_5  and  N1_7 
REMARK    3  A    between atoms: N1_7  and  C6_9 
REMARK    4  A    between atoms: C6_9  and  C7_10 
REMARK    5  A    between atoms: C7_10  and  N2_11 
REMARK    6  A    between atoms: C10_14  and  C11_15 
REMARK    7  A    between atoms: C13_20  and  C14_21 
REMARK    8  A    between atoms: N3_28  and  C18_29 
REMARK       I    between atoms: N4_33  and  C22_34 
REMARK    9  A    between atoms: C22_34  and  C23_36 
REMARK   10  A    between atoms: C23_36  and  C24_37 
REMARK   11  A    between atoms: C24_37  and  N5_38 
REMARK   12  A    between atoms: N5_38  and  C25_41 
REMARK   13  A    between atoms: C25_41  and  C26_42 
ROOT
HETATM    1  C3  UNL     1      20.232  33.780  16.244  1.00  0.00     0.027 A 
HETATM    2  C4  UNL     1      20.932  34.614  17.057  1.00  0.00     0.056 A 
HETATM    3  C15 UNL     1      22.271  34.209  16.894  1.00  0.00     0.043 A 
HETATM    4  C16 UNL     1      22.335  33.166  16.002  1.00  0.00     0.009 A 
HETATM    5  C17 UNL     1      23.567  32.466  15.559  1.00  0.00     0.068 C 
HETATM    6  N3  UNL     1      21.099  32.900  15.602  1.00  0.00    -0.347 N 
ENDROOT
BRANCH   2   7
HETATM    7  C5  UNL     1      20.600  35.743  17.915  1.00  0.00     0.257 C 
HETATM    8  O1  UNL     1      20.821  35.598  19.175  1.00  0.00    -0.267 OA
HETATM    9  N1  UNL     1      20.082  36.953  17.507  1.00  0.00    -0.332 N 
ATOM     10  H1  UNL     1      19.924  37.018  16.502  1.00  0.00     0.168 HD
BRANCH   9  11
HETATM   11  C6  UNL     1      19.729  38.122  18.221  1.00  0.00     0.102 C 
BRANCH  11  12
HETATM   12  C7  UNL     1      18.465  38.257  18.938  1.00  0.00     0.077 C 
BRANCH  12  13
HETATM   13  N2  UNL     1      17.396  39.050  18.472  1.00  0.00    -0.279 NA
HETATM   14  C8  UNL     1      17.015  38.792  17.096  1.00  0.00     0.096 C 
HETATM   15  C9  UNL     1      16.590  37.370  16.878  1.00  0.00     0.028 C 
HETATM   16  C10 UNL     1      15.249  37.227  17.575  1.00  0.00     0.096 C 
HETATM   17  C12 UNL     1      15.043  38.240  18.637  1.00  0.00     0.042 C 
HETATM   18  C13 UNL     1      16.245  38.786  19.312  1.00  0.00     0.171 C 
BRANCH  16  19
HETATM   19  C11 UNL     1      14.969  35.815  17.977  1.00  0.00     0.391 C 
HETATM   20  F1  UNL     1      13.612  35.524  17.946  1.00  0.00    -0.171 F 
HETATM   21  F2  UNL     1      15.546  34.933  17.061  1.00  0.00    -0.171 F 
HETATM   22  F3  UNL     1      15.445  35.475  19.220  1.00  0.00    -0.171 F 
ENDBRANCH  16  19
BRANCH  18  23
HETATM   23  C14 UNL     1      15.792  40.076  20.013  1.00  0.00     0.403 C 
HETATM   24  F4  UNL     1      14.493  40.305  19.621  1.00  0.00    -0.169 F 
HETATM   25  F5  UNL     1      15.768  39.788  21.379  1.00  0.00    -0.169 F 
HETATM   26  F6  UNL     1      16.656  41.092  19.745  1.00  0.00    -0.169 F 
ENDBRANCH  18  23
ENDBRANCH  12  13
ENDBRANCH  11  12
ENDBRANCH   9  11
ENDBRANCH   2   7
BRANCH   1  27
HETATM   27  C2  UNL     1      18.751  33.806  16.090  1.00  0.00     0.054 C 
HETATM   28  C1  UNL     1      18.099  32.880  17.124  1.00  0.00     0.011 C 
ENDBRANCH   1  27
BRANCH   6  29
HETATM   29  C18 UNL     1      20.611  31.928  14.691  1.00  0.00     0.108 C 
HETATM   30  C19 UNL     1      20.824  32.418  13.273  1.00  0.00     0.029 C 
HETATM   31  C20 UNL     1      19.969  31.718  12.271  1.00  0.00     0.022 C 
HETATM   32  C21 UNL     1      19.394  30.468  12.908  1.00  0.00     0.126 C 
HETATM   33  N4  UNL     1      20.480  29.841  13.615  1.00  0.00    -0.350 N 
HETATM   34  C22 UNL     1      20.960  28.587  13.166  1.00  0.00     0.221 C 
HETATM   35  C29 UNL     1      21.095  30.536  14.788  1.00  0.00     0.151 C 
HETATM   36  O2  UNL     1      21.917  28.072  13.842  1.00  0.00    -0.273 OA
BRANCH  34  37
HETATM   37  C23 UNL     1      20.400  27.909  11.993  1.00  0.00     0.130 C 
BRANCH  37  38
HETATM   38  C24 UNL     1      21.436  27.704  10.915  1.00  0.00     0.241 C 
BRANCH  38  39
HETATM   39  N5  UNL     1      22.291  28.820  10.722  1.00  0.00    -0.074 N 
ATOM     40  H52 UNL     1      21.907  29.457  10.024  1.00  0.00     0.277 HD
ATOM     41  H51 UNL     1      22.277  29.435  11.536  1.00  0.00     0.277 HD
BRANCH  39  42
HETATM   42  C25 UNL     1      23.630  28.445  10.390  1.00  0.00     0.237 C 
BRANCH  42  43
HETATM   43  C26 UNL     1      24.189  27.223  11.021  1.00  0.00     0.011 A 
HETATM   44  C27 UNL     1      25.051  27.330  12.243  1.00  0.00     0.007 A 
HETATM   45  C28 UNL     1      25.655  26.917  10.950  1.00  0.00     0.007 A 
ENDBRANCH  42  43
ENDBRANCH  39  42
ENDBRANCH  38  39
ENDBRANCH  37  38
ENDBRANCH  34  37
ENDBRANCH   6  29
TORSDOF 13
ENDMDL
MODEL 5
REMARK VINA RESULT: -9.381490173      5.298     12.454
REMARK  13 active torsions:
REMARK  status: ('A' for Active; 'I' for Inactive)
REMARK    1  A    between atoms: C2_2  and  C3_3 
REMARK    2  A    between atoms: C4_4  and  C5_5 
REMARK       I    between atoms: C5_5  and  N1_7 
REMARK    3  A    between atoms: N1_7  and  C6_9 
REMARK    4  A    between atoms: C6_9  and  C7_10 
REMARK    5  A    between atoms: C7_10  and  N2_11 
REMARK    6  A    between atoms: C10_14  and  C11_15 
REMARK    7  A    between atoms: C13_20  and  C14_21 
REMARK    8  A    between atoms: N3_28  and  C18_29 
REMARK       I    between atoms: N4_33  and  C22_34 
REMARK    9  A    between atoms: C22_34  and  C23_36 
REMARK   10  A    between atoms: C23_36  and  C24_37 
REMARK   11  A    between atoms: C24_37  and  N5_38 
REMARK   12  A    between atoms: N5_38  and  C25_41 
REMARK   13  A    between atoms: C25_41  and  C26_42 
ROOT
HETATM    1  C3  UNL     1      20.228  30.350  13.448  1.00  0.00     0.027 A 
HETATM    2  C4  UNL     1      19.318  31.125  14.094  1.00  0.00     0.056 A 
HETATM    3  C15 UNL     1      18.283  30.231  14.429  1.00  0.00     0.043 A 
HETATM    4  C16 UNL     1      18.596  28.969  13.987  1.00  0.00     0.009 A 
HETATM    5  C17 UNL     1      17.766  27.750  14.152  1.00  0.00     0.068 C 
HETATM    6  N3  UNL     1      19.779  29.033  13.389  1.00  0.00    -0.347 N 
ENDROOT
BRANCH   2   7
HETATM    7  C5  UNL     1      19.250  32.521  14.501  1.00  0.00     0.257 C 
HETATM    8  O1  UNL     1      18.471  33.286  13.820  1.00  0.00    -0.267 OA
HETATM    9  N1  UNL     1      19.933  33.099  15.549  1.00  0.00    -0.332 N 
ATOM     10  H1  UNL     1      20.539  32.454  16.055  1.00  0.00     0.168 HD
BRANCH   9  11
HETATM   11  C6  UNL     1      19.952  34.421  16.054  1.00  0.00     0.102 C 
BRANCH  11  12
HETATM   12  C7  UNL     1      18.840  34.994  16.806  1.00  0.00     0.077 C 
BRANCH  12  13
HETATM   13  N2  UNL     1      17.956  34.220  17.585  1.00  0.00    -0.279 NA
HETATM   14  C8  UNL     1      17.846  34.648  18.968  1.00  0.00     0.096 C 
HETATM   15  C9  UNL     1      17.363  36.064  19.090  1.00  0.00     0.028 C 
HETATM   16  C10 UNL     1      15.901  36.039  18.684  1.00  0.00     0.096 C 
HETATM   17  C12 UNL     1      15.562  34.878  17.827  1.00  0.00     0.042 C 
HETATM   18  C13 UNL     1      16.640  34.305  16.985  1.00  0.00     0.171 C 
BRANCH  16  19
HETATM   19  C11 UNL     1      15.433  37.364  18.176  1.00  0.00     0.391 C 
HETATM   20  F1  UNL     1      15.942  37.648  16.916  1.00  0.00    -0.171 F 
HETATM   21  F2  UNL     1      14.046  37.349  18.007  1.00  0.00    -0.171 F 
HETATM   22  F3  UNL     1      15.728  38.423  18.999  1.00  0.00    -0.171 F 
ENDBRANCH  16  19
BRANCH  18  23
HETATM   23  C14 UNL     1      16.157  32.908  16.564  1.00  0.00     0.403 C 
HETATM   24  F4  UNL     1      17.143  32.021  16.927  1.00  0.00    -0.169 F 
HETATM   25  F5  UNL     1      15.039  32.630  17.352  1.00  0.00    -0.169 F 
HETATM   26  F6  UNL     1      15.836  32.895  15.242  1.00  0.00    -0.169 F 
ENDBRANCH  18  23
ENDBRANCH  12  13
ENDBRANCH  11  12
ENDBRANCH   9  11
ENDBRANCH   2   7
BRANCH   1  27
HETATM   27  C2  UNL     1      21.506  30.856  12.875  1.00  0.00     0.054 C 
HETATM   28  C1  UNL     1      22.491  31.191  14.001  1.00  0.00     0.011 C 
ENDBRANCH   1  27
BRANCH   6  29
HETATM   29  C18 UNL     1      20.556  28.023  12.767  1.00  0.00     0.108 C 
HETATM   30  C19 UNL     1      20.281  28.024  11.277  1.00  0.00     0.029 C 
HETATM   31  C20 UNL     1      20.674  26.754  10.602  1.00  0.00     0.022 C 
HETATM   32  C21 UNL     1      21.570  25.961  11.535  1.00  0.00     0.126 C 
HETATM   33  N4  UNL     1      22.510  26.904  12.086  1.00  0.00    -0.350 N 
HETATM   34  C22 UNL     1      23.879  26.785  11.749  1.00  0.00     0.221 C 
HETATM   35  C29 UNL     1      22.017  27.999  12.978  1.00  0.00     0.151 C 
HETATM   36  O2  UNL     1      24.669  27.642  12.280  1.00  0.00    -0.273 OA
BRANCH  34  37
HETATM   37  C23 UNL     1      24.375  25.746  10.843  1.00  0.00     0.130 C 
BRANCH  37  38
HETATM   38  C24 UNL     1      24.761  26.309   9.497  1.00  0.00     0.241 C 
BRANCH  38  39
HETATM   39  N5  UNL     1      23.652  26.620   8.667  1.00  0.00    -0.074 N 
ATOM     40  H52 UNL     1      22.870  26.972   9.221  1.00  0.00     0.277 HD
ATOM     41  H51 UNL     1      23.841  27.447   8.101  1.00  0.00     0.277 HD
BRANCH  39  42
HETATM   42  C25 UNL     1      23.244  25.522   7.847  1.00  0.00     0.237 C 
BRANCH  42  43
HETATM   43  C26 UNL     1      24.299  24.736   7.161  1.00  0.00     0.011 A 
HETATM   44  C27 UNL     1      24.346  24.677   5.664  1.00  0.00     0.007 A 
HETATM   45  C28 UNL     1      23.970  23.465   6.436  1.00  0.00     0.007 A 
ENDBRANCH  42  43
ENDBRANCH  39  42
ENDBRANCH  38  39
ENDBRANCH  37  38
ENDBRANCH  34  37
ENDBRANCH   6  29
TORSDOF 13
ENDMDL
