MODEL 1
REMARK VINA RESULT: -8.514756248      0.000      0.000
REMARK  17 active torsions:
REMARK  status: ('A' for Active; 'I' for Inactive)
REMARK    1  A    between atoms: C2_2  and  C3_3 
REMARK    2  A    between atoms: C3_3  and  N1_4 
REMARK    3  A    between atoms: N1_4  and  C4_6 
REMARK    4  A    between atoms: C5_9  and  N3_10 
REMARK    5  A    between atoms: N4_13  and  C8_14 
REMARK    6  A    between atoms: C8_14  and  O1_15 
REMARK    7  A    between atoms: C8_14  and  C9_17 
REMARK    8  A    between atoms: C9_17  and  C10_18 
REMARK    9  A    between atoms: C18_29  and  C19_30 
REMARK   10  A    between atoms: C20_34  and  N6_35 
REMARK   11  A    between atoms: N6_35  and  C21_37 
REMARK   12  A    between atoms: C21_37  and  C22_38 
REMARK   13  A    between atoms: C22_38  and  C23_39 
REMARK   14  A    between atoms: C23_39  and  C24_40 
REMARK   15  A    between atoms: C24_40  and  C25_41 
REMARK   16  A    between atoms: C25_41  and  C26_42 
REMARK   17  A    between atoms: C26_42  and  C27_43 
ROOT
HETATM    1  C4  UNL     1      18.725  31.391  16.416  1.00  0.00     0.681 A 
HETATM    2  N2  UNL     1      19.289  30.704  15.406  1.00  0.00    -0.176 N 
ATOM      3  H2  UNL     1      18.734  30.005  14.913  1.00  0.00     0.186 HD
HETATM    4  C5  UNL     1      20.584  30.912  15.022  1.00  0.00     0.138 A 
HETATM    5  C18 UNL     1      21.361  31.833  15.657  1.00  0.00     0.136 A 
HETATM    6  C20 UNL     1      20.785  32.553  16.709  1.00  0.00     0.136 A 
HETATM    7  N7  UNL     1      19.524  32.305  17.030  1.00  0.00    -0.176 N 
ATOM      8  H7  UNL     1      19.120  32.841  17.799  1.00  0.00     0.186 HD
ENDROOT
BRANCH   4   9
HETATM    9  N3  UNL     1      20.980  30.084  13.907  1.00  0.00    -0.363 N 
HETATM   10  C6  UNL     1      21.433  28.744  14.225  1.00  0.00     0.144 C 
HETATM   11  C7  UNL     1      22.550  28.383  13.194  1.00  0.00     0.144 C 
HETATM   12  N4  UNL     1      21.886  28.557  11.945  1.00  0.00    -0.360 N 
HETATM   13  C16 UNL     1      21.798  29.950  11.559  1.00  0.00     0.144 C 
HETATM   14  C17 UNL     1      20.893  30.635  12.585  1.00  0.00     0.144 C 
BRANCH  12  15
HETATM   15  C8  UNL     1      21.423  27.543  11.106  1.00  0.00     0.143 C 
BRANCH  15  16
HETATM   16  O1  UNL     1      22.228  27.204  10.124  1.00  0.00    -0.347 OA
ATOM     17  H1  UNL     1      21.864  27.272   9.250  1.00  0.00     0.219 HD
ENDBRANCH  15  16
BRANCH  15  18
HETATM   18  C9  UNL     1      20.177  26.787  11.145  1.00  0.00     0.101 C 
HETATM   19  C13 UNL     1      19.154  27.558  10.205  1.00  0.00     0.049 C 
HETATM   20  C14 UNL     1      18.341  28.436  11.134  1.00  0.00     0.106 C 
HETATM   21  C15 UNL     1      18.521  27.863  12.479  1.00  0.00     0.218 C 
HETATM   22  O2  UNL     1      17.963  28.276  13.521  1.00  0.00    -0.274 OA
HETATM   23  N5  UNL     1      19.415  26.800  12.338  1.00  0.00    -0.344 N 
ATOM     24  H5  UNL     1      19.513  26.076  13.051  1.00  0.00     0.163 HD
BRANCH  18  25
HETATM   25  C10 UNL     1      20.231  25.404  10.556  1.00  0.00     0.014 C 
HETATM   26  C11 UNL     1      19.342  25.310   9.308  1.00  0.00     0.012 C 
HETATM   27  C12 UNL     1      19.754  24.339  11.524  1.00  0.00     0.012 C 
ENDBRANCH  18  25
ENDBRANCH  15  18
ENDBRANCH  12  15
ENDBRANCH   4   9
BRANCH   5  28
HETATM   28  C19 UNL     1      22.766  32.042  15.317  1.00  0.00     0.424 C 
HETATM   29  F1  UNL     1      23.337  31.032  14.560  1.00  0.00    -0.166 F 
HETATM   30  F2  UNL     1      22.726  33.118  14.349  1.00  0.00    -0.166 F 
HETATM   31  F3  UNL     1      23.557  32.558  16.300  1.00  0.00    -0.166 F 
ENDBRANCH   5  28
BRANCH   1  32
HETATM   32  N1  UNL     1      17.509  31.177  16.758  1.00  0.00    -0.226 N 
ATOM     33  H1  UNL     1      17.363  30.600  17.587  1.00  0.00     0.177 HD
BRANCH  32  34
HETATM   34  C3  UNL     1      16.347  31.654  16.109  1.00  0.00     0.137 C 
BRANCH  34  35
HETATM   35  C2  UNL     1      16.030  33.082  16.508  1.00  0.00     0.016 C 
HETATM   36  C1  UNL     1      16.497  34.086  15.494  1.00  0.00     0.006 C 
ENDBRANCH  34  35
ENDBRANCH  32  34
ENDBRANCH   1  32
BRANCH   6  37
HETATM   37  N6  UNL     1      21.495  33.428  17.371  1.00  0.00    -0.375 N 
ATOM     38  H6  UNL     1      22.222  33.085  17.999  1.00  0.00     0.161 HD
BRANCH  37  39
HETATM   39  C21 UNL     1      21.307  34.838  17.263  1.00  0.00     0.121 C 
BRANCH  39  40
HETATM   40  C22 UNL     1      20.390  35.493  18.212  1.00  0.00     0.020 C 
BRANCH  40  41
HETATM   41  C23 UNL     1      19.027  35.811  17.720  1.00  0.00     0.002 C 
BRANCH  41  42
HETATM   42  C24 UNL     1      18.035  35.333  18.750  1.00  0.00     0.000 C 
BRANCH  42  43
HETATM   43  C25 UNL     1      16.983  36.342  19.035  1.00  0.00     0.009 C 
BRANCH  43  44
HETATM   44  C26 UNL     1      15.605  35.800  18.930  1.00  0.00     0.117 C 
BRANCH  44  45
HETATM   45  C27 UNL     1      14.814  36.544  17.837  1.00  0.00     0.387 C 
HETATM   46  F4  UNL     1      13.940  35.653  17.282  1.00  0.00    -0.171 F 
HETATM   47  F5  UNL     1      15.743  36.913  16.873  1.00  0.00    -0.171 F 
HETATM   48  F6  UNL     1      14.163  37.637  18.310  1.00  0.00    -0.171 F 
ENDBRANCH  44  45
ENDBRANCH  43  44
ENDBRANCH  42  43
ENDBRANCH  41  42
ENDBRANCH  40  41
ENDBRANCH  39  40
ENDBRANCH  37  39
ENDBRANCH   6  37
TORSDOF 17
ENDMDL
MODEL 2
REMARK VINA RESULT: -8.344077434      0.997      1.215
REMARK  17 active torsions:
REMARK  status: ('A' for Active; 'I' for Inactive)
REMARK    1  A    between atoms: C2_2  and  C3_3 
REMARK    2  A    between atoms: C3_3  and  N1_4 
REMARK    3  A    between atoms: N1_4  and  C4_6 
REMARK    4  A    between atoms: C5_9  and  N3_10 
REMARK    5  A    between atoms: N4_13  and  C8_14 
REMARK    6  A    between atoms: C8_14  and  O1_15 
REMARK    7  A    between atoms: C8_14  and  C9_17 
REMARK    8  A    between atoms: C9_17  and  C10_18 
REMARK    9  A    between atoms: C18_29  and  C19_30 
REMARK   10  A    between atoms: C20_34  and  N6_35 
REMARK   11  A    between atoms: N6_35  and  C21_37 
REMARK   12  A    between atoms: C21_37  and  C22_38 
REMARK   13  A    between atoms: C22_38  and  C23_39 
REMARK   14  A    between atoms: C23_39  and  C24_40 
REMARK   15  A    between atoms: C24_40  and  C25_41 
REMARK   16  A    between atoms: C25_41  and  C26_42 
REMARK   17  A    between atoms: C26_42  and  C27_43 
ROOT
HETATM    1  C4  UNL     1      18.806  32.510  16.572  1.00  0.00     0.681 A 
HETATM    2  N2  UNL     1      19.255  31.677  15.615  1.00  0.00    -0.176 N 
ATOM      3  H2  UNL     1      18.597  31.041  15.165  1.00  0.00     0.186 HD
HETATM    4  C5  UNL     1      20.565  31.656  15.228  1.00  0.00     0.138 A 
HETATM    5  C18 UNL     1      21.477  32.488  15.806  1.00  0.00     0.136 A 
HETATM    6  C20 UNL     1      21.022  33.356  16.803  1.00  0.00     0.136 A 
HETATM    7  N7  UNL     1      19.738  33.328  17.130  1.00  0.00    -0.176 N 
ATOM      8  H7  UNL     1      19.424  33.971  17.858  1.00  0.00     0.186 HD
ENDROOT
BRANCH   4   9
HETATM    9  N3  UNL     1      20.826  30.704  14.174  1.00  0.00    -0.363 N 
HETATM   10  C6  UNL     1      21.033  29.328  14.582  1.00  0.00     0.144 C 
HETATM   11  C7  UNL     1      22.084  28.716  13.602  1.00  0.00     0.144 C 
HETATM   12  N4  UNL     1      21.478  28.923  12.329  1.00  0.00    -0.360 N 
HETATM   13  C16 UNL     1      21.641  30.284  11.859  1.00  0.00     0.144 C 
HETATM   14  C17 UNL     1      20.855  31.178  12.820  1.00  0.00     0.144 C 
BRANCH  12  15
HETATM   15  C8  UNL     1      20.857  27.955  11.540  1.00  0.00     0.143 C 
BRANCH  15  16
HETATM   16  O1  UNL     1      21.590  27.452  10.572  1.00  0.00    -0.347 OA
ATOM     17  H1  UNL     1      21.465  26.527  10.398  1.00  0.00     0.219 HD
ENDBRANCH  15  16
BRANCH  15  18
HETATM   18  C9  UNL     1      19.510  27.401  11.620  1.00  0.00     0.101 C 
HETATM   19  C13 UNL     1      18.569  28.390  10.808  1.00  0.00     0.049 C 
HETATM   20  C14 UNL     1      17.964  29.311  11.848  1.00  0.00     0.106 C 
HETATM   21  C15 UNL     1      18.132  28.617  13.137  1.00  0.00     0.218 C 
HETATM   22  O2  UNL     1      17.712  29.032  14.240  1.00  0.00    -0.274 OA
HETATM   23  N5  UNL     1      18.834  27.442  12.863  1.00  0.00    -0.344 N 
ATOM     24  H5  UNL     1      18.858  26.660  13.518  1.00  0.00     0.163 HD
BRANCH  18  25
HETATM   25  C10 UNL     1      19.306  26.075  10.939  1.00  0.00     0.014 C 
HETATM   26  C11 UNL     1      18.500  26.247   9.645  1.00  0.00     0.012 C 
HETATM   27  C12 UNL     1      18.552  25.085  11.806  1.00  0.00     0.012 C 
ENDBRANCH  18  25
ENDBRANCH  15  18
ENDBRANCH  12  15
ENDBRANCH   4   9
BRANCH   5  28
HETATM   28  C19 UNL     1      22.897  32.454  15.465  1.00  0.00     0.424 C 
HETATM   29  F1  UNL     1      23.375  31.207  15.094  1.00  0.00    -0.166 F 
HETATM   30  F2  UNL     1      22.959  33.156  14.201  1.00  0.00    -0.166 F 
HETATM   31  F3  UNL     1      23.727  33.191  16.254  1.00  0.00    -0.166 F 
ENDBRANCH   5  28
BRANCH   1  32
HETATM   32  N1  UNL     1      17.572  32.509  16.918  1.00  0.00    -0.226 N 
ATOM     33  H1  UNL     1      17.379  32.466  17.919  1.00  0.00     0.177 HD
BRANCH  32  34
HETATM   34  C3  UNL     1      16.449  32.562  16.060  1.00  0.00     0.137 C 
BRANCH  34  35
HETATM   35  C2  UNL     1      15.731  33.893  16.161  1.00  0.00     0.016 C 
HETATM   36  C1  UNL     1      16.307  34.935  15.248  1.00  0.00     0.006 C 
ENDBRANCH  34  35
ENDBRANCH  32  34
ENDBRANCH   1  32
BRANCH   6  37
HETATM   37  N6  UNL     1      21.860  34.154  17.411  1.00  0.00    -0.375 N 
ATOM     38  H6  UNL     1      22.826  34.178  17.085  1.00  0.00     0.161 HD
BRANCH  37  39
HETATM   39  C21 UNL     1      21.495  34.993  18.505  1.00  0.00     0.121 C 
BRANCH  39  40
HETATM   40  C22 UNL     1      21.292  36.429  18.244  1.00  0.00     0.020 C 
BRANCH  40  41
HETATM   41  C23 UNL     1      19.903  36.871  17.966  1.00  0.00     0.002 C 
BRANCH  41  42
HETATM   42  C24 UNL     1      19.019  36.365  19.077  1.00  0.00     0.000 C 
BRANCH  42  43
HETATM   43  C25 UNL     1      17.684  35.934  18.588  1.00  0.00     0.009 C 
BRANCH  43  44
HETATM   44  C26 UNL     1      16.566  36.735  19.148  1.00  0.00     0.117 C 
BRANCH  44  45
HETATM   45  C27 UNL     1      15.833  37.495  18.026  1.00  0.00     0.387 C 
HETATM   46  F4  UNL     1      15.375  38.669  18.555  1.00  0.00    -0.171 F 
HETATM   47  F5  UNL     1      14.743  36.711  17.677  1.00  0.00    -0.171 F 
HETATM   48  F6  UNL     1      16.620  37.723  16.944  1.00  0.00    -0.171 F 
ENDBRANCH  44  45
ENDBRANCH  43  44
ENDBRANCH  42  43
ENDBRANCH  41  42
ENDBRANCH  40  41
ENDBRANCH  39  40
ENDBRANCH  37  39
ENDBRANCH   6  37
TORSDOF 17
ENDMDL
MODEL 3
REMARK VINA RESULT: -8.331950313      3.585      9.874
REMARK  17 active torsions:
REMARK  status: ('A' for Active; 'I' for Inactive)
REMARK    1  A    between atoms: C2_2  and  C3_3 
REMARK    2  A    between atoms: C3_3  and  N1_4 
REMARK    3  A    between atoms: N1_4  and  C4_6 
REMARK    4  A    between atoms: C5_9  and  N3_10 
REMARK    5  A    between atoms: N4_13  and  C8_14 
REMARK    6  A    between atoms: C8_14  and  O1_15 
REMARK    7  A    between atoms: C8_14  and  C9_17 
REMARK    8  A    between atoms: C9_17  and  C10_18 
REMARK    9  A    between atoms: C18_29  and  C19_30 
REMARK   10  A    between atoms: C20_34  and  N6_35 
REMARK   11  A    between atoms: N6_35  and  C21_37 
REMARK   12  A    between atoms: C21_37  and  C22_38 
REMARK   13  A    between atoms: C22_38  and  C23_39 
REMARK   14  A    between atoms: C23_39  and  C24_40 
REMARK   15  A    between atoms: C24_40  and  C25_41 
REMARK   16  A    between atoms: C25_41  and  C26_42 
REMARK   17  A    between atoms: C26_42  and  C27_43 
ROOT
HETATM    1  C4  UNL     1      19.107  28.828  14.838  1.00  0.00     0.681 A 
HETATM    2  N2  UNL     1      18.717  30.070  15.177  1.00  0.00    -0.176 N 
ATOM      3  H2  UNL     1      17.728  30.246  15.354  1.00  0.00     0.186 HD
HETATM    4  C5  UNL     1      19.604  31.104  15.291  1.00  0.00     0.138 A 
HETATM    5  C18 UNL     1      20.933  30.911  15.060  1.00  0.00     0.136 A 
HETATM    6  C20 UNL     1      21.350  29.624  14.705  1.00  0.00     0.136 A 
HETATM    7  N7  UNL     1      20.439  28.666  14.615  1.00  0.00    -0.176 N 
ATOM      8  H7  UNL     1      20.762  27.733  14.357  1.00  0.00     0.186 HD
ENDROOT
BRANCH   4   9
HETATM    9  N3  UNL     1      18.977  32.343  15.684  1.00  0.00    -0.363 N 
HETATM   10  C6  UNL     1      18.705  32.512  17.098  1.00  0.00     0.144 C 
HETATM   11  C7  UNL     1      17.379  33.330  17.213  1.00  0.00     0.144 C 
HETATM   12  N4  UNL     1      17.678  34.510  16.472  1.00  0.00    -0.360 N 
HETATM   13  C16 UNL     1      17.577  34.300  15.042  1.00  0.00     0.144 C 
HETATM   14  C17 UNL     1      18.679  33.308  14.664  1.00  0.00     0.144 C 
BRANCH  12  15
HETATM   15  C8  UNL     1      17.962  35.769  17.000  1.00  0.00     0.143 C 
BRANCH  15  16
HETATM   16  O1  UNL     1      19.233  36.099  17.036  1.00  0.00    -0.347 OA
ATOM     17  H1  UNL     1      19.428  37.012  16.866  1.00  0.00     0.219 HD
ENDBRANCH  15  16
BRANCH  15  18
HETATM   18  C9  UNL     1      17.063  36.794  17.522  1.00  0.00     0.101 C 
HETATM   19  C13 UNL     1      16.860  36.470  19.064  1.00  0.00     0.049 C 
HETATM   20  C14 UNL     1      15.571  35.678  19.140  1.00  0.00     0.106 C 
HETATM   21  C15 UNL     1      14.862  35.954  17.878  1.00  0.00     0.218 C 
HETATM   22  O2  UNL     1      13.725  35.524  17.580  1.00  0.00    -0.274 OA
HETATM   23  N5  UNL     1      15.706  36.770  17.123  1.00  0.00    -0.344 N 
ATOM     24  H5  UNL     1      15.365  37.317  16.331  1.00  0.00     0.163 HD
BRANCH  18  25
HETATM   25  C10 UNL     1      17.601  38.198  17.520  1.00  0.00     0.014 C 
HETATM   26  C11 UNL     1      18.055  38.608  18.928  1.00  0.00     0.012 C 
HETATM   27  C12 UNL     1      16.572  39.216  17.069  1.00  0.00     0.012 C 
ENDBRANCH  18  25
ENDBRANCH  15  18
ENDBRANCH  12  15
ENDBRANCH   4   9
BRANCH   5  28
HETATM   28  C19 UNL     1      21.904  32.001  15.111  1.00  0.00     0.424 C 
HETATM   29  F1  UNL     1      23.228  31.597  15.186  1.00  0.00    -0.166 F 
HETATM   30  F2  UNL     1      21.864  32.556  13.775  1.00  0.00    -0.166 F 
HETATM   31  F3  UNL     1      21.572  33.071  15.886  1.00  0.00    -0.166 F 
ENDBRANCH   5  28
BRANCH   1  32
HETATM   32  N1  UNL     1      18.256  27.876  14.736  1.00  0.00    -0.226 N 
ATOM     33  H1  UNL     1      18.087  27.323  15.577  1.00  0.00     0.177 HD
BRANCH  32  34
HETATM   34  C3  UNL     1      17.526  27.510  13.582  1.00  0.00     0.137 C 
BRANCH  34  35
HETATM   35  C2  UNL     1      18.427  27.375  12.370  1.00  0.00     0.016 C 
HETATM   36  C1  UNL     1      18.165  28.426  11.332  1.00  0.00     0.006 C 
ENDBRANCH  34  35
ENDBRANCH  32  34
ENDBRANCH   1  32
BRANCH   6  37
HETATM   37  N6  UNL     1      22.609  29.391  14.444  1.00  0.00    -0.375 N 
ATOM     38  H6  UNL     1      23.285  29.488  15.202  1.00  0.00     0.161 HD
BRANCH  37  39
HETATM   39  C21 UNL     1      23.089  29.007  13.157  1.00  0.00     0.121 C 
BRANCH  39  40
HETATM   40  C22 UNL     1      22.250  29.308  11.984  1.00  0.00     0.020 C 
BRANCH  40  41
HETATM   41  C23 UNL     1      21.913  28.174  11.090  1.00  0.00     0.002 C 
BRANCH  41  42
HETATM   42  C24 UNL     1      22.214  26.892  11.825  1.00  0.00     0.000 C 
BRANCH  42  43
HETATM   43  C25 UNL     1      23.076  25.975  11.037  1.00  0.00     0.009 C 
BRANCH  43  44
HETATM   44  C26 UNL     1      24.033  26.685  10.150  1.00  0.00     0.117 C 
BRANCH  44  45
HETATM   45  C27 UNL     1      25.326  27.027  10.915  1.00  0.00     0.387 C 
HETATM   46  F4  UNL     1      25.339  28.378  11.117  1.00  0.00    -0.171 F 
HETATM   47  F5  UNL     1      26.374  26.695  10.068  1.00  0.00    -0.171 F 
HETATM   48  F6  UNL     1      25.434  26.357  12.091  1.00  0.00    -0.171 F 
ENDBRANCH  44  45
ENDBRANCH  43  44
ENDBRANCH  42  43
ENDBRANCH  41  42
ENDBRANCH  40  41
ENDBRANCH  39  40
ENDBRANCH  37  39
ENDBRANCH   6  37
TORSDOF 17
ENDMDL
MODEL 4
REMARK VINA RESULT: -8.281447074      1.081      1.977
REMARK  17 active torsions:
REMARK  status: ('A' for Active; 'I' for Inactive)
REMARK    1  A    between atoms: C2_2  and  C3_3 
REMARK    2  A    between atoms: C3_3  and  N1_4 
REMARK    3  A    between atoms: N1_4  and  C4_6 
REMARK    4  A    between atoms: C5_9  and  N3_10 
REMARK    5  A    between atoms: N4_13  and  C8_14 
REMARK    6  A    between atoms: C8_14  and  O1_15 
REMARK    7  A    between atoms: C8_14  and  C9_17 
REMARK    8  A    between atoms: C9_17  and  C10_18 
REMARK    9  A    between atoms: C18_29  and  C19_30 
REMARK   10  A    between atoms: C20_34  and  N6_35 
REMARK   11  A    between atoms: N6_35  and  C21_37 
REMARK   12  A    between atoms: C21_37  and  C22_38 
REMARK   13  A    between atoms: C22_38  and  C23_39 
REMARK   14  A    between atoms: C23_39  and  C24_40 
REMARK   15  A    between atoms: C24_40  and  C25_41 
REMARK   16  A    between atoms: C25_41  and  C26_42 
REMARK   17  A    between atoms: C26_42  and  C27_43 
ROOT
HETATM    1  C4  UNL     1      18.714  31.376  16.286  1.00  0.00     0.681 A 
HETATM    2  N2  UNL     1      19.289  30.695  15.278  1.00  0.00    -0.176 N 
ATOM      3  H2  UNL     1      18.726  30.031  14.747  1.00  0.00     0.186 HD
HETATM    4  C5  UNL     1      20.604  30.865  14.945  1.00  0.00     0.138 A 
HETATM    5  C18 UNL     1      21.391  31.739  15.633  1.00  0.00     0.136 A 
HETATM    6  C20 UNL     1      20.804  32.451  16.684  1.00  0.00     0.136 A 
HETATM    7  N7  UNL     1      19.524  32.242  16.954  1.00  0.00    -0.176 N 
ATOM      8  H7  UNL     1      19.112  32.772  17.723  1.00  0.00     0.186 HD
ENDROOT
BRANCH   4   9
HETATM    9  N3  UNL     1      21.010  30.053  13.823  1.00  0.00    -0.363 N 
HETATM   10  C6  UNL     1      21.271  28.653  14.096  1.00  0.00     0.144 C 
HETATM   11  C7  UNL     1      22.435  28.213  13.152  1.00  0.00     0.144 C 
HETATM   12  N4  UNL     1      21.922  28.529  11.860  1.00  0.00    -0.360 N 
HETATM   13  C16 UNL     1      22.034  29.941  11.556  1.00  0.00     0.144 C 
HETATM   14  C17 UNL     1      21.117  30.677  12.535  1.00  0.00     0.144 C 
BRANCH  12  15
HETATM   15  C8  UNL     1      21.430  27.623  10.921  1.00  0.00     0.143 C 
BRANCH  15  16
HETATM   16  O1  UNL     1      22.321  27.109  10.103  1.00  0.00    -0.347 OA
ATOM     17  H1  UNL     1      22.081  26.285   9.698  1.00  0.00     0.219 HD
ENDBRANCH  15  16
BRANCH  15  18
HETATM   18  C9  UNL     1      20.069  27.146  10.699  1.00  0.00     0.101 C 
HETATM   19  C13 UNL     1      19.815  26.000  11.770  1.00  0.00     0.049 C 
HETATM   20  C14 UNL     1      20.104  24.703  11.042  1.00  0.00     0.106 C 
HETATM   21  C15 UNL     1      20.032  25.028   9.607  1.00  0.00     0.218 C 
HETATM   22  O2  UNL     1      20.161  24.206   8.673  1.00  0.00    -0.274 OA
HETATM   23  N5  UNL     1      19.795  26.402   9.526  1.00  0.00    -0.344 N 
ATOM     24  H5  UNL     1      19.447  26.842   8.675  1.00  0.00     0.163 HD
BRANCH  18  25
HETATM   25  C10 UNL     1      18.974  28.140  10.973  1.00  0.00     0.014 C 
HETATM   26  C11 UNL     1      18.273  27.823  12.301  1.00  0.00     0.012 C 
HETATM   27  C12 UNL     1      17.907  28.144   9.896  1.00  0.00     0.012 C 
ENDBRANCH  18  25
ENDBRANCH  15  18
ENDBRANCH  12  15
ENDBRANCH   4   9
BRANCH   5  28
HETATM   28  C19 UNL     1      22.814  31.904  15.349  1.00  0.00     0.424 C 
HETATM   29  F1  UNL     1      23.419  30.806  14.758  1.00  0.00    -0.166 F 
HETATM   30  F2  UNL     1      22.834  32.849  14.253  1.00  0.00    -0.166 F 
HETATM   31  F3  UNL     1      23.552  32.539  16.302  1.00  0.00    -0.166 F 
ENDBRANCH   5  28
BRANCH   1  32
HETATM   32  N1  UNL     1      17.480  31.198  16.580  1.00  0.00    -0.226 N 
ATOM     33  H1  UNL     1      17.221  30.272  16.922  1.00  0.00     0.177 HD
BRANCH  32  34
HETATM   34  C3  UNL     1      16.438  32.149  16.480  1.00  0.00     0.137 C 
BRANCH  34  35
HETATM   35  C2  UNL     1      16.444  32.846  15.134  1.00  0.00     0.016 C 
HETATM   36  C1  UNL     1      17.051  34.217  15.192  1.00  0.00     0.006 C 
ENDBRANCH  34  35
ENDBRANCH  32  34
ENDBRANCH   1  32
BRANCH   6  37
HETATM   37  N6  UNL     1      21.521  33.281  17.395  1.00  0.00    -0.375 N 
ATOM     38  H6  UNL     1      22.273  32.900  17.970  1.00  0.00     0.161 HD
BRANCH  37  39
HETATM   39  C21 UNL     1      21.307  34.691  17.411  1.00  0.00     0.121 C 
BRANCH  39  40
HETATM   40  C22 UNL     1      20.395  35.246  18.426  1.00  0.00     0.020 C 
BRANCH  40  41
HETATM   41  C23 UNL     1      19.089  35.759  17.946  1.00  0.00     0.002 C 
BRANCH  41  42
HETATM   42  C24 UNL     1      18.001  35.103  18.760  1.00  0.00     0.000 C 
BRANCH  42  43
HETATM   43  C25 UNL     1      16.863  36.019  19.028  1.00  0.00     0.009 C 
BRANCH  43  44
HETATM   44  C26 UNL     1      15.537  35.392  18.801  1.00  0.00     0.117 C 
BRANCH  44  45
HETATM   45  C27 UNL     1      14.844  36.024  17.578  1.00  0.00     0.387 C 
HETATM   46  F4  UNL     1      15.750  36.846  16.971  1.00  0.00    -0.171 F 
HETATM   47  F5  UNL     1      13.808  36.799  18.080  1.00  0.00    -0.171 F 
HETATM   48  F6  UNL     1      14.366  35.098  16.708  1.00  0.00    -0.171 F 
ENDBRANCH  44  45
ENDBRANCH  43  44
ENDBRANCH  42  43
ENDBRANCH  41  42
ENDBRANCH  40  41
ENDBRANCH  39  40
ENDBRANCH  37  39
ENDBRANCH   6  37
TORSDOF 17
ENDMDL
MODEL 5
REMARK VINA RESULT: -8.255012087      3.942     10.250
REMARK  17 active torsions:
REMARK  status: ('A' for Active; 'I' for Inactive)
REMARK    1  A    between atoms: C2_2  and  C3_3 
REMARK    2  A    between atoms: C3_3  and  N1_4 
REMARK    3  A    between atoms: N1_4  and  C4_6 
REMARK    4  A    between atoms: C5_9  and  N3_10 
REMARK    5  A    between atoms: N4_13  and  C8_14 
REMARK    6  A    between atoms: C8_14  and  O1_15 
REMARK    7  A    between atoms: C8_14  and  C9_17 
REMARK    8  A    between atoms: C9_17  and  C10_18 
REMARK    9  A    between atoms: C18_29  and  C19_30 
REMARK   10  A    between atoms: C20_34  and  N6_35 
REMARK   11  A    between atoms: N6_35  and  C21_37 
REMARK   12  A    between atoms: C21_37  and  C22_38 
REMARK   13  A    between atoms: C22_38  and  C23_39 
REMARK   14  A    between atoms: C23_39  and  C24_40 
REMARK   15  A    between atoms: C24_40  and  C25_41 
REMARK   16  A    between atoms: C25_41  and  C26_42 
REMARK   17  A    between atoms: C26_42  and  C27_43 
ROOT
HETATM    1  C4  UNL     1      18.991  32.403  14.656  1.00  0.00     0.681 A 
HETATM    2  N2  UNL     1      18.925  33.443  15.507  1.00  0.00    -0.176 N 
ATOM      3  H2  UNL     1      18.090  34.030  15.506  1.00  0.00     0.186 HD
HETATM    4  C5  UNL     1      19.941  33.739  16.371  1.00  0.00     0.138 A 
HETATM    5  C18 UNL     1      21.075  32.983  16.401  1.00  0.00     0.136 A 
HETATM    6  C20 UNL     1      21.155  31.900  15.520  1.00  0.00     0.136 A 
HETATM    7  N7  UNL     1      20.133  31.666  14.709  1.00  0.00    -0.176 N 
ATOM      8  H7  UNL     1      20.209  30.870  14.075  1.00  0.00     0.186 HD
ENDROOT
BRANCH   4   9
HETATM    9  N3  UNL     1      19.655  34.882  17.207  1.00  0.00    -0.363 N 
HETATM   10  C6  UNL     1      20.311  36.125  16.850  1.00  0.00     0.144 C 
HETATM   11  C7  UNL     1      20.613  36.879  18.185  1.00  0.00     0.144 C 
HETATM   12  N4  UNL     1      19.322  36.982  18.781  1.00  0.00    -0.360 N 
HETATM   13  C16 UNL     1      18.913  35.748  19.419  1.00  0.00     0.144 C 
HETATM   14  C17 UNL     1      18.751  34.710  18.308  1.00  0.00     0.144 C 
BRANCH  12  15
HETATM   15  C8  UNL     1      18.530  38.128  18.847  1.00  0.00     0.143 C 
BRANCH  15  16
HETATM   16  O1  UNL     1      18.706  38.883  19.908  1.00  0.00    -0.347 OA
ATOM     17  H1  UNL     1      18.072  38.769  20.605  1.00  0.00     0.219 HD
ENDBRANCH  15  16
BRANCH  15  18
HETATM   18  C9  UNL     1      17.528  38.633  17.914  1.00  0.00     0.101 C 
HETATM   19  C13 UNL     1      16.128  38.527  18.658  1.00  0.00     0.049 C 
HETATM   20  C14 UNL     1      15.523  37.221  18.187  1.00  0.00     0.106 C 
HETATM   21  C15 UNL     1      16.241  36.875  16.948  1.00  0.00     0.218 C 
HETATM   22  O2  UNL     1      15.995  35.885  16.223  1.00  0.00    -0.274 OA
HETATM   23  N5  UNL     1      17.217  37.858  16.771  1.00  0.00    -0.344 N 
ATOM     24  H5  UNL     1      17.676  38.009  15.873  1.00  0.00     0.163 HD
BRANCH  18  25
HETATM   25  C10 UNL     1      17.637  40.091  17.562  1.00  0.00     0.014 C 
HETATM   26  C11 UNL     1      16.299  40.622  17.027  1.00  0.00     0.012 C 
HETATM   27  C12 UNL     1      18.681  40.357  16.496  1.00  0.00     0.012 C 
ENDBRANCH  18  25
ENDBRANCH  15  18
ENDBRANCH  12  15
ENDBRANCH   4   9
BRANCH   5  28
HETATM   28  C19 UNL     1      22.208  33.303  17.265  1.00  0.00     0.424 C 
HETATM   29  F1  UNL     1      21.874  33.943  18.448  1.00  0.00    -0.166 F 
HETATM   30  F2  UNL     1      22.629  32.011  17.765  1.00  0.00    -0.166 F 
HETATM   31  F3  UNL     1      23.331  33.761  16.646  1.00  0.00    -0.166 F 
ENDBRANCH   5  28
BRANCH   1  32
HETATM   32  N1  UNL     1      18.025  32.146  13.854  1.00  0.00    -0.226 N 
ATOM     33  H1  UNL     1      17.676  32.926  13.297  1.00  0.00     0.177 HD
BRANCH  32  34
HETATM   34  C3  UNL     1      17.392  30.897  13.661  1.00  0.00     0.137 C 
BRANCH  34  35
HETATM   35  C2  UNL     1      18.051  30.101  12.552  1.00  0.00     0.016 C 
HETATM   36  C1  UNL     1      17.059  29.493  11.604  1.00  0.00     0.006 C 
ENDBRANCH  34  35
ENDBRANCH  32  34
ENDBRANCH   1  32
BRANCH   6  37
HETATM   37  N6  UNL     1      22.231  31.160  15.487  1.00  0.00    -0.375 N 
ATOM     38  H6  UNL     1      22.566  30.755  16.362  1.00  0.00     0.161 HD
BRANCH  37  39
HETATM   39  C21 UNL     1      22.963  30.887  14.294  1.00  0.00     0.121 C 
BRANCH  39  40
HETATM   40  C22 UNL     1      22.627  29.671  13.534  1.00  0.00     0.020 C 
BRANCH  40  41
HETATM   41  C23 UNL     1      21.901  29.857  12.254  1.00  0.00     0.002 C 
BRANCH  41  42
HETATM   42  C24 UNL     1      22.148  28.642  11.394  1.00  0.00     0.000 C 
BRANCH  42  43
HETATM   43  C25 UNL     1      23.253  28.850  10.424  1.00  0.00     0.009 C 
BRANCH  43  44
HETATM   44  C26 UNL     1      24.010  27.609  10.122  1.00  0.00     0.117 C 
BRANCH  44  45
HETATM   45  C27 UNL     1      25.036  27.318  11.233  1.00  0.00     0.387 C 
HETATM   46  F4  UNL     1      26.177  26.866  10.633  1.00  0.00    -0.171 F 
HETATM   47  F5  UNL     1      24.498  26.291  11.996  1.00  0.00    -0.171 F 
HETATM   48  F6  UNL     1      25.291  28.402  12.010  1.00  0.00    -0.171 F 
ENDBRANCH  44  45
ENDBRANCH  43  44
ENDBRANCH  42  43
ENDBRANCH  41  42
ENDBRANCH  40  41
ENDBRANCH  39  40
ENDBRANCH  37  39
ENDBRANCH   6  37
TORSDOF 17
ENDMDL
