MODEL 1
REMARK VINA RESULT: -8.296373971      0.000      0.000
REMARK  13 active torsions:
REMARK  status: ('A' for Active; 'I' for Inactive)
REMARK    1  A    between atoms: C2_2  and  C3_3 
REMARK    2  A    between atoms: C3_3  and  C4_4 
REMARK    3  A    between atoms: C4_4  and  N1_5 
REMARK       I    between atoms: N1_5  and  C5_7 
REMARK       I    between atoms: C5_7  and  N2_9 
REMARK    4  A    between atoms: C7_11  and  C8_12 
REMARK    5  A    between atoms: N3_14  and  C10_15 
REMARK    6  A    between atoms: C13_20  and  C14_21 
REMARK       I    between atoms: C14_21  and  N5_23 
REMARK    7  A    between atoms: N5_23  and  C15_25 
REMARK    8  A    between atoms: C15_25  and  C16_26 
REMARK    9  A    between atoms: C16_26  and  N6_27 
REMARK   10  A    between atoms: C21_32  and  C22_33 
REMARK   11  A    between atoms: C22_33  and  C23_34 
REMARK   12  A    between atoms: C23_34  and  C24_35 
REMARK   13  A    between atoms: C26_41  and  C27_42 
ROOT
HETATM    1  C10 UNL     1      20.189  28.093  11.956  1.00  0.00     0.121 A 
HETATM    2  N4  UNL     1      19.126  28.073  11.078  1.00  0.00    -0.344 N 
ATOM      3  H4  UNL     1      18.380  28.750  11.238  1.00  0.00     0.167 HD
HETATM    4  C11 UNL     1      18.986  27.266  10.060  1.00  0.00     0.023 A 
HETATM    5  C12 UNL     1      17.801  27.293   9.150  1.00  0.00     0.069 C 
HETATM    6  C13 UNL     1      19.996  26.311   9.804  1.00  0.00     0.060 A 
HETATM    7  C19 UNL     1      21.067  26.310  10.661  1.00  0.00    -0.034 A 
HETATM    8  C20 UNL     1      22.193  25.367  10.445  1.00  0.00     0.050 C 
HETATM    9  C21 UNL     1      21.192  27.202  11.760  1.00  0.00    -0.006 A 
ENDROOT
BRANCH   1  10
HETATM   10  N3  UNL     1      20.095  29.023  13.022  1.00  0.00    -0.271 N 
HETATM   11  C7  UNL     1      19.336  28.881  14.223  1.00  0.00     0.017 C 
HETATM   12  C6  UNL     1      20.135  29.419  15.389  1.00  0.00     0.181 C 
HETATM   13  N2  UNL     1      20.153  30.887  15.152  1.00  0.00    -0.307 N 
HETATM   14  C5  UNL     1      19.490  31.696  16.094  1.00  0.00     0.319 C 
HETATM   15  C26 UNL     1      20.836  31.303  13.979  1.00  0.00     0.289 C 
HETATM   16  N1  UNL     1      19.364  33.082  15.950  1.00  0.00    -0.343 N 
HETATM   17  O1  UNL     1      19.000  31.118  17.092  1.00  0.00    -0.247 OA
ATOM     18  H1  UNL     1      19.765  33.468  15.095  1.00  0.00     0.164 HD
HETATM   19  C25 UNL     1      20.744  30.302  12.874  1.00  0.00     0.261 C 
HETATM   20  O3  UNL     1      21.264  30.621  11.775  1.00  0.00    -0.270 OA
BRANCH  11  21
HETATM   21  C8  UNL     1      18.569  27.652  14.473  1.00  0.00     0.050 C 
HETATM   22  C9  UNL     1      17.235  27.498  13.840  1.00  0.00     0.011 C 
ENDBRANCH  11  21
BRANCH  16  23
HETATM   23  C4  UNL     1      18.763  34.032  16.818  1.00  0.00     0.124 C 
BRANCH  23  24
HETATM   24  C3  UNL     1      17.363  34.433  16.659  1.00  0.00     0.019 C 
BRANCH  24  25
HETATM   25  C2  UNL     1      16.499  33.796  15.628  1.00  0.00    -0.003 C 
HETATM   26  C1  UNL     1      15.737  32.599  16.265  1.00  0.00     0.005 C 
ENDBRANCH  24  25
ENDBRANCH  23  24
ENDBRANCH  16  23
BRANCH  15  27
HETATM   27  C27 UNL     1      22.258  31.662  14.245  1.00  0.00     0.416 C 
HETATM   28  F4  UNL     1      22.508  32.879  13.606  1.00  0.00    -0.168 F 
HETATM   29  F5  UNL     1      22.568  31.898  15.571  1.00  0.00    -0.168 F 
HETATM   30  F6  UNL     1      23.095  30.684  13.806  1.00  0.00    -0.168 F 
ENDBRANCH  15  27
ENDBRANCH   1  10
BRANCH   9  31
HETATM   31  C22 UNL     1      22.433  27.068  12.554  1.00  0.00     0.052 C 
BRANCH  31  32
HETATM   32  C23 UNL     1      23.504  28.044  12.219  1.00  0.00     0.122 C 
BRANCH  32  33
HETATM   33  C24 UNL     1      24.822  27.323  11.903  1.00  0.00     0.388 C 
HETATM   34  F1  UNL     1      25.111  27.414  10.567  1.00  0.00    -0.171 F 
HETATM   35  F2  UNL     1      24.727  25.994  12.258  1.00  0.00    -0.171 F 
HETATM   36  F3  UNL     1      25.835  27.873  12.660  1.00  0.00    -0.171 F 
ENDBRANCH  32  33
ENDBRANCH  31  32
ENDBRANCH   9  31
BRANCH   6  37
HETATM   37  C14 UNL     1      19.828  25.465   8.640  1.00  0.00     0.254 C 
HETATM   38  O2  UNL     1      19.267  24.336   8.826  1.00  0.00    -0.268 OA
HETATM   39  N5  UNL     1      20.218  25.750   7.338  1.00  0.00    -0.352 N 
ATOM     40  H5  UNL     1      20.682  26.640   7.156  1.00  0.00     0.163 HD
BRANCH  39  41
HETATM   41  C15 UNL     1      19.998  24.840   6.219  1.00  0.00     0.167 C 
BRANCH  41  42
HETATM   42  C16 UNL     1      21.205  24.158   5.705  1.00  0.00     0.076 C 
BRANCH  42  43
HETATM   43  N6  UNL     1      22.395  24.274   6.449  1.00  0.00    -0.400 N 
HETATM   44  C17 UNL     1      22.806  23.207   7.276  1.00  0.00     0.148 C 
HETATM   45  C18 UNL     1      23.485  24.905   5.729  1.00  0.00     0.148 C 
ENDBRANCH  42  43
ENDBRANCH  41  42
ENDBRANCH  39  41
ENDBRANCH   6  37
TORSDOF 13
ENDMDL
MODEL 2
REMARK VINA RESULT: -8.218268020      0.922      1.841
REMARK  13 active torsions:
REMARK  status: ('A' for Active; 'I' for Inactive)
REMARK    1  A    between atoms: C2_2  and  C3_3 
REMARK    2  A    between atoms: C3_3  and  C4_4 
REMARK    3  A    between atoms: C4_4  and  N1_5 
REMARK       I    between atoms: N1_5  and  C5_7 
REMARK       I    between atoms: C5_7  and  N2_9 
REMARK    4  A    between atoms: C7_11  and  C8_12 
REMARK    5  A    between atoms: N3_14  and  C10_15 
REMARK    6  A    between atoms: C13_20  and  C14_21 
REMARK       I    between atoms: C14_21  and  N5_23 
REMARK    7  A    between atoms: N5_23  and  C15_25 
REMARK    8  A    between atoms: C15_25  and  C16_26 
REMARK    9  A    between atoms: C16_26  and  N6_27 
REMARK   10  A    between atoms: C21_32  and  C22_33 
REMARK   11  A    between atoms: C22_33  and  C23_34 
REMARK   12  A    between atoms: C23_34  and  C24_35 
REMARK   13  A    between atoms: C26_41  and  C27_42 
ROOT
HETATM    1  C10 UNL     1      20.156  28.159  12.010  1.00  0.00     0.121 A 
HETATM    2  N4  UNL     1      19.090  28.122  11.136  1.00  0.00    -0.344 N 
ATOM      3  H4  UNL     1      18.341  28.798  11.290  1.00  0.00     0.167 HD
HETATM    4  C11 UNL     1      18.950  27.301  10.130  1.00  0.00     0.023 A 
HETATM    5  C12 UNL     1      17.762  27.309   9.224  1.00  0.00     0.069 C 
HETATM    6  C13 UNL     1      19.964  26.348   9.883  1.00  0.00     0.060 A 
HETATM    7  C19 UNL     1      21.039  26.363  10.736  1.00  0.00    -0.034 A 
HETATM    8  C20 UNL     1      22.168  25.423  10.529  1.00  0.00     0.050 C 
HETATM    9  C21 UNL     1      21.163  27.271  11.822  1.00  0.00    -0.006 A 
ENDROOT
BRANCH   1  10
HETATM   10  N3  UNL     1      20.062  29.103  13.063  1.00  0.00    -0.271 N 
HETATM   11  C7  UNL     1      19.317  28.969  14.274  1.00  0.00     0.017 C 
HETATM   12  C6  UNL     1      20.121  29.534  15.424  1.00  0.00     0.181 C 
HETATM   13  N2  UNL     1      20.119  30.998  15.166  1.00  0.00    -0.307 N 
HETATM   14  C5  UNL     1      19.455  31.813  16.103  1.00  0.00     0.319 C 
HETATM   15  C26 UNL     1      20.784  31.405  13.980  1.00  0.00     0.289 C 
HETATM   16  N1  UNL     1      19.311  33.195  15.941  1.00  0.00    -0.343 N 
HETATM   17  O1  UNL     1      18.982  31.243  17.114  1.00  0.00    -0.247 OA
ATOM     18  H1  UNL     1      19.698  33.573  15.077  1.00  0.00     0.164 HD
HETATM   19  C25 UNL     1      20.693  30.388  12.891  1.00  0.00     0.261 C 
HETATM   20  O3  UNL     1      21.198  30.697  11.782  1.00  0.00    -0.270 OA
BRANCH  11  21
HETATM   21  C8  UNL     1      18.568  27.735  14.550  1.00  0.00     0.050 C 
HETATM   22  C9  UNL     1      17.245  27.540  13.904  1.00  0.00     0.011 C 
ENDBRANCH  11  21
BRANCH  16  23
HETATM   23  C4  UNL     1      18.707  34.150  16.801  1.00  0.00     0.124 C 
BRANCH  23  24
HETATM   24  C3  UNL     1      17.251  34.278  16.898  1.00  0.00     0.019 C 
BRANCH  24  25
HETATM   25  C2  UNL     1      16.373  33.863  15.771  1.00  0.00    -0.003 C 
HETATM   26  C1  UNL     1      15.660  32.530  16.140  1.00  0.00     0.005 C 
ENDBRANCH  24  25
ENDBRANCH  23  24
ENDBRANCH  16  23
BRANCH  15  27
HETATM   27  C27 UNL     1      22.205  31.785  14.227  1.00  0.00     0.416 C 
HETATM   28  F4  UNL     1      22.443  32.980  13.540  1.00  0.00    -0.168 F 
HETATM   29  F5  UNL     1      22.518  32.075  15.540  1.00  0.00    -0.168 F 
HETATM   30  F6  UNL     1      23.047  30.799  13.822  1.00  0.00    -0.168 F 
ENDBRANCH  15  27
ENDBRANCH   1  10
BRANCH   9  31
HETATM   31  C22 UNL     1      22.408  27.154  12.612  1.00  0.00     0.052 C 
BRANCH  31  32
HETATM   32  C23 UNL     1      23.457  28.157  12.289  1.00  0.00     0.122 C 
BRANCH  32  33
HETATM   33  C24 UNL     1      24.760  27.468  11.862  1.00  0.00     0.388 C 
HETATM   34  F1  UNL     1      24.812  26.191  12.355  1.00  0.00    -0.171 F 
HETATM   35  F2  UNL     1      25.844  28.180  12.332  1.00  0.00    -0.171 F 
HETATM   36  F3  UNL     1      24.845  27.463  10.487  1.00  0.00    -0.171 F 
ENDBRANCH  32  33
ENDBRANCH  31  32
ENDBRANCH   9  31
BRANCH   6  37
HETATM   37  C14 UNL     1      19.795  25.485   8.731  1.00  0.00     0.254 C 
HETATM   38  O2  UNL     1      19.237  24.358   8.934  1.00  0.00    -0.268 OA
HETATM   39  N5  UNL     1      20.184  25.751   7.426  1.00  0.00    -0.352 N 
ATOM     40  H5  UNL     1      20.646  26.640   7.230  1.00  0.00     0.163 HD
BRANCH  39  41
HETATM   41  C15 UNL     1      19.963  24.825   6.319  1.00  0.00     0.167 C 
BRANCH  41  42
HETATM   42  C16 UNL     1      18.935  25.236   5.339  1.00  0.00     0.076 C 
BRANCH  42  43
HETATM   43  N6  UNL     1      17.878  26.047   5.795  1.00  0.00    -0.400 N 
HETATM   44  C17 UNL     1      17.617  27.278   5.153  1.00  0.00     0.148 C 
HETATM   45  C18 UNL     1      16.679  25.313   6.151  1.00  0.00     0.148 C 
ENDBRANCH  42  43
ENDBRANCH  41  42
ENDBRANCH  39  41
ENDBRANCH   6  37
TORSDOF 13
ENDMDL
MODEL 3
REMARK VINA RESULT: -8.066092524      0.677      1.313
REMARK  13 active torsions:
REMARK  status: ('A' for Active; 'I' for Inactive)
REMARK    1  A    between atoms: C2_2  and  C3_3 
REMARK    2  A    between atoms: C3_3  and  C4_4 
REMARK    3  A    between atoms: C4_4  and  N1_5 
REMARK       I    between atoms: N1_5  and  C5_7 
REMARK       I    between atoms: C5_7  and  N2_9 
REMARK    4  A    between atoms: C7_11  and  C8_12 
REMARK    5  A    between atoms: N3_14  and  C10_15 
REMARK    6  A    between atoms: C13_20  and  C14_21 
REMARK       I    between atoms: C14_21  and  N5_23 
REMARK    7  A    between atoms: N5_23  and  C15_25 
REMARK    8  A    between atoms: C15_25  and  C16_26 
REMARK    9  A    between atoms: C16_26  and  N6_27 
REMARK   10  A    between atoms: C21_32  and  C22_33 
REMARK   11  A    between atoms: C22_33  and  C23_34 
REMARK   12  A    between atoms: C23_34  and  C24_35 
REMARK   13  A    between atoms: C26_41  and  C27_42 
ROOT
HETATM    1  C10 UNL     1      20.175  28.099  11.951  1.00  0.00     0.121 A 
HETATM    2  N4  UNL     1      19.115  28.058  11.069  1.00  0.00    -0.344 N 
ATOM      3  H4  UNL     1      18.361  28.727  11.220  1.00  0.00     0.167 HD
HETATM    4  C11 UNL     1      18.990  27.240  10.058  1.00  0.00     0.023 A 
HETATM    5  C12 UNL     1      17.808  27.243   9.143  1.00  0.00     0.069 C 
HETATM    6  C13 UNL     1      20.012  26.295   9.814  1.00  0.00     0.060 A 
HETATM    7  C19 UNL     1      21.080  26.315  10.675  1.00  0.00    -0.034 A 
HETATM    8  C20 UNL     1      22.218  25.385  10.472  1.00  0.00     0.050 C 
HETATM    9  C21 UNL     1      21.190  27.219  11.766  1.00  0.00    -0.006 A 
ENDROOT
BRANCH   1  10
HETATM   10  N3  UNL     1      20.066  29.038  13.007  1.00  0.00    -0.271 N 
HETATM   11  C7  UNL     1      19.303  28.897  14.207  1.00  0.00     0.017 C 
HETATM   12  C6  UNL     1      20.091  29.456  15.371  1.00  0.00     0.181 C 
HETATM   13  N2  UNL     1      20.092  30.922  15.120  1.00  0.00    -0.307 N 
HETATM   14  C5  UNL     1      19.416  31.731  16.052  1.00  0.00     0.319 C 
HETATM   15  C26 UNL     1      20.775  31.335  13.946  1.00  0.00     0.289 C 
HETATM   16  N1  UNL     1      19.274  33.114  15.895  1.00  0.00    -0.343 N 
HETATM   17  O1  UNL     1      18.928  31.157  17.053  1.00  0.00    -0.247 OA
ATOM     18  H1  UNL     1      19.674  33.497  15.038  1.00  0.00     0.164 HD
HETATM   19  C25 UNL     1      20.699  30.323  12.850  1.00  0.00     0.261 C 
HETATM   20  O3  UNL     1      21.220  30.638  11.750  1.00  0.00    -0.270 OA
BRANCH  11  21
HETATM   21  C8  UNL     1      18.551  27.662  14.465  1.00  0.00     0.050 C 
HETATM   22  C9  UNL     1      17.215  27.492  13.839  1.00  0.00     0.011 C 
ENDBRANCH  11  21
BRANCH  16  23
HETATM   23  C4  UNL     1      18.658  34.065  16.751  1.00  0.00     0.124 C 
BRANCH  23  24
HETATM   24  C3  UNL     1      19.433  35.128  17.396  1.00  0.00     0.019 C 
BRANCH  24  25
HETATM   25  C2  UNL     1      20.797  35.476  16.916  1.00  0.00    -0.003 C 
HETATM   26  C1  UNL     1      21.851  34.702  17.759  1.00  0.00     0.005 C 
ENDBRANCH  24  25
ENDBRANCH  23  24
ENDBRANCH  16  23
BRANCH  15  27
HETATM   27  C27 UNL     1      22.192  31.713  14.215  1.00  0.00     0.416 C 
HETATM   28  F4  UNL     1      22.434  32.920  13.553  1.00  0.00    -0.168 F 
HETATM   29  F5  UNL     1      22.490  31.979  15.537  1.00  0.00    -0.168 F 
HETATM   30  F6  UNL     1      23.041  30.736  13.801  1.00  0.00    -0.168 F 
ENDBRANCH  15  27
ENDBRANCH   1  10
BRANCH   9  31
HETATM   31  C22 UNL     1      22.429  27.108  12.565  1.00  0.00     0.052 C 
BRANCH  31  32
HETATM   32  C23 UNL     1      23.494  28.086  12.217  1.00  0.00     0.122 C 
BRANCH  32  33
HETATM   33  C24 UNL     1      24.819  27.370  11.921  1.00  0.00     0.388 C 
HETATM   34  F1  UNL     1      25.109  27.427  10.584  1.00  0.00    -0.171 F 
HETATM   35  F2  UNL     1      24.738  26.050  12.312  1.00  0.00    -0.171 F 
HETATM   36  F3  UNL     1      25.826  27.950  12.664  1.00  0.00    -0.171 F 
ENDBRANCH  32  33
ENDBRANCH  31  32
ENDBRANCH   9  31
BRANCH   6  37
HETATM   37  C14 UNL     1      19.859  25.437   8.658  1.00  0.00     0.254 C 
HETATM   38  O2  UNL     1      19.318  24.300   8.853  1.00  0.00    -0.268 OA
HETATM   39  N5  UNL     1      20.244  25.717   7.354  1.00  0.00    -0.352 N 
ATOM     40  H5  UNL     1      20.693  26.613   7.163  1.00  0.00     0.163 HD
BRANCH  39  41
HETATM   41  C15 UNL     1      20.040  24.793   6.242  1.00  0.00     0.167 C 
BRANCH  41  42
HETATM   42  C16 UNL     1      21.258  24.125   5.736  1.00  0.00     0.076 C 
BRANCH  42  43
HETATM   43  N6  UNL     1      22.446  24.272   6.477  1.00  0.00    -0.400 N 
HETATM   44  C17 UNL     1      22.882  23.219   7.311  1.00  0.00     0.148 C 
HETATM   45  C18 UNL     1      23.521  24.921   5.751  1.00  0.00     0.148 C 
ENDBRANCH  42  43
ENDBRANCH  41  42
ENDBRANCH  39  41
ENDBRANCH   6  37
TORSDOF 13
ENDMDL
MODEL 4
REMARK VINA RESULT: -7.975606968      1.114      2.140
REMARK  13 active torsions:
REMARK  status: ('A' for Active; 'I' for Inactive)
REMARK    1  A    between atoms: C2_2  and  C3_3 
REMARK    2  A    between atoms: C3_3  and  C4_4 
REMARK    3  A    between atoms: C4_4  and  N1_5 
REMARK       I    between atoms: N1_5  and  C5_7 
REMARK       I    between atoms: C5_7  and  N2_9 
REMARK    4  A    between atoms: C7_11  and  C8_12 
REMARK    5  A    between atoms: N3_14  and  C10_15 
REMARK    6  A    between atoms: C13_20  and  C14_21 
REMARK       I    between atoms: C14_21  and  N5_23 
REMARK    7  A    between atoms: N5_23  and  C15_25 
REMARK    8  A    between atoms: C15_25  and  C16_26 
REMARK    9  A    between atoms: C16_26  and  N6_27 
REMARK   10  A    between atoms: C21_32  and  C22_33 
REMARK   11  A    between atoms: C22_33  and  C23_34 
REMARK   12  A    between atoms: C23_34  and  C24_35 
REMARK   13  A    between atoms: C26_41  and  C27_42 
ROOT
HETATM    1  C10 UNL     1      20.164  28.131  11.955  1.00  0.00     0.121 A 
HETATM    2  N4  UNL     1      19.110  28.102  11.066  1.00  0.00    -0.344 N 
ATOM      3  H4  UNL     1      18.361  28.779  11.213  1.00  0.00     0.167 HD
HETATM    4  C11 UNL     1      18.982  27.286  10.054  1.00  0.00     0.023 A 
HETATM    5  C12 UNL     1      17.806  27.303   9.131  1.00  0.00     0.069 C 
HETATM    6  C13 UNL     1      19.996  26.331   9.815  1.00  0.00     0.060 A 
HETATM    7  C19 UNL     1      21.059  26.339  10.683  1.00  0.00    -0.034 A 
HETATM    8  C20 UNL     1      22.188  25.397  10.487  1.00  0.00     0.050 C 
HETATM    9  C21 UNL     1      21.171  27.240  11.776  1.00  0.00    -0.006 A 
ENDROOT
BRANCH   1  10
HETATM   10  N3  UNL     1      20.058  29.070  13.012  1.00  0.00    -0.271 N 
HETATM   11  C7  UNL     1      19.298  28.930  14.213  1.00  0.00     0.017 C 
HETATM   12  C6  UNL     1      20.089  29.488  15.375  1.00  0.00     0.181 C 
HETATM   13  N2  UNL     1      20.090  30.954  15.125  1.00  0.00    -0.307 N 
HETATM   14  C5  UNL     1      19.416  31.764  16.057  1.00  0.00     0.319 C 
HETATM   15  C26 UNL     1      20.770  31.367  13.948  1.00  0.00     0.289 C 
HETATM   16  N1  UNL     1      19.275  33.147  15.901  1.00  0.00    -0.343 N 
HETATM   17  O1  UNL     1      18.931  31.190  17.060  1.00  0.00    -0.247 OA
ATOM     18  H1  UNL     1      19.673  33.529  15.043  1.00  0.00     0.164 HD
HETATM   19  C25 UNL     1      20.692  30.355  12.853  1.00  0.00     0.261 C 
HETATM   20  O3  UNL     1      21.210  30.670  11.752  1.00  0.00    -0.270 OA
BRANCH  11  21
HETATM   21  C8  UNL     1      18.545  27.695  14.473  1.00  0.00     0.050 C 
HETATM   22  C9  UNL     1      17.219  27.515  13.830  1.00  0.00     0.011 C 
ENDBRANCH  11  21
BRANCH  16  23
HETATM   23  C4  UNL     1      18.661  34.099  16.759  1.00  0.00     0.124 C 
BRANCH  23  24
HETATM   24  C3  UNL     1      19.428  35.193  17.359  1.00  0.00     0.019 C 
BRANCH  24  25
HETATM   25  C2  UNL     1      20.779  35.548  16.847  1.00  0.00    -0.003 C 
HETATM   26  C1  UNL     1      21.858  34.828  17.704  1.00  0.00     0.005 C 
ENDBRANCH  24  25
ENDBRANCH  23  24
ENDBRANCH  16  23
BRANCH  15  27
HETATM   27  C27 UNL     1      22.188  31.745  14.214  1.00  0.00     0.416 C 
HETATM   28  F4  UNL     1      22.439  32.935  13.525  1.00  0.00    -0.168 F 
HETATM   29  F5  UNL     1      22.483  32.039  15.531  1.00  0.00    -0.168 F 
HETATM   30  F6  UNL     1      23.034  30.754  13.826  1.00  0.00    -0.168 F 
ENDBRANCH  15  27
ENDBRANCH   1  10
BRANCH   9  31
HETATM   31  C22 UNL     1      22.404  27.116  12.583  1.00  0.00     0.052 C 
BRANCH  31  32
HETATM   32  C23 UNL     1      23.469  28.103  12.263  1.00  0.00     0.122 C 
BRANCH  32  33
HETATM   33  C24 UNL     1      24.790  27.394  11.933  1.00  0.00     0.388 C 
HETATM   34  F1  UNL     1      25.057  27.474  10.593  1.00  0.00    -0.171 F 
HETATM   35  F2  UNL     1      24.717  26.067  12.303  1.00  0.00    -0.171 F 
HETATM   36  F3  UNL     1      25.808  27.962  12.668  1.00  0.00    -0.171 F 
ENDBRANCH  32  33
ENDBRANCH  31  32
ENDBRANCH   9  31
BRANCH   6  37
HETATM   37  C14 UNL     1      19.841  25.475   8.657  1.00  0.00     0.254 C 
HETATM   38  O2  UNL     1      19.243  24.365   8.838  1.00  0.00    -0.268 OA
HETATM   39  N5  UNL     1      20.281  25.732   7.366  1.00  0.00    -0.352 N 
ATOM     40  H5  UNL     1      20.776  26.606   7.187  1.00  0.00     0.163 HD
BRANCH  39  41
HETATM   41  C15 UNL     1      20.071  24.814   6.251  1.00  0.00     0.167 C 
BRANCH  41  42
HETATM   42  C16 UNL     1      19.130  25.280   5.210  1.00  0.00     0.076 C 
BRANCH  42  43
HETATM   43  N6  UNL     1      18.122  26.186   5.592  1.00  0.00    -0.400 N 
HETATM   44  C17 UNL     1      17.999  27.418   4.912  1.00  0.00     0.148 C 
HETATM   45  C18 UNL     1      16.849  25.562   5.899  1.00  0.00     0.148 C 
ENDBRANCH  42  43
ENDBRANCH  41  42
ENDBRANCH  39  41
ENDBRANCH   6  37
TORSDOF 13
ENDMDL
MODEL 5
REMARK VINA RESULT: -7.717710384      4.207     11.614
REMARK  13 active torsions:
REMARK  status: ('A' for Active; 'I' for Inactive)
REMARK    1  A    between atoms: C2_2  and  C3_3 
REMARK    2  A    between atoms: C3_3  and  C4_4 
REMARK    3  A    between atoms: C4_4  and  N1_5 
REMARK       I    between atoms: N1_5  and  C5_7 
REMARK       I    between atoms: C5_7  and  N2_9 
REMARK    4  A    between atoms: C7_11  and  C8_12 
REMARK    5  A    between atoms: N3_14  and  C10_15 
REMARK    6  A    between atoms: C13_20  and  C14_21 
REMARK       I    between atoms: C14_21  and  N5_23 
REMARK    7  A    between atoms: N5_23  and  C15_25 
REMARK    8  A    between atoms: C15_25  and  C16_26 
REMARK    9  A    between atoms: C16_26  and  N6_27 
REMARK   10  A    between atoms: C21_32  and  C22_33 
REMARK   11  A    between atoms: C22_33  and  C23_34 
REMARK   12  A    between atoms: C23_34  and  C24_35 
REMARK   13  A    between atoms: C26_41  and  C27_42 
ROOT
HETATM    1  C10 UNL     1      19.796  34.143  16.410  1.00  0.00     0.121 A 
HETATM    2  N4  UNL     1      20.566  35.274  16.241  1.00  0.00    -0.344 N 
ATOM      3  H4  UNL     1      21.321  35.223  15.556  1.00  0.00     0.167 HD
HETATM    4  C11 UNL     1      20.418  36.405  16.879  1.00  0.00     0.023 A 
HETATM    5  C12 UNL     1      21.296  37.594  16.653  1.00  0.00     0.069 C 
HETATM    6  C13 UNL     1      19.386  36.517  17.837  1.00  0.00     0.060 A 
HETATM    7  C19 UNL     1      18.603  35.407  18.024  1.00  0.00    -0.034 A 
HETATM    8  C20 UNL     1      17.471  35.446  18.983  1.00  0.00     0.050 C 
HETATM    9  C21 UNL     1      18.787  34.190  17.314  1.00  0.00    -0.006 A 
ENDROOT
BRANCH   1  10
HETATM   10  N3  UNL     1      20.180  33.012  15.646  1.00  0.00    -0.271 N 
HETATM   11  C7  UNL     1      21.238  32.097  15.935  1.00  0.00     0.017 C 
HETATM   12  C6  UNL     1      20.789  30.690  15.608  1.00  0.00     0.181 C 
HETATM   13  N2  UNL     1      20.712  30.686  14.123  1.00  0.00    -0.307 N 
HETATM   14  C5  UNL     1      21.610  29.845  13.437  1.00  0.00     0.319 C 
HETATM   15  C26 UNL     1      19.737  31.553  13.563  1.00  0.00     0.289 C 
HETATM   16  N1  UNL     1      21.696  29.803  12.041  1.00  0.00    -0.343 N 
HETATM   17  O1  UNL     1      22.351  29.118  14.138  1.00  0.00    -0.247 OA
ATOM     18  H1  UNL     1      21.079  30.448  11.549  1.00  0.00     0.164 HD
HETATM   19  C25 UNL     1      19.521  32.781  14.385  1.00  0.00     0.261 C 
HETATM   20  O3  UNL     1      18.722  33.637  13.926  1.00  0.00    -0.270 OA
BRANCH  11  21
HETATM   21  C8  UNL     1      22.039  32.255  17.157  1.00  0.00     0.050 C 
HETATM   22  C9  UNL     1      23.238  33.131  17.120  1.00  0.00     0.011 C 
ENDBRANCH  11  21
BRANCH  16  23
HETATM   23  C4  UNL     1      22.515  28.995  11.208  1.00  0.00     0.124 C 
BRANCH  23  24
HETATM   24  C3  UNL     1      22.448  27.532  11.258  1.00  0.00     0.019 C 
BRANCH  24  25
HETATM   25  C2  UNL     1      23.650  26.725  11.599  1.00  0.00    -0.003 C 
HETATM   26  C1  UNL     1      24.793  27.675  12.056  1.00  0.00     0.005 C 
ENDBRANCH  24  25
ENDBRANCH  23  24
ENDBRANCH  16  23
BRANCH  15  27
HETATM   27  C27 UNL     1      18.442  30.860  13.303  1.00  0.00     0.416 C 
HETATM   28  F4  UNL     1      18.319  29.837  14.247  1.00  0.00    -0.168 F 
HETATM   29  F5  UNL     1      17.313  31.635  13.484  1.00  0.00    -0.168 F 
HETATM   30  F6  UNL     1      18.398  30.378  12.033  1.00  0.00    -0.168 F 
ENDBRANCH  15  27
ENDBRANCH   1  10
BRANCH   9  31
HETATM   31  C22 UNL     1      17.824  33.113  17.631  1.00  0.00     0.052 C 
BRANCH  31  32
HETATM   32  C23 UNL     1      17.079  32.569  16.464  1.00  0.00     0.122 C 
BRANCH  32  33
HETATM   33  C24 UNL     1      15.747  33.309  16.273  1.00  0.00     0.388 C 
HETATM   34  F1  UNL     1      15.952  34.517  15.661  1.00  0.00    -0.171 F 
HETATM   35  F2  UNL     1      15.145  33.516  17.496  1.00  0.00    -0.171 F 
HETATM   36  F3  UNL     1      14.893  32.524  15.529  1.00  0.00    -0.171 F 
ENDBRANCH  32  33
ENDBRANCH  31  32
ENDBRANCH   9  31
BRANCH   6  37
HETATM   37  C14 UNL     1      19.225  37.800  18.490  1.00  0.00     0.254 C 
HETATM   38  O2  UNL     1      19.818  37.956  19.607  1.00  0.00    -0.268 OA
HETATM   39  N5  UNL     1      18.485  38.882  18.031  1.00  0.00    -0.352 N 
ATOM     40  H5  UNL     1      17.986  38.787  17.146  1.00  0.00     0.163 HD
BRANCH  39  41
HETATM   41  C15 UNL     1      18.386  40.148  18.751  1.00  0.00     0.167 C 
BRANCH  41  42
HETATM   42  C16 UNL     1      17.016  40.572  19.109  1.00  0.00     0.076 C 
BRANCH  42  43
HETATM   43  N6  UNL     1      15.972  40.244  18.223  1.00  0.00    -0.400 N 
HETATM   44  C17 UNL     1      14.748  39.764  18.736  1.00  0.00     0.148 C 
HETATM   45  C18 UNL     1      15.815  41.176  17.122  1.00  0.00     0.148 C 
ENDBRANCH  42  43
ENDBRANCH  41  42
ENDBRANCH  39  41
ENDBRANCH   6  37
TORSDOF 13
ENDMDL
