MODEL 1
REMARK VINA RESULT: -9.614424107      0.000      0.000
REMARK  13 active torsions:
REMARK  status: ('A' for Active; 'I' for Inactive)
REMARK    1  A    between atoms: C3_4  and  N2_5 
REMARK    2  A    between atoms: N2_5  and  C4_7 
REMARK    3  A    between atoms: C5_8  and  C6_9 
REMARK    4  A    between atoms: C6_9  and  C7_10 
REMARK    5  A    between atoms: N6_20  and  C10_21 
REMARK    6  A    between atoms: C10_21  and  C11_22 
REMARK    7  A    between atoms: C11_22  and  C12_23 
REMARK    8  A    between atoms: C12_23  and  C13_24 
REMARK    9  A    between atoms: C13_24  and  C14_25 
REMARK   10  A    between atoms: C14_25  and  N7_26 
REMARK   11  A    between atoms: C18_30  and  C19_31 
REMARK   12  A    between atoms: C21_33  and  C22_34 
REMARK   13  A    between atoms: C24_39  and  C25_40 
ROOT
HETATM    1  C12 UNL     1      15.110  35.049  16.746  1.00  0.00     0.007 C 
ENDROOT
BRANCH   1   2
HETATM    2  C11 UNL     1      15.162  34.658  18.193  1.00  0.00     0.022 C 
BRANCH   2   3
HETATM    3  C10 UNL     1      15.523  35.719  19.161  1.00  0.00     0.146 C 
BRANCH   3   4
HETATM    4  N6  UNL     1      16.632  36.569  18.849  1.00  0.00    -0.279 N 
HETATM    5  N1  UNL     1      16.658  37.922  18.430  1.00  0.00    -0.228 NA
HETATM    6  C1  UNL     1      17.321  38.782  19.434  1.00  0.00     0.136 C 
HETATM    7  C2  UNL     1      17.670  37.839  17.364  1.00  0.00     0.148 C 
HETATM    8  C3  UNL     1      18.798  37.069  18.118  1.00  0.00     0.190 C 
HETATM    9  C9  UNL     1      18.007  36.131  18.897  1.00  0.00     0.258 C 
HETATM   10  O1  UNL     1      18.365  35.123  19.516  1.00  0.00    -0.270 OA
BRANCH   8  11
HETATM   11  N2  UNL     1      19.616  36.562  17.122  1.00  0.00    -0.385 N 
ATOM     12  H2  UNL     1      19.139  36.281  16.265  1.00  0.00     0.159 HD
BRANCH  11  13
HETATM   13  C4  UNL     1      20.960  36.388  17.126  1.00  0.00     0.080 C 
HETATM   14  C5  UNL     1      21.819  35.618  17.999  1.00  0.00    -0.003 C 
BRANCH  14  15
HETATM   15  C6  UNL     1      21.845  34.199  18.288  1.00  0.00     0.106 C 
BRANCH  15  16
HETATM   16  C7  UNL     1      22.023  33.206  17.231  1.00  0.00     0.100 A 
HETATM   17  N3  UNL     1      22.613  33.249  16.045  1.00  0.00    -0.340 N 
HETATM   18  C8  UNL     1      22.522  32.068  15.420  1.00  0.00     0.198 A 
ATOM     19  H3  UNL     1      23.075  34.073  15.660  1.00  0.00     0.168 HD
HETATM   20  N4  UNL     1      21.849  31.248  16.240  1.00  0.00    -0.295 N 
HETATM   21  N5  UNL     1      21.552  31.921  17.318  1.00  0.00    -0.288 N 
ATOM     22  H4  UNL     1      21.613  30.274  16.055  1.00  0.00     0.187 HD
ATOM     23  H5  UNL     1      21.040  31.543  18.115  1.00  0.00     0.188 HD
ENDBRANCH  15  16
ENDBRANCH  14  15
ENDBRANCH  11  13
ENDBRANCH   8  11
ENDBRANCH   3   4
ENDBRANCH   2   3
ENDBRANCH   1   2
BRANCH   1  24
HETATM   24  C13 UNL     1      15.834  33.975  15.915  1.00  0.00     0.044 C 
BRANCH  24  25
HETATM   25  C14 UNL     1      16.592  33.030  16.779  1.00  0.00     0.063 C 
BRANCH  25  26
HETATM   26  N7  UNL     1      17.847  32.631  16.300  1.00  0.00    -0.373 N 
HETATM   27  C15 UNL     1      18.006  31.264  15.991  1.00  0.00     0.131 C 
HETATM   28  C16 UNL     1      18.551  30.923  14.639  1.00  0.00     0.055 C 
HETATM   29  C17 UNL     1      19.131  32.012  13.851  1.00  0.00    -0.073 C 
HETATM   30  C18 UNL     1      19.904  31.759  12.829  1.00  0.00     0.014 C 
HETATM   31  C27 UNL     1      18.797  33.433  14.209  1.00  0.00     0.079 C 
HETATM   32  C28 UNL     1      18.717  33.564  15.722  1.00  0.00     0.067 C 
BRANCH  30  33
HETATM   33  C19 UNL     1      20.263  30.463  12.356  1.00  0.00    -0.034 A 
HETATM   34  C20 UNL     1      21.582  29.992  12.340  1.00  0.00     0.027 A 
HETATM   35  C21 UNL     1      21.925  28.754  11.871  1.00  0.00     0.049 A 
HETATM   36  C23 UNL     1      20.948  27.921  11.390  1.00  0.00     0.032 A 
HETATM   37  C24 UNL     1      19.612  28.335  11.381  1.00  0.00     0.049 A 
HETATM   38  C26 UNL     1      19.314  29.586  11.861  1.00  0.00     0.027 A 
BRANCH  35  39
HETATM   39  C22 UNL     1      23.327  28.252  11.850  1.00  0.00     0.417 C 
HETATM   40  F1  UNL     1      24.026  28.835  12.917  1.00  0.00    -0.166 F 
HETATM   41  F2  UNL     1      23.319  26.895  12.079  1.00  0.00    -0.166 F 
HETATM   42  F3  UNL     1      23.984  28.546  10.666  1.00  0.00    -0.166 F 
ENDBRANCH  35  39
BRANCH  37  43
HETATM   43  C25 UNL     1      18.545  27.440  10.872  1.00  0.00     0.417 C 
HETATM   44  F4  UNL     1      18.111  26.601  11.880  1.00  0.00    -0.166 F 
HETATM   45  F5  UNL     1      19.085  26.704   9.838  1.00  0.00    -0.166 F 
HETATM   46  F6  UNL     1      17.507  28.166  10.335  1.00  0.00    -0.166 F 
ENDBRANCH  37  43
ENDBRANCH  30  33
ENDBRANCH  25  26
ENDBRANCH  24  25
ENDBRANCH   1  24
TORSDOF 13
ENDMDL
MODEL 2
REMARK VINA RESULT: -9.579527620      0.097      2.630
REMARK  13 active torsions:
REMARK  status: ('A' for Active; 'I' for Inactive)
REMARK    1  A    between atoms: C3_4  and  N2_5 
REMARK    2  A    between atoms: N2_5  and  C4_7 
REMARK    3  A    between atoms: C5_8  and  C6_9 
REMARK    4  A    between atoms: C6_9  and  C7_10 
REMARK    5  A    between atoms: N6_20  and  C10_21 
REMARK    6  A    between atoms: C10_21  and  C11_22 
REMARK    7  A    between atoms: C11_22  and  C12_23 
REMARK    8  A    between atoms: C12_23  and  C13_24 
REMARK    9  A    between atoms: C13_24  and  C14_25 
REMARK   10  A    between atoms: C14_25  and  N7_26 
REMARK   11  A    between atoms: C18_30  and  C19_31 
REMARK   12  A    between atoms: C21_33  and  C22_34 
REMARK   13  A    between atoms: C24_39  and  C25_40 
ROOT
HETATM    1  C12 UNL     1      15.141  35.075  16.717  1.00  0.00     0.007 C 
ENDROOT
BRANCH   1   2
HETATM    2  C11 UNL     1      15.142  34.692  18.166  1.00  0.00     0.022 C 
BRANCH   2   3
HETATM    3  C10 UNL     1      15.513  35.747  19.137  1.00  0.00     0.146 C 
BRANCH   3   4
HETATM    4  N6  UNL     1      16.639  36.578  18.835  1.00  0.00    -0.279 N 
HETATM    5  N1  UNL     1      16.692  37.934  18.431  1.00  0.00    -0.228 NA
HETATM    6  C1  UNL     1      17.372  38.770  19.445  1.00  0.00     0.136 C 
HETATM    7  C2  UNL     1      17.702  37.844  17.364  1.00  0.00     0.148 C 
HETATM    8  C3  UNL     1      18.815  37.043  18.109  1.00  0.00     0.190 C 
HETATM    9  C9  UNL     1      18.005  36.112  18.878  1.00  0.00     0.258 C 
HETATM   10  O1  UNL     1      18.343  35.090  19.485  1.00  0.00    -0.270 OA
BRANCH   8  11
HETATM   11  N2  UNL     1      19.622  36.531  17.107  1.00  0.00    -0.385 N 
ATOM     12  H2  UNL     1      19.136  36.239  16.259  1.00  0.00     0.159 HD
BRANCH  11  13
HETATM   13  C4  UNL     1      20.968  36.365  17.095  1.00  0.00     0.080 C 
HETATM   14  C5  UNL     1      21.842  35.607  17.964  1.00  0.00    -0.003 C 
BRANCH  14  15
HETATM   15  C6  UNL     1      21.880  34.191  18.265  1.00  0.00     0.106 C 
BRANCH  15  16
HETATM   16  C7  UNL     1      22.025  33.189  17.212  1.00  0.00     0.100 A 
HETATM   17  N3  UNL     1      22.584  33.219  16.011  1.00  0.00    -0.340 N 
HETATM   18  C8  UNL     1      22.470  32.033  15.398  1.00  0.00     0.198 A 
ATOM     19  H3  UNL     1      23.041  34.037  15.607  1.00  0.00     0.168 HD
HETATM   20  N4  UNL     1      21.816  31.224  16.242  1.00  0.00    -0.295 N 
HETATM   21  N5  UNL     1      21.550  31.907  17.321  1.00  0.00    -0.288 N 
ATOM     22  H4  UNL     1      21.569  30.249  16.071  1.00  0.00     0.187 HD
ATOM     23  H5  UNL     1      21.057  31.538  18.135  1.00  0.00     0.188 HD
ENDBRANCH  15  16
ENDBRANCH  14  15
ENDBRANCH  11  13
ENDBRANCH   8  11
ENDBRANCH   3   4
ENDBRANCH   2   3
ENDBRANCH   1   2
BRANCH   1  24
HETATM   24  C13 UNL     1      15.792  33.944  15.902  1.00  0.00     0.044 C 
BRANCH  24  25
HETATM   25  C14 UNL     1      16.543  33.001  16.775  1.00  0.00     0.063 C 
BRANCH  25  26
HETATM   26  N7  UNL     1      17.790  32.580  16.296  1.00  0.00    -0.373 N 
HETATM   27  C15 UNL     1      17.916  31.217  15.956  1.00  0.00     0.131 C 
HETATM   28  C16 UNL     1      18.461  30.893  14.601  1.00  0.00     0.055 C 
HETATM   29  C17 UNL     1      19.077  31.984  13.842  1.00  0.00    -0.073 C 
HETATM   30  C18 UNL     1      19.850  31.735  12.820  1.00  0.00     0.014 C 
HETATM   31  C27 UNL     1      18.778  33.405  14.231  1.00  0.00     0.079 C 
HETATM   32  C28 UNL     1      18.689  33.503  15.746  1.00  0.00     0.067 C 
BRANCH  30  33
HETATM   33  C19 UNL     1      20.179  30.441  12.319  1.00  0.00    -0.034 A 
HETATM   34  C20 UNL     1      19.221  29.538  11.840  1.00  0.00     0.027 A 
HETATM   35  C21 UNL     1      19.539  28.292  11.376  1.00  0.00     0.049 A 
HETATM   36  C23 UNL     1      20.850  27.888  11.371  1.00  0.00     0.032 A 
HETATM   37  C24 UNL     1      21.852  28.747  11.837  1.00  0.00     0.049 A 
HETATM   38  C26 UNL     1      21.486  29.988  12.294  1.00  0.00     0.027 A 
BRANCH  35  39
HETATM   39  C22 UNL     1      18.523  27.328  10.868  1.00  0.00     0.417 C 
HETATM   40  F1  UNL     1      19.153  26.437   9.988  1.00  0.00    -0.166 F 
HETATM   41  F2  UNL     1      18.054  26.578  11.921  1.00  0.00    -0.166 F 
HETATM   42  F3  UNL     1      17.478  27.953  10.206  1.00  0.00    -0.166 F 
ENDBRANCH  35  39
BRANCH  37  43
HETATM   43  C25 UNL     1      23.274  28.326  11.828  1.00  0.00     0.417 C 
HETATM   44  F4  UNL     1      23.874  28.713  10.646  1.00  0.00    -0.166 F 
HETATM   45  F5  UNL     1      23.295  26.952  11.945  1.00  0.00    -0.166 F 
HETATM   46  F6  UNL     1      23.942  28.822  12.923  1.00  0.00    -0.166 F 
ENDBRANCH  37  43
ENDBRANCH  30  33
ENDBRANCH  25  26
ENDBRANCH  24  25
ENDBRANCH   1  24
TORSDOF 13
ENDMDL
MODEL 3
REMARK VINA RESULT: -9.526052201      1.555      3.286
REMARK  13 active torsions:
REMARK  status: ('A' for Active; 'I' for Inactive)
REMARK    1  A    between atoms: C3_4  and  N2_5 
REMARK    2  A    between atoms: N2_5  and  C4_7 
REMARK    3  A    between atoms: C5_8  and  C6_9 
REMARK    4  A    between atoms: C6_9  and  C7_10 
REMARK    5  A    between atoms: N6_20  and  C10_21 
REMARK    6  A    between atoms: C10_21  and  C11_22 
REMARK    7  A    between atoms: C11_22  and  C12_23 
REMARK    8  A    between atoms: C12_23  and  C13_24 
REMARK    9  A    between atoms: C13_24  and  C14_25 
REMARK   10  A    between atoms: C14_25  and  N7_26 
REMARK   11  A    between atoms: C18_30  and  C19_31 
REMARK   12  A    between atoms: C21_33  and  C22_34 
REMARK   13  A    between atoms: C24_39  and  C25_40 
ROOT
HETATM    1  C12 UNL     1      16.054  32.964  16.184  1.00  0.00     0.007 C 
ENDROOT
BRANCH   1   2
HETATM    2  C11 UNL     1      15.684  34.332  15.695  1.00  0.00     0.022 C 
BRANCH   2   3
HETATM    3  C10 UNL     1      14.964  35.211  16.646  1.00  0.00     0.146 C 
BRANCH   3   4
HETATM    4  N6  UNL     1      15.736  36.111  17.450  1.00  0.00    -0.279 N 
HETATM    5  N1  UNL     1      16.125  37.450  17.206  1.00  0.00    -0.228 NA
HETATM    6  C1  UNL     1      15.518  38.373  18.190  1.00  0.00     0.136 C 
HETATM    7  C2  UNL     1      17.528  37.393  17.646  1.00  0.00     0.148 C 
HETATM    8  C3  UNL     1      17.349  36.706  19.037  1.00  0.00     0.190 C 
HETATM    9  C9  UNL     1      16.299  35.748  18.729  1.00  0.00     0.258 C 
HETATM   10  O1  UNL     1      15.901  34.779  19.383  1.00  0.00    -0.270 OA
BRANCH   8  11
HETATM   11  N2  UNL     1      18.604  36.216  19.360  1.00  0.00    -0.385 N 
ATOM     12  H2  UNL     1      18.611  35.370  19.930  1.00  0.00     0.159 HD
BRANCH  11  13
HETATM   13  C4  UNL     1      19.824  36.705  19.026  1.00  0.00     0.080 C 
HETATM   14  C5  UNL     1      20.969  36.070  18.410  1.00  0.00    -0.003 C 
BRANCH  14  15
HETATM   15  C6  UNL     1      21.110  35.418  17.125  1.00  0.00     0.106 C 
BRANCH  15  16
HETATM   16  C7  UNL     1      21.736  34.104  16.999  1.00  0.00     0.100 A 
HETATM   17  N3  UNL     1      22.545  33.575  16.093  1.00  0.00    -0.340 N 
HETATM   18  C8  UNL     1      22.865  32.314  16.412  1.00  0.00     0.198 A 
ATOM     19  H3  UNL     1      22.880  34.064  15.262  1.00  0.00     0.168 HD
HETATM   20  N4  UNL     1      22.236  32.035  17.562  1.00  0.00    -0.295 N 
HETATM   21  N5  UNL     1      21.565  33.097  17.915  1.00  0.00    -0.288 N 
ATOM     22  H4  UNL     1      22.275  31.152  18.070  1.00  0.00     0.187 HD
ATOM     23  H5  UNL     1      20.992  33.169  18.755  1.00  0.00     0.188 HD
ENDBRANCH  15  16
ENDBRANCH  14  15
ENDBRANCH  11  13
ENDBRANCH   8  11
ENDBRANCH   3   4
ENDBRANCH   2   3
ENDBRANCH   1   2
BRANCH   1  24
HETATM   24  C13 UNL     1      17.551  32.950  16.538  1.00  0.00     0.044 C 
BRANCH  24  25
HETATM   25  C14 UNL     1      18.107  31.569  16.521  1.00  0.00     0.063 C 
BRANCH  25  26
HETATM   26  N7  UNL     1      19.247  31.375  15.731  1.00  0.00    -0.373 N 
HETATM   27  C15 UNL     1      19.805  30.079  15.724  1.00  0.00     0.131 C 
HETATM   28  C16 UNL     1      20.060  29.447  14.392  1.00  0.00     0.055 C 
HETATM   29  C17 UNL     1      19.976  30.307  13.209  1.00  0.00    -0.073 C 
HETATM   30  C18 UNL     1      20.490  29.929  12.070  1.00  0.00     0.014 C 
HETATM   31  C27 UNL     1      19.255  31.622  13.311  1.00  0.00     0.079 C 
HETATM   32  C28 UNL     1      19.533  32.244  14.671  1.00  0.00     0.067 C 
BRANCH  30  33
HETATM   33  C19 UNL     1      21.158  28.693  11.826  1.00  0.00    -0.034 A 
HETATM   34  C20 UNL     1      20.483  27.499  11.543  1.00  0.00     0.027 A 
HETATM   35  C21 UNL     1      21.127  26.313  11.325  1.00  0.00     0.049 A 
HETATM   36  C23 UNL     1      22.497  26.269  11.382  1.00  0.00     0.032 A 
HETATM   37  C24 UNL     1      23.227  27.430  11.661  1.00  0.00     0.049 A 
HETATM   38  C26 UNL     1      22.538  28.597  11.873  1.00  0.00     0.027 A 
BRANCH  35  39
HETATM   39  C22 UNL     1      20.411  25.041  11.026  1.00  0.00     0.417 C 
HETATM   40  F1  UNL     1      20.969  24.477   9.869  1.00  0.00    -0.166 F 
HETATM   41  F2  UNL     1      20.639  24.150  12.049  1.00  0.00    -0.166 F 
HETATM   42  F3  UNL     1      19.052  25.225  10.829  1.00  0.00    -0.166 F 
ENDBRANCH  35  39
BRANCH  37  43
HETATM   43  C25 UNL     1      24.708  27.397  11.716  1.00  0.00     0.417 C 
HETATM   44  F4  UNL     1      25.127  26.411  12.587  1.00  0.00    -0.166 F 
HETATM   45  F5  UNL     1      25.129  28.634  12.158  1.00  0.00    -0.166 F 
HETATM   46  F6  UNL     1      25.244  27.227  10.461  1.00  0.00    -0.166 F 
ENDBRANCH  37  43
ENDBRANCH  30  33
ENDBRANCH  25  26
ENDBRANCH  24  25
ENDBRANCH   1  24
TORSDOF 13
ENDMDL
MODEL 4
REMARK VINA RESULT: -9.509798811      1.513      2.028
REMARK  13 active torsions:
REMARK  status: ('A' for Active; 'I' for Inactive)
REMARK    1  A    between atoms: C3_4  and  N2_5 
REMARK    2  A    between atoms: N2_5  and  C4_7 
REMARK    3  A    between atoms: C5_8  and  C6_9 
REMARK    4  A    between atoms: C6_9  and  C7_10 
REMARK    5  A    between atoms: N6_20  and  C10_21 
REMARK    6  A    between atoms: C10_21  and  C11_22 
REMARK    7  A    between atoms: C11_22  and  C12_23 
REMARK    8  A    between atoms: C12_23  and  C13_24 
REMARK    9  A    between atoms: C13_24  and  C14_25 
REMARK   10  A    between atoms: C14_25  and  N7_26 
REMARK   11  A    between atoms: C18_30  and  C19_31 
REMARK   12  A    between atoms: C21_33  and  C22_34 
REMARK   13  A    between atoms: C24_39  and  C25_40 
ROOT
HETATM    1  C12 UNL     1      15.779  32.725  16.485  1.00  0.00     0.007 C 
ENDROOT
BRANCH   1   2
HETATM    2  C11 UNL     1      15.854  34.104  15.901  1.00  0.00     0.022 C 
BRANCH   2   3
HETATM    3  C10 UNL     1      15.098  35.170  16.599  1.00  0.00     0.146 C 
BRANCH   3   4
HETATM    4  N6  UNL     1      15.830  36.101  17.403  1.00  0.00    -0.279 N 
HETATM    5  N1  UNL     1      16.208  37.440  17.137  1.00  0.00    -0.228 NA
HETATM    6  C1  UNL     1      15.557  38.378  18.076  1.00  0.00     0.136 C 
HETATM    7  C2  UNL     1      17.597  37.414  17.623  1.00  0.00     0.148 C 
HETATM    8  C3  UNL     1      17.382  36.762  19.025  1.00  0.00     0.190 C 
HETATM    9  C9  UNL     1      16.356  35.781  18.709  1.00  0.00     0.258 C 
HETATM   10  O1  UNL     1      15.951  34.824  19.376  1.00  0.00    -0.270 OA
BRANCH   8  11
HETATM   11  N2  UNL     1      18.632  36.300  19.401  1.00  0.00    -0.385 N 
ATOM     12  H2  UNL     1      18.632  35.513  20.051  1.00  0.00     0.159 HD
BRANCH  11  13
HETATM   13  C4  UNL     1      19.856  36.747  19.028  1.00  0.00     0.080 C 
HETATM   14  C5  UNL     1      20.970  36.068  18.402  1.00  0.00    -0.003 C 
BRANCH  14  15
HETATM   15  C6  UNL     1      21.065  35.382  17.130  1.00  0.00     0.106 C 
BRANCH  15  16
HETATM   16  C7  UNL     1      21.733  34.089  17.007  1.00  0.00     0.100 A 
HETATM   17  N3  UNL     1      22.509  33.563  16.071  1.00  0.00    -0.340 N 
HETATM   18  C8  UNL     1      22.895  32.325  16.407  1.00  0.00     0.198 A 
ATOM     19  H3  UNL     1      22.777  34.037  15.209  1.00  0.00     0.168 HD
HETATM   20  N4  UNL     1      22.343  32.059  17.599  1.00  0.00    -0.295 N 
HETATM   21  N5  UNL     1      21.653  33.106  17.959  1.00  0.00    -0.288 N 
ATOM     22  H4  UNL     1      22.445  31.194  18.129  1.00  0.00     0.187 HD
ATOM     23  H5  UNL     1      21.125  33.182  18.829  1.00  0.00     0.188 HD
ENDBRANCH  15  16
ENDBRANCH  14  15
ENDBRANCH  11  13
ENDBRANCH   8  11
ENDBRANCH   3   4
ENDBRANCH   2   3
ENDBRANCH   1   2
BRANCH   1  24
HETATM   24  C13 UNL     1      16.804  31.826  15.773  1.00  0.00     0.044 C 
BRANCH  24  25
HETATM   25  C14 UNL     1      18.117  31.830  16.474  1.00  0.00     0.063 C 
BRANCH  25  26
HETATM   26  N7  UNL     1      19.245  31.626  15.668  1.00  0.00    -0.373 N 
HETATM   27  C15 UNL     1      19.838  30.347  15.711  1.00  0.00     0.131 C 
HETATM   28  C16 UNL     1      20.080  29.657  14.406  1.00  0.00     0.055 C 
HETATM   29  C17 UNL     1      19.947  30.455  13.185  1.00  0.00    -0.073 C 
HETATM   30  C18 UNL     1      20.446  30.034  12.054  1.00  0.00     0.014 C 
HETATM   31  C27 UNL     1      19.194  31.754  13.239  1.00  0.00     0.079 C 
HETATM   32  C28 UNL     1      19.485  32.449  14.561  1.00  0.00     0.067 C 
BRANCH  30  33
HETATM   33  C19 UNL     1      21.142  28.805  11.855  1.00  0.00    -0.034 A 
HETATM   34  C20 UNL     1      22.538  28.702  11.884  1.00  0.00     0.027 A 
HETATM   35  C21 UNL     1      23.202  27.525  11.676  1.00  0.00     0.049 A 
HETATM   36  C23 UNL     1      22.486  26.382  11.427  1.00  0.00     0.032 A 
HETATM   37  C24 UNL     1      21.088  26.422  11.387  1.00  0.00     0.049 A 
HETATM   38  C26 UNL     1      20.465  27.626  11.600  1.00  0.00     0.027 A 
BRANCH  35  39
HETATM   39  C22 UNL     1      24.687  27.413  11.704  1.00  0.00     0.417 C 
HETATM   40  F1  UNL     1      25.216  28.609  12.209  1.00  0.00    -0.166 F 
HETATM   41  F2  UNL     1      25.044  26.420  12.586  1.00  0.00    -0.166 F 
HETATM   42  F3  UNL     1      25.229  27.174  10.450  1.00  0.00    -0.166 F 
ENDBRANCH  35  39
BRANCH  37  43
HETATM   43  C25 UNL     1      20.303  25.191  11.128  1.00  0.00     0.417 C 
HETATM   44  F4  UNL     1      20.666  24.202  12.020  1.00  0.00    -0.166 F 
HETATM   45  F5  UNL     1      20.579  24.793   9.836  1.00  0.00    -0.166 F 
HETATM   46  F6  UNL     1      18.953  25.449  11.177  1.00  0.00    -0.166 F 
ENDBRANCH  37  43
ENDBRANCH  30  33
ENDBRANCH  25  26
ENDBRANCH  24  25
ENDBRANCH   1  24
TORSDOF 13
ENDMDL
MODEL 5
REMARK VINA RESULT: -9.480894096      1.749      4.530
REMARK  13 active torsions:
REMARK  status: ('A' for Active; 'I' for Inactive)
REMARK    1  A    between atoms: C3_4  and  N2_5 
REMARK    2  A    between atoms: N2_5  and  C4_7 
REMARK    3  A    between atoms: C5_8  and  C6_9 
REMARK    4  A    between atoms: C6_9  and  C7_10 
REMARK    5  A    between atoms: N6_20  and  C10_21 
REMARK    6  A    between atoms: C10_21  and  C11_22 
REMARK    7  A    between atoms: C11_22  and  C12_23 
REMARK    8  A    between atoms: C12_23  and  C13_24 
REMARK    9  A    between atoms: C13_24  and  C14_25 
REMARK   10  A    between atoms: C14_25  and  N7_26 
REMARK   11  A    between atoms: C18_30  and  C19_31 
REMARK   12  A    between atoms: C21_33  and  C22_34 
REMARK   13  A    between atoms: C24_39  and  C25_40 
ROOT
HETATM    1  C12 UNL     1      21.527  34.971  18.470  1.00  0.00     0.007 C 
ENDROOT
BRANCH   1   2
HETATM    2  C11 UNL     1      20.239  35.704  18.697  1.00  0.00     0.022 C 
BRANCH   2   3
HETATM    3  C10 UNL     1      19.082  34.900  19.156  1.00  0.00     0.146 C 
BRANCH   3   4
HETATM    4  N6  UNL     1      17.783  35.243  18.661  1.00  0.00    -0.279 N 
HETATM    5  N1  UNL     1      16.604  35.599  19.359  1.00  0.00    -0.228 NA
HETATM    6  C1  UNL     1      16.199  36.988  19.054  1.00  0.00     0.136 C 
HETATM    7  C2  UNL     1      15.615  34.807  18.609  1.00  0.00     0.148 C 
HETATM    8  C3  UNL     1      15.998  35.206  17.149  1.00  0.00     0.190 C 
HETATM    9  C9  UNL     1      17.447  35.256  17.257  1.00  0.00     0.258 C 
HETATM   10  O1  UNL     1      18.301  35.304  16.366  1.00  0.00    -0.270 OA
BRANCH   8  11
HETATM   11  N2  UNL     1      15.437  34.224  16.350  1.00  0.00    -0.385 N 
ATOM     12  H2  UNL     1      14.859  34.561  15.580  1.00  0.00     0.159 HD
BRANCH  11  13
HETATM   13  C4  UNL     1      15.549  32.876  16.447  1.00  0.00     0.080 C 
HETATM   14  C5  UNL     1      16.509  31.955  15.879  1.00  0.00    -0.003 C 
BRANCH  14  15
HETATM   15  C6  UNL     1      17.947  31.875  16.031  1.00  0.00     0.106 C 
BRANCH  15  16
HETATM   16  C7  UNL     1      18.660  30.607  15.901  1.00  0.00     0.100 A 
HETATM   17  N3  UNL     1      18.627  29.645  14.991  1.00  0.00    -0.340 N 
HETATM   18  C8  UNL     1      19.479  28.659  15.302  1.00  0.00     0.198 A 
ATOM     19  H3  UNL     1      18.031  29.653  14.163  1.00  0.00     0.168 HD
HETATM   20  N4  UNL     1      20.073  29.011  16.450  1.00  0.00    -0.295 N 
HETATM   21  N5  UNL     1      19.590  30.169  16.809  1.00  0.00    -0.288 N 
ATOM     22  H4  UNL     1      20.777  28.471  16.954  1.00  0.00     0.187 HD
ATOM     23  H5  UNL     1      19.866  30.678  17.649  1.00  0.00     0.188 HD
ENDBRANCH  15  16
ENDBRANCH  14  15
ENDBRANCH  11  13
ENDBRANCH   8  11
ENDBRANCH   3   4
ENDBRANCH   2   3
ENDBRANCH   1   2
BRANCH   1  24
HETATM   24  C13 UNL     1      21.583  34.505  17.005  1.00  0.00     0.044 C 
BRANCH  24  25
HETATM   25  C14 UNL     1      22.069  33.102  16.893  1.00  0.00     0.063 C 
BRANCH  25  26
HETATM   26  N7  UNL     1      22.463  32.688  15.615  1.00  0.00    -0.373 N 
HETATM   27  C15 UNL     1      22.961  31.374  15.494  1.00  0.00     0.131 C 
HETATM   28  C16 UNL     1      22.351  30.500  14.444  1.00  0.00     0.055 C 
HETATM   29  C17 UNL     1      21.492  31.142  13.447  1.00  0.00    -0.073 C 
HETATM   30  C18 UNL     1      21.190  30.532  12.333  1.00  0.00     0.014 C 
HETATM   31  C27 UNL     1      20.926  32.504  13.737  1.00  0.00     0.079 C 
HETATM   32  C28 UNL     1      21.966  33.333  14.475  1.00  0.00     0.067 C 
BRANCH  30  33
HETATM   33  C19 UNL     1      21.620  29.227  11.953  1.00  0.00    -0.034 A 
HETATM   34  C20 UNL     1      20.740  28.153  11.765  1.00  0.00     0.027 A 
HETATM   35  C21 UNL     1      21.158  26.900  11.417  1.00  0.00     0.049 A 
HETATM   36  C23 UNL     1      22.497  26.661  11.239  1.00  0.00     0.032 A 
HETATM   37  C24 UNL     1      23.425  27.693  11.412  1.00  0.00     0.049 A 
HETATM   38  C26 UNL     1      22.959  28.936  11.762  1.00  0.00     0.027 A 
BRANCH  35  39
HETATM   39  C22 UNL     1      20.225  25.756  11.219  1.00  0.00     0.417 C 
HETATM   40  F1  UNL     1      19.958  25.630   9.848  1.00  0.00    -0.166 F 
HETATM   41  F2  UNL     1      20.852  24.595  11.607  1.00  0.00    -0.166 F 
HETATM   42  F3  UNL     1      19.028  25.918  11.898  1.00  0.00    -0.166 F 
ENDBRANCH  35  39
BRANCH  37  43
HETATM   43  C25 UNL     1      24.874  27.450  11.213  1.00  0.00     0.417 C 
HETATM   44  F4  UNL     1      25.100  26.945   9.948  1.00  0.00    -0.166 F 
HETATM   45  F5  UNL     1      25.272  26.537  12.168  1.00  0.00    -0.166 F 
HETATM   46  F6  UNL     1      25.602  28.595  11.440  1.00  0.00    -0.166 F 
ENDBRANCH  37  43
ENDBRANCH  30  33
ENDBRANCH  25  26
ENDBRANCH  24  25
ENDBRANCH   1  24
TORSDOF 13
ENDMDL
