MODEL 1
REMARK VINA RESULT: -8.768198780      0.000      0.000
REMARK  14 active torsions:
REMARK  status: ('A' for Active; 'I' for Inactive)
REMARK    1  A    between atoms: C2_2  and  C3_3 
REMARK    2  A    between atoms: C3_3  and  C6_6 
REMARK       I    between atoms: C6_6  and  N1_8 
REMARK    3  A    between atoms: N1_8  and  C7_10 
REMARK    4  A    between atoms: N2_12  and  C8_14 
REMARK    5  A    between atoms: C8_14  and  C9_15 
REMARK    6  A    between atoms: C8_14  and  C16_23 
REMARK    7  A    between atoms: C9_15  and  C10_16 
REMARK    8  A    between atoms: C10_16  and  N3_17 
REMARK    9  A    between atoms: C16_23  and  O2_24 
REMARK   10  A    between atoms: O2_24  and  C17_25 
REMARK   11  A    between atoms: C17_25  and  O3_26 
REMARK   12  A    between atoms: C18_28  and  C19_29 
REMARK   13  A    between atoms: C19_29  and  O4_30 
REMARK   14  A    between atoms: O4_30  and  C20_31 
ROOT
HETATM    1  C8  UNL     1      19.811  29.722  14.364  1.00  0.00     0.112 C 
ENDROOT
BRANCH   1   2
HETATM    2  N2  UNL     1      20.619  28.548  13.853  1.00  0.00    -0.363 N 
HETATM    3  C7  UNL     1      21.678  28.407  13.090  1.00  0.00     0.154 C 
HETATM    4  S1  UNL     1      21.517  30.353  12.483  1.00  0.00    -0.013 SA
ATOM      5  H2  UNL     1      20.254  27.653  14.179  1.00  0.00     0.162 HD
BRANCH   3   6
HETATM    6  N1  UNL     1      22.749  28.271  12.318  1.00  0.00    -0.306 N 
HETATM    7  C6  UNL     1      22.953  26.942  11.705  1.00  0.00     0.231 C 
HETATM    8  O1  UNL     1      22.139  26.019  11.901  1.00  0.00    -0.272 OA
ATOM      9  H1  UNL     1      23.397  29.042  12.157  1.00  0.00     0.171 HD
BRANCH   7  10
HETATM   10  C3  UNL     1      24.146  26.692  10.858  1.00  0.00     0.034 C 
HETATM   11  C4  UNL     1      25.379  26.814  11.720  1.00  0.00     0.025 C 
HETATM   12  C5  UNL     1      24.174  27.884   9.876  1.00  0.00     0.025 C 
BRANCH  10  13
HETATM   13  C2  UNL     1      24.115  25.404  10.116  1.00  0.00     0.014 C 
HETATM   14  C1  UNL     1      23.841  25.615   8.638  1.00  0.00     0.006 C 
ENDBRANCH  10  13
ENDBRANCH   7  10
ENDBRANCH   3   6
ENDBRANCH   1   2
BRANCH   1  15
HETATM   15  C9  UNL     1      18.427  29.404  13.974  1.00  0.00     0.071 C 
BRANCH  15  16
HETATM   16  C10 UNL     1      18.011  29.726  12.571  1.00  0.00     0.060 C 
BRANCH  16  17
HETATM   17  N3  UNL     1      17.698  28.613  11.812  1.00  0.00    -0.393 N 
HETATM   18  C11 UNL     1      17.191  28.643  10.515  1.00  0.00     0.122 C 
HETATM   19  C12 UNL     1      17.835  27.590   9.609  1.00  0.00     0.020 C 
HETATM   20  C13 UNL     1      17.796  26.253  10.267  1.00  0.00     0.003 C 
HETATM   21  C14 UNL     1      18.350  26.259  11.660  1.00  0.00     0.020 C 
HETATM   22  C15 UNL     1      17.630  27.332  12.459  1.00  0.00     0.122 C 
ENDBRANCH  16  17
ENDBRANCH  15  16
ENDBRANCH   1  15
BRANCH   1  23
HETATM   23  C16 UNL     1      20.261  29.787  15.743  1.00  0.00     0.203 C 
BRANCH  23  24
HETATM   24  O2  UNL     1      20.221  30.923  16.571  1.00  0.00    -0.329 OA
BRANCH  24  25
HETATM   25  C17 UNL     1      21.375  31.718  16.475  1.00  0.00     0.176 C 
HETATM   26  C18 UNL     1      22.062  32.331  15.396  1.00  0.00     0.063 C 
BRANCH  25  27
HETATM   27  O3  UNL     1      21.905  31.896  17.662  1.00  0.00    -0.341 OA
ATOM     28  H3  UNL     1      22.673  32.453  17.600  1.00  0.00     0.220 HD
ENDBRANCH  25  27
BRANCH  26  29
HETATM   29  C19 UNL     1      21.508  33.474  14.651  1.00  0.00     0.208 C 
BRANCH  29  30
HETATM   30  O4  UNL     1      20.972  34.469  15.525  1.00  0.00    -0.346 OA
BRANCH  30  31
HETATM   31  C20 UNL     1      19.635  34.379  15.913  1.00  0.00     0.081 A 
HETATM   32  C21 UNL     1      18.613  33.886  15.163  1.00  0.00    -0.027 A 
HETATM   33  C22 UNL     1      18.814  33.250  13.818  1.00  0.00     0.051 C 
HETATM   34  C23 UNL     1      17.286  33.862  15.643  1.00  0.00     0.028 A 
HETATM   35  C24 UNL     1      17.040  34.351  16.901  1.00  0.00     0.012 A 
HETATM   36 BR1  UNL     1      15.278  34.348  17.617  1.00  0.00    -0.051 Br
HETATM   37  C25 UNL     1      18.084  34.843  17.658  1.00  0.00     0.028 A 
HETATM   38  C26 UNL     1      19.372  34.870  17.199  1.00  0.00    -0.027 A 
HETATM   39  C27 UNL     1      20.471  35.383  18.055  1.00  0.00     0.051 C 
ENDBRANCH  30  31
ENDBRANCH  29  30
ENDBRANCH  26  29
ENDBRANCH  24  25
ENDBRANCH  23  24
ENDBRANCH   1  23
TORSDOF 14
ENDMDL
MODEL 2
REMARK VINA RESULT: -8.707778919      2.415      3.942
REMARK  14 active torsions:
REMARK  status: ('A' for Active; 'I' for Inactive)
REMARK    1  A    between atoms: C2_2  and  C3_3 
REMARK    2  A    between atoms: C3_3  and  C6_6 
REMARK       I    between atoms: C6_6  and  N1_8 
REMARK    3  A    between atoms: N1_8  and  C7_10 
REMARK    4  A    between atoms: N2_12  and  C8_14 
REMARK    5  A    between atoms: C8_14  and  C9_15 
REMARK    6  A    between atoms: C8_14  and  C16_23 
REMARK    7  A    between atoms: C9_15  and  C10_16 
REMARK    8  A    between atoms: C10_16  and  N3_17 
REMARK    9  A    between atoms: C16_23  and  O2_24 
REMARK   10  A    between atoms: O2_24  and  C17_25 
REMARK   11  A    between atoms: C17_25  and  O3_26 
REMARK   12  A    between atoms: C18_28  and  C19_29 
REMARK   13  A    between atoms: C19_29  and  O4_30 
REMARK   14  A    between atoms: O4_30  and  C20_31 
ROOT
HETATM    1  C8  UNL     1      20.024  30.562  14.595  1.00  0.00     0.112 C 
ENDROOT
BRANCH   1   2
HETATM    2  N2  UNL     1      20.776  29.290  14.266  1.00  0.00    -0.363 N 
HETATM    3  C7  UNL     1      21.848  28.995  13.569  1.00  0.00     0.154 C 
HETATM    4  S1  UNL     1      21.824  30.855  12.719  1.00  0.00    -0.013 SA
ATOM      5  H2  UNL     1      20.347  28.465  14.686  1.00  0.00     0.162 HD
BRANCH   3   6
HETATM    6  N1  UNL     1      22.934  28.703  12.863  1.00  0.00    -0.306 N 
HETATM    7  C6  UNL     1      22.873  27.476  12.040  1.00  0.00     0.231 C 
HETATM    8  O1  UNL     1      21.840  26.780  12.011  1.00  0.00    -0.272 OA
ATOM      9  H1  UNL     1      23.765  29.293  12.886  1.00  0.00     0.171 HD
BRANCH   7  10
HETATM   10  C3  UNL     1      24.056  27.056  11.249  1.00  0.00     0.034 C 
HETATM   11  C4  UNL     1      25.290  27.237  12.099  1.00  0.00     0.025 C 
HETATM   12  C5  UNL     1      24.146  28.099  10.112  1.00  0.00     0.025 C 
BRANCH  10  13
HETATM   13  C2  UNL     1      23.966  25.681  10.691  1.00  0.00     0.014 C 
HETATM   14  C1  UNL     1      23.775  25.699   9.185  1.00  0.00     0.006 C 
ENDBRANCH  10  13
ENDBRANCH   7  10
ENDBRANCH   3   6
ENDBRANCH   1   2
BRANCH   1  15
HETATM   15  C9  UNL     1      18.635  30.273  14.197  1.00  0.00     0.071 C 
BRANCH  15  16
HETATM   16  C10 UNL     1      17.849  31.382  13.568  1.00  0.00     0.060 C 
BRANCH  16  17
HETATM   17  N3  UNL     1      17.466  32.369  14.458  1.00  0.00    -0.393 N 
HETATM   18  C11 UNL     1      17.880  33.699  14.410  1.00  0.00     0.122 C 
HETATM   19  C12 UNL     1      16.739  34.678  14.694  1.00  0.00     0.020 C 
HETATM   20  C13 UNL     1      16.025  34.289  15.944  1.00  0.00     0.003 C 
HETATM   21  C14 UNL     1      15.594  32.853  15.959  1.00  0.00     0.020 C 
HETATM   22  C15 UNL     1      16.808  31.985  15.676  1.00  0.00     0.122 C 
ENDBRANCH  16  17
ENDBRANCH  15  16
ENDBRANCH   1  15
BRANCH   1  23
HETATM   23  C16 UNL     1      20.436  30.778  15.970  1.00  0.00     0.203 C 
BRANCH  23  24
HETATM   24  O2  UNL     1      20.540  32.024  16.614  1.00  0.00    -0.329 OA
BRANCH  24  25
HETATM   25  C17 UNL     1      21.826  32.582  16.534  1.00  0.00     0.176 C 
HETATM   26  C18 UNL     1      22.398  33.631  15.771  1.00  0.00     0.063 C 
BRANCH  25  27
HETATM   27  O3  UNL     1      22.644  31.959  17.349  1.00  0.00    -0.341 OA
ATOM     28  H3  UNL     1      23.179  32.587  17.822  1.00  0.00     0.220 HD
ENDBRANCH  25  27
BRANCH  26  29
HETATM   29  C19 UNL     1      22.063  35.048  15.994  1.00  0.00     0.208 C 
BRANCH  29  30
HETATM   30  O4  UNL     1      21.997  35.366  17.385  1.00  0.00    -0.346 OA
BRANCH  30  31
HETATM   31  C20 UNL     1      21.135  36.377  17.809  1.00  0.00     0.081 A 
HETATM   32  C21 UNL     1      19.791  36.266  17.978  1.00  0.00    -0.027 A 
HETATM   33  C22 UNL     1      19.048  34.969  17.834  1.00  0.00     0.051 C 
HETATM   34  C23 UNL     1      19.002  37.362  18.392  1.00  0.00     0.028 A 
HETATM   35  C24 UNL     1      19.627  38.561  18.625  1.00  0.00     0.012 A 
HETATM   36 BR1  UNL     1      18.633  40.082  19.187  1.00  0.00    -0.051 Br
HETATM   37  C25 UNL     1      20.993  38.663  18.457  1.00  0.00     0.028 A 
HETATM   38  C26 UNL     1      21.762  37.606  18.057  1.00  0.00    -0.027 A 
HETATM   39  C27 UNL     1      23.234  37.749  17.915  1.00  0.00     0.051 C 
ENDBRANCH  30  31
ENDBRANCH  29  30
ENDBRANCH  26  29
ENDBRANCH  24  25
ENDBRANCH  23  24
ENDBRANCH   1  23
TORSDOF 14
ENDMDL
MODEL 3
REMARK VINA RESULT: -8.703165219      1.274      1.560
REMARK  14 active torsions:
REMARK  status: ('A' for Active; 'I' for Inactive)
REMARK    1  A    between atoms: C2_2  and  C3_3 
REMARK    2  A    between atoms: C3_3  and  C6_6 
REMARK       I    between atoms: C6_6  and  N1_8 
REMARK    3  A    between atoms: N1_8  and  C7_10 
REMARK    4  A    between atoms: N2_12  and  C8_14 
REMARK    5  A    between atoms: C8_14  and  C9_15 
REMARK    6  A    between atoms: C8_14  and  C16_23 
REMARK    7  A    between atoms: C9_15  and  C10_16 
REMARK    8  A    between atoms: C10_16  and  N3_17 
REMARK    9  A    between atoms: C16_23  and  O2_24 
REMARK   10  A    between atoms: O2_24  and  C17_25 
REMARK   11  A    between atoms: C17_25  and  O3_26 
REMARK   12  A    between atoms: C18_28  and  C19_29 
REMARK   13  A    between atoms: C19_29  and  O4_30 
REMARK   14  A    between atoms: O4_30  and  C20_31 
ROOT
HETATM    1  C8  UNL     1      19.705  29.700  14.290  1.00  0.00     0.112 C 
ENDROOT
BRANCH   1   2
HETATM    2  N2  UNL     1      20.467  28.540  13.683  1.00  0.00    -0.363 N 
HETATM    3  C7  UNL     1      21.549  28.417  12.950  1.00  0.00     0.154 C 
HETATM    4  S1  UNL     1      21.524  30.423  12.553  1.00  0.00    -0.013 SA
ATOM      5  H2  UNL     1      20.038  27.639  13.896  1.00  0.00     0.162 HD
BRANCH   3   6
HETATM    6  N1  UNL     1      22.643  28.299  12.208  1.00  0.00    -0.306 N 
HETATM    7  C6  UNL     1      22.935  26.951  11.676  1.00  0.00     0.231 C 
HETATM    8  O1  UNL     1      22.169  25.996  11.908  1.00  0.00    -0.272 OA
ATOM      9  H1  UNL     1      23.251  29.096  12.016  1.00  0.00     0.171 HD
BRANCH   7  10
HETATM   10  C3  UNL     1      24.159  26.724  10.868  1.00  0.00     0.034 C 
HETATM   11  C4  UNL     1      25.360  26.850  11.772  1.00  0.00     0.025 C 
HETATM   12  C5  UNL     1      24.207  27.925   9.898  1.00  0.00     0.025 C 
BRANCH  10  13
HETATM   13  C2  UNL     1      24.168  25.442  10.113  1.00  0.00     0.014 C 
HETATM   14  C1  UNL     1      23.851  25.655   8.644  1.00  0.00     0.006 C 
ENDBRANCH  10  13
ENDBRANCH   7  10
ENDBRANCH   3   6
ENDBRANCH   1   2
BRANCH   1  15
HETATM   15  C9  UNL     1      18.299  29.422  13.951  1.00  0.00     0.071 C 
BRANCH  15  16
HETATM   16  C10 UNL     1      17.857  29.695  12.546  1.00  0.00     0.060 C 
BRANCH  16  17
HETATM   17  N3  UNL     1      17.617  28.553  11.804  1.00  0.00    -0.393 N 
HETATM   18  C11 UNL     1      17.221  28.531  10.468  1.00  0.00     0.122 C 
HETATM   19  C12 UNL     1      17.947  27.454   9.659  1.00  0.00     0.020 C 
HETATM   20  C13 UNL     1      17.862  26.140  10.359  1.00  0.00     0.003 C 
HETATM   21  C14 UNL     1      18.297  26.201  11.792  1.00  0.00     0.020 C 
HETATM   22  C15 UNL     1      17.504  27.295  12.488  1.00  0.00     0.122 C 
ENDBRANCH  16  17
ENDBRANCH  15  16
ENDBRANCH   1  15
BRANCH   1  23
HETATM   23  C16 UNL     1      20.221  29.690  15.646  1.00  0.00     0.203 C 
BRANCH  23  24
HETATM   24  O2  UNL     1      20.025  30.694  16.611  1.00  0.00    -0.329 OA
BRANCH  24  25
HETATM   25  C17 UNL     1      20.828  31.826  16.402  1.00  0.00     0.176 C 
HETATM   26  C18 UNL     1      20.822  32.876  15.450  1.00  0.00     0.063 C 
BRANCH  25  27
HETATM   27  O3  UNL     1      21.786  31.876  17.298  1.00  0.00    -0.341 OA
ATOM     28  H3  UNL     1      22.481  31.268  17.071  1.00  0.00     0.220 HD
ENDBRANCH  25  27
BRANCH  26  29
HETATM   29  C19 UNL     1      19.778  33.915  15.420  1.00  0.00     0.208 C 
BRANCH  29  30
HETATM   30  O4  UNL     1      19.026  33.945  16.635  1.00  0.00    -0.346 OA
BRANCH  30  31
HETATM   31  C20 UNL     1      18.345  35.113  16.981  1.00  0.00     0.081 A 
HETATM   32  C21 UNL     1      17.122  35.493  16.526  1.00  0.00    -0.027 A 
HETATM   33  C22 UNL     1      16.265  34.625  15.650  1.00  0.00     0.051 C 
HETATM   34  C23 UNL     1      16.528  36.711  16.923  1.00  0.00     0.028 A 
HETATM   35  C24 UNL     1      17.219  37.518  17.791  1.00  0.00     0.012 A 
HETATM   36 BR1  UNL     1      16.484  39.173  18.373  1.00  0.00    -0.051 Br
HETATM   37  C25 UNL     1      18.457  37.122  18.253  1.00  0.00     0.028 A 
HETATM   38  C26 UNL     1      19.038  35.944  17.872  1.00  0.00    -0.027 A 
HETATM   39  C27 UNL     1      20.361  35.540  18.414  1.00  0.00     0.051 C 
ENDBRANCH  30  31
ENDBRANCH  29  30
ENDBRANCH  26  29
ENDBRANCH  24  25
ENDBRANCH  23  24
ENDBRANCH   1  23
TORSDOF 14
ENDMDL
MODEL 4
REMARK VINA RESULT: -8.629633152      1.246      1.974
REMARK  14 active torsions:
REMARK  status: ('A' for Active; 'I' for Inactive)
REMARK    1  A    between atoms: C2_2  and  C3_3 
REMARK    2  A    between atoms: C3_3  and  C6_6 
REMARK       I    between atoms: C6_6  and  N1_8 
REMARK    3  A    between atoms: N1_8  and  C7_10 
REMARK    4  A    between atoms: N2_12  and  C8_14 
REMARK    5  A    between atoms: C8_14  and  C9_15 
REMARK    6  A    between atoms: C8_14  and  C16_23 
REMARK    7  A    between atoms: C9_15  and  C10_16 
REMARK    8  A    between atoms: C10_16  and  N3_17 
REMARK    9  A    between atoms: C16_23  and  O2_24 
REMARK   10  A    between atoms: O2_24  and  C17_25 
REMARK   11  A    between atoms: C17_25  and  O3_26 
REMARK   12  A    between atoms: C18_28  and  C19_29 
REMARK   13  A    between atoms: C19_29  and  O4_30 
REMARK   14  A    between atoms: O4_30  and  C20_31 
ROOT
HETATM    1  C8  UNL     1      19.711  29.657  14.244  1.00  0.00     0.112 C 
ENDROOT
BRANCH   1   2
HETATM    2  N2  UNL     1      20.459  28.501  13.612  1.00  0.00    -0.363 N 
HETATM    3  C7  UNL     1      21.533  28.382  12.868  1.00  0.00     0.154 C 
HETATM    4  S1  UNL     1      21.521  30.394  12.504  1.00  0.00    -0.013 SA
ATOM      5  H2  UNL     1      20.025  27.600  13.814  1.00  0.00     0.162 HD
BRANCH   3   6
HETATM    6  N1  UNL     1      22.621  28.268  12.115  1.00  0.00    -0.306 N 
HETATM    7  C6  UNL     1      22.939  26.912  11.621  1.00  0.00     0.231 C 
HETATM    8  O1  UNL     1      22.200  25.946  11.893  1.00  0.00    -0.272 OA
ATOM      9  H1  UNL     1      23.206  29.073  11.890  1.00  0.00     0.171 HD
BRANCH   7  10
HETATM   10  C3  UNL     1      24.157  26.689  10.804  1.00  0.00     0.034 C 
HETATM   11  C4  UNL     1      25.364  26.800  11.703  1.00  0.00     0.025 C 
HETATM   12  C5  UNL     1      24.206  27.902   9.849  1.00  0.00     0.025 C 
BRANCH  10  13
HETATM   13  C2  UNL     1      24.158  25.417  10.034  1.00  0.00     0.014 C 
HETATM   14  C1  UNL     1      23.812  25.646   8.573  1.00  0.00     0.006 C 
ENDBRANCH  10  13
ENDBRANCH   7  10
ENDBRANCH   3   6
ENDBRANCH   1   2
BRANCH   1  15
HETATM   15  C9  UNL     1      18.300  29.396  13.911  1.00  0.00     0.071 C 
BRANCH  15  16
HETATM   16  C10 UNL     1      17.855  29.679  12.509  1.00  0.00     0.060 C 
BRANCH  16  17
HETATM   17  N3  UNL     1      17.613  28.543  11.759  1.00  0.00    -0.393 N 
HETATM   18  C11 UNL     1      17.219  28.531  10.423  1.00  0.00     0.122 C 
HETATM   19  C12 UNL     1      17.942  27.456   9.608  1.00  0.00     0.020 C 
HETATM   20  C13 UNL     1      17.852  26.138  10.299  1.00  0.00     0.003 C 
HETATM   21  C14 UNL     1      18.285  26.189  11.734  1.00  0.00     0.020 C 
HETATM   22  C15 UNL     1      17.494  27.281  12.435  1.00  0.00     0.122 C 
ENDBRANCH  16  17
ENDBRANCH  15  16
ENDBRANCH   1  15
BRANCH   1  23
HETATM   23  C16 UNL     1      20.236  29.620  15.596  1.00  0.00     0.203 C 
BRANCH  23  24
HETATM   24  O2  UNL     1      20.034  30.597  16.587  1.00  0.00    -0.329 OA
BRANCH  24  25
HETATM   25  C17 UNL     1      20.764  31.774  16.360  1.00  0.00     0.176 C 
HETATM   26  C18 UNL     1      20.747  32.764  15.345  1.00  0.00     0.063 C 
BRANCH  25  27
HETATM   27  O3  UNL     1      21.652  31.950  17.310  1.00  0.00    -0.341 OA
ATOM     28  H3  UNL     1      22.327  32.554  17.024  1.00  0.00     0.220 HD
ENDBRANCH  25  27
BRANCH  26  29
HETATM   29  C19 UNL     1      19.633  33.715  15.183  1.00  0.00     0.208 C 
BRANCH  29  30
HETATM   30  O4  UNL     1      18.787  33.741  16.334  1.00  0.00    -0.346 OA
BRANCH  30  31
HETATM   31  C20 UNL     1      18.400  34.973  16.863  1.00  0.00     0.081 A 
HETATM   32  C21 UNL     1      19.132  35.749  17.706  1.00  0.00    -0.027 A 
HETATM   33  C22 UNL     1      20.544  35.425  18.104  1.00  0.00     0.051 C 
HETATM   34  C23 UNL     1      18.638  36.973  18.205  1.00  0.00     0.028 A 
HETATM   35  C24 UNL     1      17.385  37.376  17.815  1.00  0.00     0.012 A 
HETATM   36 BR1  UNL     1      16.652  39.015  18.443  1.00  0.00    -0.051 Br
HETATM   37  C25 UNL     1      16.652  36.585  16.954  1.00  0.00     0.028 A 
HETATM   38  C26 UNL     1      17.125  35.398  16.468  1.00  0.00    -0.027 A 
HETATM   39  C27 UNL     1      16.315  34.590  15.520  1.00  0.00     0.051 C 
ENDBRANCH  30  31
ENDBRANCH  29  30
ENDBRANCH  26  29
ENDBRANCH  24  25
ENDBRANCH  23  24
ENDBRANCH   1  23
TORSDOF 14
ENDMDL
MODEL 5
REMARK VINA RESULT: -8.423370545      3.662      8.830
REMARK  14 active torsions:
REMARK  status: ('A' for Active; 'I' for Inactive)
REMARK    1  A    between atoms: C2_2  and  C3_3 
REMARK    2  A    between atoms: C3_3  and  C6_6 
REMARK       I    between atoms: C6_6  and  N1_8 
REMARK    3  A    between atoms: N1_8  and  C7_10 
REMARK    4  A    between atoms: N2_12  and  C8_14 
REMARK    5  A    between atoms: C8_14  and  C9_15 
REMARK    6  A    between atoms: C8_14  and  C16_23 
REMARK    7  A    between atoms: C9_15  and  C10_16 
REMARK    8  A    between atoms: C10_16  and  N3_17 
REMARK    9  A    between atoms: C16_23  and  O2_24 
REMARK   10  A    between atoms: O2_24  and  C17_25 
REMARK   11  A    between atoms: C17_25  and  O3_26 
REMARK   12  A    between atoms: C18_28  and  C19_29 
REMARK   13  A    between atoms: C19_29  and  O4_30 
REMARK   14  A    between atoms: O4_30  and  C20_31 
ROOT
HETATM    1  C8  UNL     1      20.463  33.233  15.617  1.00  0.00     0.112 C 
ENDROOT
BRANCH   1   2
HETATM    2  N2  UNL     1      20.592  34.741  15.574  1.00  0.00    -0.363 N 
HETATM    3  C7  UNL     1      21.398  35.624  16.118  1.00  0.00     0.154 C 
HETATM    4  S1  UNL     1      22.102  34.205  17.410  1.00  0.00    -0.013 SA
ATOM      5  H2  UNL     1      19.883  35.175  14.982  1.00  0.00     0.162 HD
BRANCH   3   6
HETATM    6  N1  UNL     1      22.216  36.511  16.669  1.00  0.00    -0.306 N 
HETATM    7  C6  UNL     1      21.601  37.772  17.133  1.00  0.00     0.231 C 
HETATM    8  O1  UNL     1      20.374  37.962  17.021  1.00  0.00    -0.272 OA
ATOM      9  H1  UNL     1      23.215  36.333  16.768  1.00  0.00     0.171 HD
BRANCH   7  10
HETATM   10  C3  UNL     1      22.450  38.835  17.728  1.00  0.00     0.034 C 
HETATM   11  C4  UNL     1      21.738  39.397  18.934  1.00  0.00     0.025 C 
HETATM   12  C5  UNL     1      22.466  39.953  16.663  1.00  0.00     0.025 C 
BRANCH  10  13
HETATM   13  C2  UNL     1      23.835  38.404  18.055  1.00  0.00     0.014 C 
HETATM   14  C1  UNL     1      24.194  38.719  19.496  1.00  0.00     0.006 C 
ENDBRANCH  10  13
ENDBRANCH   7  10
ENDBRANCH   3   6
ENDBRANCH   1   2
BRANCH   1  15
HETATM   15  C9  UNL     1      19.123  33.002  16.183  1.00  0.00     0.071 C 
BRANCH  15  16
HETATM   16  C10 UNL     1      17.964  32.979  15.234  1.00  0.00     0.060 C 
BRANCH  16  17
HETATM   17  N3  UNL     1      16.881  33.727  15.657  1.00  0.00    -0.393 N 
HETATM   18  C11 UNL     1      15.751  33.216  16.292  1.00  0.00     0.122 C 
HETATM   19  C12 UNL     1      15.282  34.097  17.453  1.00  0.00     0.020 C 
HETATM   20  C13 UNL     1      15.164  35.515  17.008  1.00  0.00     0.003 C 
HETATM   21  C14 UNL     1      16.399  36.030  16.332  1.00  0.00     0.020 C 
HETATM   22  C15 UNL     1      16.756  35.083  15.199  1.00  0.00     0.122 C 
ENDBRANCH  16  17
ENDBRANCH  15  16
ENDBRANCH   1  15
BRANCH   1  23
HETATM   23  C16 UNL     1      20.830  32.886  14.256  1.00  0.00     0.203 C 
BRANCH  23  24
HETATM   24  O2  UNL     1      22.065  33.157  13.641  1.00  0.00    -0.329 OA
BRANCH  24  25
HETATM   25  C17 UNL     1      23.140  32.478  14.235  1.00  0.00     0.176 C 
HETATM   26  C18 UNL     1      23.318  31.165  14.742  1.00  0.00     0.063 C 
BRANCH  25  27
HETATM   27  O3  UNL     1      24.180  33.272  14.336  1.00  0.00    -0.341 OA
ATOM     28  H3  UNL     1      24.964  32.767  14.522  1.00  0.00     0.220 HD
ENDBRANCH  25  27
BRANCH  26  29
HETATM   29  C19 UNL     1      23.370  29.979  13.870  1.00  0.00     0.208 C 
BRANCH  29  30
HETATM   30  O4  UNL     1      22.369  29.021  14.217  1.00  0.00    -0.346 OA
BRANCH  30  31
HETATM   31  C20 UNL     1      21.185  28.979  13.479  1.00  0.00     0.081 A 
HETATM   32  C21 UNL     1      21.078  28.703  12.152  1.00  0.00    -0.027 A 
HETATM   33  C22 UNL     1      22.243  28.284  11.302  1.00  0.00     0.051 C 
HETATM   34  C23 UNL     1      19.830  28.709  11.492  1.00  0.00     0.028 A 
HETATM   35  C24 UNL     1      18.708  29.001  12.226  1.00  0.00     0.012 A 
HETATM   36 BR1  UNL     1      16.991  29.026  11.408  1.00  0.00    -0.051 Br
HETATM   37  C25 UNL     1      18.826  29.273  13.573  1.00  0.00     0.028 A 
HETATM   38  C26 UNL     1      20.031  29.270  14.218  1.00  0.00    -0.027 A 
HETATM   39  C27 UNL     1      20.113  29.541  15.676  1.00  0.00     0.051 C 
ENDBRANCH  30  31
ENDBRANCH  29  30
ENDBRANCH  26  29
ENDBRANCH  24  25
ENDBRANCH  23  24
ENDBRANCH   1  23
TORSDOF 14
ENDMDL
