MODEL 1
REMARK VINA RESULT: -9.048115420      0.000      0.000
REMARK  14 active torsions:
REMARK  status: ('A' for Active; 'I' for Inactive)
REMARK    1  A    between atoms: C2_2  and  C3_3 
REMARK    2  A    between atoms: C3_3  and  C4_4 
REMARK    3  A    between atoms: C4_4  and  C5_5 
REMARK    4  A    between atoms: C5_5  and  C6_6 
REMARK    5  A    between atoms: C6_6  and  N1_7 
REMARK    6  A    between atoms: N1_7  and  C7_9 
REMARK    7  A    between atoms: C10_14  and  N3_15 
REMARK    8  A    between atoms: N3_15  and  C11_17 
REMARK    9  A    between atoms: C11_17  and  C12_18 
REMARK   10  A    between atoms: C12_18  and  N4_19 
REMARK   11  A    between atoms: N7_31  and  C20_32 
REMARK   12  A    between atoms: C28_42  and  C29_43 
REMARK   13  A    between atoms: C29_43  and  C30_44 
REMARK   14  A    between atoms: C30_44  and  C31_45 
ROOT
HETATM    1  C7  UNL     1      20.705  31.484  16.309  1.00  0.00     0.684 A 
HETATM    2  N2  UNL     1      21.058  30.529  15.432  1.00  0.00    -0.188 N 
ATOM      3  H2  UNL     1      22.038  30.247  15.400  1.00  0.00     0.184 HD
HETATM    4  C8  UNL     1      20.194  29.921  14.590  1.00  0.00     0.093 A 
HETATM    5  C9  UNL     1      18.872  30.305  14.642  1.00  0.00     0.141 A 
HETATM    6  C10 UNL     1      18.494  31.294  15.549  1.00  0.00     0.153 A 
HETATM    7  N6  UNL     1      19.396  31.866  16.360  1.00  0.00    -0.174 N 
ATOM      8  H6  UNL     1      19.102  32.588  17.017  1.00  0.00     0.186 HD
HETATM    9  O1  UNL     1      17.981  29.696  13.797  1.00  0.00    -0.337 OA
HETATM   10  C18 UNL     1      18.350  29.327  12.506  1.00  0.00     0.165 C 
HETATM   11  C19 UNL     1      17.671  28.057  12.014  1.00  0.00     0.165 C 
HETATM   12  N7  UNL     1      18.534  27.639  10.895  1.00  0.00    -0.315 N 
HETATM   13  C26 UNL     1      19.861  27.971  11.363  1.00  0.00     0.235 C 
HETATM   14  O2  UNL     1      20.837  27.283  10.904  1.00  0.00    -0.272 OA
HETATM   15  C27 UNL     1      19.830  29.092  12.321  1.00  0.00     0.144 C 
HETATM   16  C28 UNL     1      20.555  28.866  13.618  1.00  0.00    -0.016 C 
ENDROOT
BRANCH   6  17
HETATM   17  N3  UNL     1      17.253  31.594  15.537  1.00  0.00    -0.372 N 
ATOM     18  H3  UNL     1      16.593  30.873  15.831  1.00  0.00     0.161 HD
BRANCH  17  19
HETATM   19  C11 UNL     1      16.721  32.848  15.147  1.00  0.00     0.151 C 
BRANCH  19  20
HETATM   20  C12 UNL     1      16.176  33.530  16.420  1.00  0.00     0.292 C 
BRANCH  20  21
HETATM   21  N4  UNL     1      16.877  34.790  16.575  1.00  0.00     0.096 N 
HETATM   22  C13 UNL     1      15.946  35.866  16.876  1.00  0.00     0.292 C 
HETATM   23  C14 UNL     1      16.677  37.180  17.039  1.00  0.00     0.151 C 
HETATM   24  N5  UNL     1      17.488  37.076  18.197  1.00  0.00    -0.394 N 
HETATM   25  C15 UNL     1      18.411  38.166  18.315  1.00  0.00     0.148 C 
HETATM   26  C16 UNL     1      17.997  35.814  18.551  1.00  0.00     0.087 C 
HETATM   27  C17 UNL     1      17.923  34.704  17.572  1.00  0.00     0.316 C 
ENDBRANCH  20  21
ENDBRANCH  19  20
ENDBRANCH  17  19
ENDBRANCH   6  17
BRANCH   1  28
HETATM   28  N1  UNL     1      21.575  32.062  17.068  1.00  0.00    -0.205 N 
ATOM     29  H1  UNL     1      22.277  31.448  17.481  1.00  0.00     0.183 HD
BRANCH  28  30
HETATM   30  C6  UNL     1      21.684  33.426  17.403  1.00  0.00     0.079 C 
BRANCH  30  31
HETATM   31  C5  UNL     1      22.756  34.081  16.543  1.00  0.00     0.045 C 
BRANCH  31  32
HETATM   32  C4  UNL     1      22.197  34.416  15.170  1.00  0.00     0.005 C 
BRANCH  32  33
HETATM   33  C3  UNL     1      22.995  33.659  14.144  1.00  0.00     0.000 C 
BRANCH  33  34
HETATM   34  C2  UNL     1      24.299  33.157  14.734  1.00  0.00    -0.005 C 
HETATM   35  C1  UNL     1      24.340  31.663  14.566  1.00  0.00     0.005 C 
ENDBRANCH  33  34
ENDBRANCH  32  33
ENDBRANCH  31  32
ENDBRANCH  30  31
ENDBRANCH  28  30
ENDBRANCH   1  28
BRANCH  16  36
HETATM   36  C29 UNL     1      21.941  28.441  13.517  1.00  0.00    -0.016 C 
BRANCH  36  37
HETATM   37  C30 UNL     1      22.955  29.047  12.659  1.00  0.00     0.027 C 
BRANCH  37  38
HETATM   38  C31 UNL     1      24.201  28.286  12.354  1.00  0.00    -0.001 C 
HETATM   39  C32 UNL     1      24.258  27.903  10.871  1.00  0.00     0.005 C 
ENDBRANCH  37  38
ENDBRANCH  36  37
ENDBRANCH  16  36
BRANCH  12  40
HETATM   40  C20 UNL     1      18.131  27.057   9.664  1.00  0.00     0.037 A 
HETATM   41  C21 UNL     1      17.401  25.890   9.639  1.00  0.00     0.033 A 
HETATM   42  C22 UNL     1      17.004  25.320   8.434  1.00  0.00     0.044 A 
HETATM   43  C23 UNL     1      17.325  25.897   7.225  1.00  0.00     0.116 A 
HETATM   44  F1  UNL     1      16.938  25.340   6.035  1.00  0.00    -0.206 F 
HETATM   45  C24 UNL     1      18.056  27.067   7.231  1.00  0.00     0.044 A 
HETATM   46  C25 UNL     1      18.447  27.628   8.436  1.00  0.00     0.033 A 
ENDBRANCH  12  40
TORSDOF 14
ENDMDL
MODEL 2
REMARK VINA RESULT: -8.952542353      3.339      9.400
REMARK  14 active torsions:
REMARK  status: ('A' for Active; 'I' for Inactive)
REMARK    1  A    between atoms: C2_2  and  C3_3 
REMARK    2  A    between atoms: C3_3  and  C4_4 
REMARK    3  A    between atoms: C4_4  and  C5_5 
REMARK    4  A    between atoms: C5_5  and  C6_6 
REMARK    5  A    between atoms: C6_6  and  N1_7 
REMARK    6  A    between atoms: N1_7  and  C7_9 
REMARK    7  A    between atoms: C10_14  and  N3_15 
REMARK    8  A    between atoms: N3_15  and  C11_17 
REMARK    9  A    between atoms: C11_17  and  C12_18 
REMARK   10  A    between atoms: C12_18  and  N4_19 
REMARK   11  A    between atoms: N7_31  and  C20_32 
REMARK   12  A    between atoms: C28_42  and  C29_43 
REMARK   13  A    between atoms: C29_43  and  C30_44 
REMARK   14  A    between atoms: C30_44  and  C31_45 
ROOT
HETATM    1  C7  UNL     1      22.983  27.999  12.200  1.00  0.00     0.684 A 
HETATM    2  N2  UNL     1      22.767  29.253  12.632  1.00  0.00    -0.188 N 
ATOM      3  H2  UNL     1      23.578  29.844  12.813  1.00  0.00     0.184 HD
HETATM    4  C8  UNL     1      21.540  29.779  12.839  1.00  0.00     0.093 A 
HETATM    5  C9  UNL     1      20.448  28.976  12.589  1.00  0.00     0.141 A 
HETATM    6  C10 UNL     1      20.661  27.673  12.140  1.00  0.00     0.153 A 
HETATM    7  N6  UNL     1      21.902  27.203  11.953  1.00  0.00    -0.174 N 
ATOM      8  H6  UNL     1      22.039  26.247  11.625  1.00  0.00     0.186 HD
HETATM    9  O1  UNL     1      19.196  29.494  12.791  1.00  0.00    -0.337 OA
HETATM   10  C18 UNL     1      18.943  30.379  13.836  1.00  0.00     0.165 C 
HETATM   11  C19 UNL     1      17.893  31.431  13.509  1.00  0.00     0.165 C 
HETATM   12  N7  UNL     1      18.142  32.468  14.525  1.00  0.00    -0.315 N 
HETATM   13  C26 UNL     1      19.583  32.468  14.646  1.00  0.00     0.235 C 
HETATM   14  O2  UNL     1      20.143  33.558  15.014  1.00  0.00    -0.272 OA
HETATM   15  C27 UNL     1      20.152  31.150  14.310  1.00  0.00     0.144 C 
HETATM   16  C28 UNL     1      21.273  31.156  13.310  1.00  0.00    -0.016 C 
ENDROOT
BRANCH   6  17
HETATM   17  N3  UNL     1      19.601  26.994  11.930  1.00  0.00    -0.372 N 
ATOM     18  H3  UNL     1      18.884  27.004  12.657  1.00  0.00     0.161 HD
BRANCH  17  19
HETATM   19  C11 UNL     1      19.341  26.228  10.767  1.00  0.00     0.151 C 
BRANCH  19  20
HETATM   20  C12 UNL     1      17.808  26.118  10.623  1.00  0.00     0.292 C 
BRANCH  20  21
HETATM   21  N4  UNL     1      17.467  26.505   9.268  1.00  0.00     0.096 N 
HETATM   22  C13 UNL     1      18.570  27.218   8.642  1.00  0.00     0.292 C 
HETATM   23  C14 UNL     1      18.215  27.621   7.227  1.00  0.00     0.151 C 
HETATM   24  N5  UNL     1      18.081  26.433   6.466  1.00  0.00    -0.394 N 
HETATM   25  C15 UNL     1      17.508  26.674   5.175  1.00  0.00     0.148 C 
HETATM   26  C16 UNL     1      17.639  25.265   7.114  1.00  0.00     0.087 C 
HETATM   27  C17 UNL     1      17.056  25.368   8.471  1.00  0.00     0.316 C 
ENDBRANCH  20  21
ENDBRANCH  19  20
ENDBRANCH  17  19
ENDBRANCH   6  17
BRANCH   1  28
HETATM   28  N1  UNL     1      24.176  27.530  12.051  1.00  0.00    -0.205 N 
ATOM     29  H1  UNL     1      24.921  28.072  12.489  1.00  0.00     0.183 HD
BRANCH  28  30
HETATM   30  C6  UNL     1      24.588  26.371  11.365  1.00  0.00     0.079 C 
BRANCH  30  31
HETATM   31  C5  UNL     1      24.429  26.579   9.865  1.00  0.00     0.045 C 
BRANCH  31  32
HETATM   32  C4  UNL     1      23.550  25.490   9.272  1.00  0.00     0.005 C 
BRANCH  32  33
HETATM   33  C3  UNL     1      23.850  25.399   7.801  1.00  0.00     0.000 C 
BRANCH  33  34
HETATM   34  C2  UNL     1      22.911  24.426   7.115  1.00  0.00    -0.005 C 
HETATM   35  C1  UNL     1      21.501  24.850   7.416  1.00  0.00     0.005 C 
ENDBRANCH  33  34
ENDBRANCH  32  33
ENDBRANCH  31  32
ENDBRANCH  30  31
ENDBRANCH  28  30
ENDBRANCH   1  28
BRANCH  16  36
HETATM   36  C29 UNL     1      22.395  32.033  13.602  1.00  0.00    -0.016 C 
BRANCH  36  37
HETATM   37  C30 UNL     1      23.333  31.871  14.710  1.00  0.00     0.027 C 
BRANCH  37  38
HETATM   38  C31 UNL     1      23.515  32.990  15.680  1.00  0.00    -0.001 C 
HETATM   39  C32 UNL     1      22.796  32.690  17.000  1.00  0.00     0.005 C 
ENDBRANCH  37  38
ENDBRANCH  36  37
ENDBRANCH  16  36
BRANCH  12  40
HETATM   40  C20 UNL     1      17.179  33.258  15.208  1.00  0.00     0.037 A 
HETATM   41  C21 UNL     1      16.233  32.673  16.018  1.00  0.00     0.033 A 
HETATM   42  C22 UNL     1      15.289  33.445  16.689  1.00  0.00     0.044 A 
HETATM   43  C23 UNL     1      15.266  34.817  16.569  1.00  0.00     0.116 A 
HETATM   44  F1  UNL     1      14.340  35.583  17.226  1.00  0.00    -0.206 F 
HETATM   45  C24 UNL     1      16.208  35.420  15.760  1.00  0.00     0.044 A 
HETATM   46  C25 UNL     1      17.143  34.644  15.096  1.00  0.00     0.033 A 
ENDBRANCH  12  40
TORSDOF 14
ENDMDL
MODEL 3
REMARK VINA RESULT: -8.945828534      0.962      1.550
REMARK  14 active torsions:
REMARK  status: ('A' for Active; 'I' for Inactive)
REMARK    1  A    between atoms: C2_2  and  C3_3 
REMARK    2  A    between atoms: C3_3  and  C4_4 
REMARK    3  A    between atoms: C4_4  and  C5_5 
REMARK    4  A    between atoms: C5_5  and  C6_6 
REMARK    5  A    between atoms: C6_6  and  N1_7 
REMARK    6  A    between atoms: N1_7  and  C7_9 
REMARK    7  A    between atoms: C10_14  and  N3_15 
REMARK    8  A    between atoms: N3_15  and  C11_17 
REMARK    9  A    between atoms: C11_17  and  C12_18 
REMARK   10  A    between atoms: C12_18  and  N4_19 
REMARK   11  A    between atoms: N7_31  and  C20_32 
REMARK   12  A    between atoms: C28_42  and  C29_43 
REMARK   13  A    between atoms: C29_43  and  C30_44 
REMARK   14  A    between atoms: C30_44  and  C31_45 
ROOT
HETATM    1  C7  UNL     1      20.842  31.439  16.355  1.00  0.00     0.684 A 
HETATM    2  N2  UNL     1      21.177  30.481  15.474  1.00  0.00    -0.188 N 
ATOM      3  H2  UNL     1      22.151  30.183  15.438  1.00  0.00     0.184 HD
HETATM    4  C8  UNL     1      20.299  29.889  14.634  1.00  0.00     0.093 A 
HETATM    5  C9  UNL     1      18.984  30.295  14.691  1.00  0.00     0.141 A 
HETATM    6  C10 UNL     1      18.626  31.287  15.602  1.00  0.00     0.153 A 
HETATM    7  N6  UNL     1      19.540  31.842  16.412  1.00  0.00    -0.174 N 
ATOM      8  H6  UNL     1      19.260  32.567  17.072  1.00  0.00     0.186 HD
HETATM    9  O1  UNL     1      18.080  29.702  13.849  1.00  0.00    -0.337 OA
HETATM   10  C18 UNL     1      18.438  29.330  12.555  1.00  0.00     0.165 C 
HETATM   11  C19 UNL     1      17.737  28.073  12.062  1.00  0.00     0.165 C 
HETATM   12  N7  UNL     1      18.589  27.643  10.940  1.00  0.00    -0.315 N 
HETATM   13  C26 UNL     1      19.923  27.953  11.404  1.00  0.00     0.235 C 
HETATM   14  O2  UNL     1      20.886  27.250  10.939  1.00  0.00    -0.272 OA
HETATM   15  C27 UNL     1      19.914  29.072  12.364  1.00  0.00     0.144 C 
HETATM   16  C28 UNL     1      20.639  28.831  13.658  1.00  0.00    -0.016 C 
ENDROOT
BRANCH   6  17
HETATM   17  N3  UNL     1      17.390  31.607  15.596  1.00  0.00    -0.372 N 
ATOM     18  H3  UNL     1      16.722  30.907  15.919  1.00  0.00     0.161 HD
BRANCH  17  19
HETATM   19  C11 UNL     1      16.874  32.857  15.174  1.00  0.00     0.151 C 
BRANCH  19  20
HETATM   20  C12 UNL     1      16.323  33.572  16.426  1.00  0.00     0.292 C 
BRANCH  20  21
HETATM   21  N4  UNL     1      17.047  34.821  16.571  1.00  0.00     0.096 N 
HETATM   22  C13 UNL     1      16.135  35.914  16.869  1.00  0.00     0.292 C 
HETATM   23  C14 UNL     1      16.889  37.217  17.022  1.00  0.00     0.151 C 
HETATM   24  N5  UNL     1      17.703  37.105  18.177  1.00  0.00    -0.394 N 
HETATM   25  C15 UNL     1      18.645  38.179  18.285  1.00  0.00     0.148 C 
HETATM   26  C16 UNL     1      18.192  35.836  18.537  1.00  0.00     0.087 C 
HETATM   27  C17 UNL     1      18.094  34.723  17.565  1.00  0.00     0.316 C 
ENDBRANCH  20  21
ENDBRANCH  19  20
ENDBRANCH  17  19
ENDBRANCH   6  17
BRANCH   1  28
HETATM   28  N1  UNL     1      21.724  32.000  17.113  1.00  0.00    -0.205 N 
ATOM     29  H1  UNL     1      21.802  31.620  18.056  1.00  0.00     0.183 HD
BRANCH  28  30
HETATM   30  C6  UNL     1      22.593  33.068  16.812  1.00  0.00     0.079 C 
BRANCH  30  31
HETATM   31  C5  UNL     1      21.985  34.377  17.297  1.00  0.00     0.045 C 
BRANCH  31  32
HETATM   32  C4  UNL     1      21.669  35.281  16.117  1.00  0.00     0.005 C 
BRANCH  32  33
HETATM   33  C3  UNL     1      21.854  36.706  16.560  1.00  0.00     0.000 C 
BRANCH  33  34
HETATM   34  C2  UNL     1      22.433  36.768  17.960  1.00  0.00    -0.005 C 
HETATM   35  C1  UNL     1      23.364  37.947  18.026  1.00  0.00     0.005 C 
ENDBRANCH  33  34
ENDBRANCH  32  33
ENDBRANCH  31  32
ENDBRANCH  30  31
ENDBRANCH  28  30
ENDBRANCH   1  28
BRANCH  16  36
HETATM   36  C29 UNL     1      22.019  28.383  13.551  1.00  0.00    -0.016 C 
BRANCH  36  37
HETATM   37  C30 UNL     1      23.078  29.064  12.811  1.00  0.00     0.027 C 
BRANCH  37  38
HETATM   38  C31 UNL     1      24.292  28.298  12.408  1.00  0.00    -0.001 C 
HETATM   39  C32 UNL     1      24.242  27.937  10.920  1.00  0.00     0.005 C 
ENDBRANCH  37  38
ENDBRANCH  36  37
ENDBRANCH  16  36
BRANCH  12  40
HETATM   40  C20 UNL     1      18.172  27.072   9.708  1.00  0.00     0.037 A 
HETATM   41  C21 UNL     1      17.449  25.901   9.682  1.00  0.00     0.033 A 
HETATM   42  C22 UNL     1      17.039  25.340   8.477  1.00  0.00     0.044 A 
HETATM   43  C23 UNL     1      17.339  25.931   7.270  1.00  0.00     0.116 A 
HETATM   44  F1  UNL     1      16.939  25.384   6.079  1.00  0.00    -0.206 F 
HETATM   45  C24 UNL     1      18.064  27.106   7.277  1.00  0.00     0.044 A 
HETATM   46  C25 UNL     1      18.468  27.657   8.482  1.00  0.00     0.033 A 
ENDBRANCH  12  40
TORSDOF 14
ENDMDL
MODEL 4
REMARK VINA RESULT: -8.869311941      4.066     10.651
REMARK  14 active torsions:
REMARK  status: ('A' for Active; 'I' for Inactive)
REMARK    1  A    between atoms: C2_2  and  C3_3 
REMARK    2  A    between atoms: C3_3  and  C4_4 
REMARK    3  A    between atoms: C4_4  and  C5_5 
REMARK    4  A    between atoms: C5_5  and  C6_6 
REMARK    5  A    between atoms: C6_6  and  N1_7 
REMARK    6  A    between atoms: N1_7  and  C7_9 
REMARK    7  A    between atoms: C10_14  and  N3_15 
REMARK    8  A    between atoms: N3_15  and  C11_17 
REMARK    9  A    between atoms: C11_17  and  C12_18 
REMARK   10  A    between atoms: C12_18  and  N4_19 
REMARK   11  A    between atoms: N7_31  and  C20_32 
REMARK   12  A    between atoms: C28_42  and  C29_43 
REMARK   13  A    between atoms: C29_43  and  C30_44 
REMARK   14  A    between atoms: C30_44  and  C31_45 
ROOT
HETATM    1  C7  UNL     1      18.747  28.990  14.369  1.00  0.00     0.684 A 
HETATM    2  N2  UNL     1      18.429  30.117  15.029  1.00  0.00    -0.188 N 
ATOM      3  H2  UNL     1      17.443  30.306  15.207  1.00  0.00     0.184 HD
HETATM    4  C8  UNL     1      19.338  31.014  15.469  1.00  0.00     0.093 A 
HETATM    5  C9  UNL     1      20.668  30.750  15.227  1.00  0.00     0.141 A 
HETATM    6  C10 UNL     1      21.009  29.584  14.545  1.00  0.00     0.153 A 
HETATM    7  N6  UNL     1      20.064  28.729  14.128  1.00  0.00    -0.174 N 
ATOM      8  H6  UNL     1      20.331  27.879  13.630  1.00  0.00     0.186 HD
HETATM    9  O1  UNL     1      21.604  31.648  15.671  1.00  0.00    -0.337 OA
HETATM   10  C18 UNL     1      21.350  33.017  15.658  1.00  0.00     0.165 C 
HETATM   11  C19 UNL     1      21.998  33.772  16.810  1.00  0.00     0.165 C 
HETATM   12  N7  UNL     1      21.233  35.030  16.847  1.00  0.00    -0.315 N 
HETATM   13  C26 UNL     1      19.887  34.604  16.535  1.00  0.00     0.235 C 
HETATM   14  O2  UNL     1      18.924  35.312  16.993  1.00  0.00    -0.272 OA
HETATM   15  C27 UNL     1      19.886  33.383  15.708  1.00  0.00     0.144 C 
HETATM   16  C28 UNL     1      19.017  32.260  16.200  1.00  0.00    -0.016 C 
ENDROOT
BRANCH   6  17
HETATM   17  N3  UNL     1      22.260  29.410  14.361  1.00  0.00    -0.372 N 
ATOM     18  H3  UNL     1      22.808  29.066  15.150  1.00  0.00     0.161 HD
BRANCH  17  19
HETATM   19  C11 UNL     1      22.947  29.658  13.147  1.00  0.00     0.151 C 
BRANCH  19  20
HETATM   20  C12 UNL     1      23.894  28.464  12.903  1.00  0.00     0.292 C 
BRANCH  20  21
HETATM   21  N4  UNL     1      23.577  27.914  11.600  1.00  0.00     0.096 N 
HETATM   22  C13 UNL     1      24.742  27.270  11.014  1.00  0.00     0.292 C 
HETATM   23  C14 UNL     1      24.411  26.694   9.654  1.00  0.00     0.151 C 
HETATM   24  N5  UNL     1      23.483  25.641   9.852  1.00  0.00    -0.394 N 
HETATM   25  C15 UNL     1      22.909  25.182   8.622  1.00  0.00     0.148 C 
HETATM   26  C16 UNL     1      22.593  25.722  10.939  1.00  0.00     0.087 C 
HETATM   27  C17 UNL     1      22.449  27.008  11.659  1.00  0.00     0.316 C 
ENDBRANCH  20  21
ENDBRANCH  19  20
ENDBRANCH  17  19
ENDBRANCH   6  17
BRANCH   1  28
HETATM   28  N1  UNL     1      17.839  28.180  13.936  1.00  0.00    -0.205 N 
ATOM     29  H1  UNL     1      17.230  27.777  14.648  1.00  0.00     0.183 HD
BRANCH  28  30
HETATM   30  C6  UNL     1      17.576  27.779  12.611  1.00  0.00     0.079 C 
BRANCH  30  31
HETATM   31  C5  UNL     1      17.136  28.982  11.788  1.00  0.00     0.045 C 
BRANCH  31  32
HETATM   32  C4  UNL     1      17.131  28.636  10.309  1.00  0.00     0.005 C 
BRANCH  32  33
HETATM   33  C3  UNL     1      18.260  27.675  10.052  1.00  0.00     0.000 C 
BRANCH  33  34
HETATM   34  C2  UNL     1      18.151  27.067   8.667  1.00  0.00    -0.005 C 
HETATM   35  C1  UNL     1      17.319  25.819   8.772  1.00  0.00     0.005 C 
ENDBRANCH  33  34
ENDBRANCH  32  33
ENDBRANCH  31  32
ENDBRANCH  30  31
ENDBRANCH  28  30
ENDBRANCH   1  28
BRANCH  16  36
HETATM   36  C29 UNL     1      17.625  32.588  16.463  1.00  0.00    -0.016 C 
BRANCH  36  37
HETATM   37  C30 UNL     1      16.663  33.063  15.473  1.00  0.00     0.027 C 
BRANCH  37  38
HETATM   38  C31 UNL     1      15.743  34.182  15.831  1.00  0.00    -0.001 C 
HETATM   39  C32 UNL     1      15.463  34.199  17.337  1.00  0.00     0.005 C 
ENDBRANCH  37  38
ENDBRANCH  36  37
ENDBRANCH  16  36
BRANCH  12  40
HETATM   40  C20 UNL     1      21.726  36.334  17.121  1.00  0.00     0.037 A 
HETATM   41  C21 UNL     1      22.520  36.572  18.220  1.00  0.00     0.033 A 
HETATM   42  C22 UNL     1      23.005  37.847  18.489  1.00  0.00     0.044 A 
HETATM   43  C23 UNL     1      22.711  38.916  17.672  1.00  0.00     0.116 A 
HETATM   44  F1  UNL     1      23.185  40.175  17.931  1.00  0.00    -0.206 F 
HETATM   45  C24 UNL     1      21.915  38.695  16.566  1.00  0.00     0.044 A 
HETATM   46  C25 UNL     1      21.437  37.422  16.305  1.00  0.00     0.033 A 
ENDBRANCH  12  40
TORSDOF 14
ENDMDL
MODEL 5
REMARK VINA RESULT: -8.623106903      3.234      9.632
REMARK  14 active torsions:
REMARK  status: ('A' for Active; 'I' for Inactive)
REMARK    1  A    between atoms: C2_2  and  C3_3 
REMARK    2  A    between atoms: C3_3  and  C4_4 
REMARK    3  A    between atoms: C4_4  and  C5_5 
REMARK    4  A    between atoms: C5_5  and  C6_6 
REMARK    5  A    between atoms: C6_6  and  N1_7 
REMARK    6  A    between atoms: N1_7  and  C7_9 
REMARK    7  A    between atoms: C10_14  and  N3_15 
REMARK    8  A    between atoms: N3_15  and  C11_17 
REMARK    9  A    between atoms: C11_17  and  C12_18 
REMARK   10  A    between atoms: C12_18  and  N4_19 
REMARK   11  A    between atoms: N7_31  and  C20_32 
REMARK   12  A    between atoms: C28_42  and  C29_43 
REMARK   13  A    between atoms: C29_43  and  C30_44 
REMARK   14  A    between atoms: C30_44  and  C31_45 
ROOT
HETATM    1  C7  UNL     1      21.162  26.788  11.714  1.00  0.00     0.684 A 
HETATM    2  N2  UNL     1      21.402  27.819  12.543  1.00  0.00    -0.188 N 
ATOM      3  H2  UNL     1      22.330  27.894  12.958  1.00  0.00     0.184 HD
HETATM    4  C8  UNL     1      20.487  28.761  12.859  1.00  0.00     0.093 A 
HETATM    5  C9  UNL     1      19.235  28.655  12.292  1.00  0.00     0.141 A 
HETATM    6  C10 UNL     1      18.976  27.591  11.430  1.00  0.00     0.153 A 
HETATM    7  N6  UNL     1      19.923  26.683  11.153  1.00  0.00    -0.174 N 
ATOM      8  H6  UNL     1      19.715  25.910  10.520  1.00  0.00     0.186 HD
HETATM    9  O1  UNL     1      18.296  29.605  12.599  1.00  0.00    -0.337 OA
HETATM   10  C18 UNL     1      18.228  30.164  13.873  1.00  0.00     0.165 C 
HETATM   11  C19 UNL     1      17.795  31.623  13.879  1.00  0.00     0.165 C 
HETATM   12  N7  UNL     1      18.241  32.090  15.203  1.00  0.00    -0.315 N 
HETATM   13  C26 UNL     1      19.497  31.397  15.388  1.00  0.00     0.235 C 
HETATM   14  O2  UNL     1      20.371  31.954  16.138  1.00  0.00    -0.272 OA
HETATM   15  C27 UNL     1      19.526  30.125  14.644  1.00  0.00     0.144 C 
HETATM   16  C28 UNL     1      20.724  29.907  13.765  1.00  0.00    -0.016 C 
ENDROOT
BRANCH   6  17
HETATM   17  N3  UNL     1      17.796  27.563  10.945  1.00  0.00    -0.372 N 
ATOM     18  H3  UNL     1      17.018  27.503  11.604  1.00  0.00     0.161 HD
BRANCH  17  19
HETATM   19  C11 UNL     1      17.480  27.609   9.565  1.00  0.00     0.151 C 
BRANCH  19  20
HETATM   20  C12 UNL     1      17.098  26.177   9.133  1.00  0.00     0.292 C 
BRANCH  20  21
HETATM   21  N4  UNL     1      17.389  26.054   7.718  1.00  0.00     0.096 N 
HETATM   22  C13 UNL     1      18.632  26.733   7.386  1.00  0.00     0.292 C 
HETATM   23  C14 UNL     1      18.937  26.603   5.910  1.00  0.00     0.151 C 
HETATM   24  N5  UNL     1      19.196  25.235   5.646  1.00  0.00    -0.394 N 
HETATM   25  C15 UNL     1      19.255  24.952   4.243  1.00  0.00     0.148 C 
HETATM   26  C16 UNL     1      18.547  24.264   6.430  1.00  0.00     0.087 C 
HETATM   27  C17 UNL     1      17.414  24.671   7.293  1.00  0.00     0.316 C 
ENDBRANCH  20  21
ENDBRANCH  19  20
ENDBRANCH  17  19
ENDBRANCH   6  17
BRANCH   1  28
HETATM   28  N1  UNL     1      22.058  25.892  11.471  1.00  0.00    -0.205 N 
ATOM     29  H1  UNL     1      22.548  25.525  12.287  1.00  0.00     0.183 HD
BRANCH  28  30
HETATM   30  C6  UNL     1      22.452  25.354  10.230  1.00  0.00     0.079 C 
BRANCH  30  31
HETATM   31  C5  UNL     1      23.967  25.423  10.098  1.00  0.00     0.045 C 
BRANCH  31  32
HETATM   32  C4  UNL     1      24.410  26.855   9.844  1.00  0.00     0.005 C 
BRANCH  32  33
HETATM   33  C3  UNL     1      25.690  27.088  10.599  1.00  0.00     0.000 C 
BRANCH  33  34
HETATM   34  C2  UNL     1      25.450  27.054  12.096  1.00  0.00    -0.005 C 
HETATM   35  C1  UNL     1      24.824  28.362  12.495  1.00  0.00     0.005 C 
ENDBRANCH  33  34
ENDBRANCH  32  33
ENDBRANCH  31  32
ENDBRANCH  30  31
ENDBRANCH  28  30
ENDBRANCH   1  28
BRANCH  16  36
HETATM   36  C29 UNL     1      22.025  30.050  14.399  1.00  0.00    -0.016 C 
BRANCH  36  37
HETATM   37  C30 UNL     1      23.071  30.983  13.990  1.00  0.00     0.027 C 
BRANCH  37  38
HETATM   38  C31 UNL     1      23.672  31.894  15.007  1.00  0.00    -0.001 C 
HETATM   39  C32 UNL     1      23.470  33.361  14.615  1.00  0.00     0.005 C 
ENDBRANCH  37  38
ENDBRANCH  36  37
ENDBRANCH  16  36
BRANCH  12  40
HETATM   40  C20 UNL     1      17.575  32.998  16.069  1.00  0.00     0.037 A 
HETATM   41  C21 UNL     1      16.201  33.078  16.086  1.00  0.00     0.033 A 
HETATM   42  C22 UNL     1      15.547  33.965  16.935  1.00  0.00     0.044 A 
HETATM   43  C23 UNL     1      16.244  34.794  17.786  1.00  0.00     0.116 A 
HETATM   44  F1  UNL     1      15.607  35.670  18.624  1.00  0.00    -0.206 F 
HETATM   45  C24 UNL     1      17.623  34.726  17.782  1.00  0.00     0.044 A 
HETATM   46  C25 UNL     1      18.266  33.840  16.934  1.00  0.00     0.033 A 
ENDBRANCH  12  40
TORSDOF 14
ENDMDL
