MODEL 1
REMARK VINA RESULT: -6.990447078      0.000      0.000
REMARK  16 active torsions:
REMARK  status: ('A' for Active; 'I' for Inactive)
REMARK    1  A    between atoms: C2_2  and  C3_3 
REMARK    2  A    between atoms: C3_3  and  C4_4 
REMARK    3  A    between atoms: C4_4  and  C5_5 
REMARK    4  A    between atoms: C5_5  and  C6_6 
REMARK    5  A    between atoms: C6_6  and  N1_7 
REMARK       I    between atoms: N1_7  and  C7_9 
REMARK    6  A    between atoms: C7_9  and  C8_11 
REMARK    7  A    between atoms: C8_11  and  C9_12 
REMARK    8  A    between atoms: C9_12  and  C10_13 
REMARK    9  A    between atoms: C13_16  and  O2_17 
REMARK   10  A    between atoms: O2_17  and  C14_18 
REMARK   11  A    between atoms: C17_22  and  O4_23 
REMARK   12  A    between atoms: C19_26  and  C20_27 
REMARK   13  A    between atoms: C19_26  and  C23_32 
REMARK   14  A    between atoms: C20_27  and  O5_28 
REMARK   15  A    between atoms: O5_28  and  C21_29 
REMARK   16  A    between atoms: C32_41  and  O7_42 
ROOT
HETATM    1  C10 UNL     1      20.768  37.266  17.617  1.00  0.00     0.053 C 
HETATM    2  C11 UNL     1      21.816  38.371  17.300  1.00  0.00     0.009 C 
HETATM    3  C12 UNL     1      22.917  38.164  18.240  1.00  0.00     0.039 C 
HETATM    4  C13 UNL     1      23.810  39.365  18.504  1.00  0.00     0.139 C 
HETATM    5  C16 UNL     1      23.583  40.234  17.315  1.00  0.00     0.050 C 
HETATM    6  C17 UNL     1      24.505  41.347  17.097  1.00  0.00     0.126 C 
HETATM    7  C18 UNL     1      23.578  42.518  16.782  1.00  0.00     0.044 C 
HETATM    8  C19 UNL     1      22.321  41.789  16.170  1.00  0.00    -0.008 C 
HETATM    9  C26 UNL     1      22.152  40.817  17.245  1.00  0.00     0.017 C 
HETATM   10  C27 UNL     1      21.132  39.753  17.308  1.00  0.00    -0.004 C 
HETATM   11  C28 UNL     1      20.119  39.751  16.172  1.00  0.00     0.019 C 
HETATM   12  C29 UNL     1      20.262  39.652  18.537  1.00  0.00     0.074 C 
HETATM   13  C30 UNL     1      19.900  40.885  19.300  1.00  0.00     0.047 C 
HETATM   14  C31 UNL     1      19.047  38.804  18.333  1.00  0.00     0.107 C 
HETATM   15  C32 UNL     1      20.027  37.720  18.802  1.00  0.00     0.169 C 
HETATM   16  O8  UNL     1      20.663  38.715  19.472  1.00  0.00    -0.343 OA
ENDROOT
BRANCH   1  17
HETATM   17  C9  UNL     1      21.430  35.948  17.671  1.00  0.00     0.019 C 
BRANCH  17  18
HETATM   18  C8  UNL     1      21.142  34.994  16.553  1.00  0.00     0.103 C 
BRANCH  18  19
HETATM   19  C7  UNL     1      19.739  34.477  16.629  1.00  0.00     0.217 C 
HETATM   20  N1  UNL     1      19.046  34.159  15.437  1.00  0.00    -0.361 N 
ATOM     21  H1  UNL     1      19.540  34.295  14.555  1.00  0.00     0.162 HD
HETATM   22  O1  UNL     1      19.209  34.335  17.734  1.00  0.00    -0.274 OA
BRANCH  20  23
HETATM   23  C6  UNL     1      17.710  33.663  15.374  1.00  0.00     0.122 C 
BRANCH  23  24
HETATM   24  C5  UNL     1      16.823  34.689  14.709  1.00  0.00     0.020 C 
BRANCH  24  25
HETATM   25  C4  UNL     1      16.057  35.420  15.815  1.00  0.00     0.002 C 
BRANCH  25  26
HETATM   26  C3  UNL     1      15.281  34.384  16.607  1.00  0.00    -0.000 C 
BRANCH  26  27
HETATM   27  C2  UNL     1      15.306  34.670  18.077  1.00  0.00    -0.005 C 
HETATM   28  C1  UNL     1      16.231  35.777  18.475  1.00  0.00     0.005 C 
ENDBRANCH  26  27
ENDBRANCH  25  26
ENDBRANCH  24  25
ENDBRANCH  23  24
ENDBRANCH  20  23
ENDBRANCH  18  19
ENDBRANCH  17  18
ENDBRANCH   1  17
BRANCH  15  29
HETATM   29  O7  UNL     1      19.457  36.828  19.685  1.00  0.00    -0.365 OA
ATOM     30  H7  UNL     1      19.981  36.200  20.169  1.00  0.00     0.213 HD
ENDBRANCH  15  29
BRANCH   4  31
HETATM   31  O2  UNL     1      23.695  39.920  19.754  1.00  0.00    -0.316 OA
BRANCH  31  32
HETATM   32  C14 UNL     1      24.402  39.452  20.842  1.00  0.00     0.255 C 
HETATM   33  C15 UNL     1      25.890  39.368  20.775  1.00  0.00     0.126 C 
HETATM   34  O3  UNL     1      23.869  39.075  21.924  1.00  0.00    -0.266 OA
ENDBRANCH  31  32
ENDBRANCH   4  31
BRANCH   8  35
HETATM   35  C20 UNL     1      22.930  41.294  14.866  1.00  0.00     0.189 C 
BRANCH  35  36
HETATM   36  O5  UNL     1      21.973  40.713  13.991  1.00  0.00    -0.321 OA
BRANCH  36  37
HETATM   37  C21 UNL     1      22.270  40.206  12.762  1.00  0.00     0.254 C 
HETATM   38  C22 UNL     1      23.226  40.845  11.814  1.00  0.00     0.126 C 
HETATM   39  O6  UNL     1      21.713  39.140  12.390  1.00  0.00    -0.266 OA
ENDBRANCH  36  37
ENDBRANCH  35  36
ENDBRANCH   8  35
BRANCH   8  40
HETATM   40  C23 UNL     1      21.372  42.910  15.978  1.00  0.00    -0.012 C 
HETATM   41  C24 UNL     1      20.989  43.688  17.217  1.00  0.00     0.010 C 
HETATM   42  C25 UNL     1      21.789  43.991  14.994  1.00  0.00     0.010 C 
ENDBRANCH   8  40
BRANCH   6  43
HETATM   43  O4  UNL     1      25.303  41.636  18.204  1.00  0.00    -0.395 OA
ATOM     44  H4  UNL     1      25.159  42.506  18.560  1.00  0.00     0.210 HD
ENDBRANCH   6  43
TORSDOF 16
ENDMDL
MODEL 2
REMARK VINA RESULT: -6.747477603      0.863      1.616
REMARK  16 active torsions:
REMARK  status: ('A' for Active; 'I' for Inactive)
REMARK    1  A    between atoms: C2_2  and  C3_3 
REMARK    2  A    between atoms: C3_3  and  C4_4 
REMARK    3  A    between atoms: C4_4  and  C5_5 
REMARK    4  A    between atoms: C5_5  and  C6_6 
REMARK    5  A    between atoms: C6_6  and  N1_7 
REMARK       I    between atoms: N1_7  and  C7_9 
REMARK    6  A    between atoms: C7_9  and  C8_11 
REMARK    7  A    between atoms: C8_11  and  C9_12 
REMARK    8  A    between atoms: C9_12  and  C10_13 
REMARK    9  A    between atoms: C13_16  and  O2_17 
REMARK   10  A    between atoms: O2_17  and  C14_18 
REMARK   11  A    between atoms: C17_22  and  O4_23 
REMARK   12  A    between atoms: C19_26  and  C20_27 
REMARK   13  A    between atoms: C19_26  and  C23_32 
REMARK   14  A    between atoms: C20_27  and  O5_28 
REMARK   15  A    between atoms: O5_28  and  C21_29 
REMARK   16  A    between atoms: C32_41  and  O7_42 
ROOT
HETATM    1  C10 UNL     1      20.696  37.398  17.631  1.00  0.00     0.053 C 
HETATM    2  C11 UNL     1      21.799  38.435  17.274  1.00  0.00     0.009 C 
HETATM    3  C12 UNL     1      22.901  38.188  18.204  1.00  0.00     0.039 C 
HETATM    4  C13 UNL     1      23.864  39.342  18.427  1.00  0.00     0.139 C 
HETATM    5  C16 UNL     1      23.667  40.196  17.221  1.00  0.00     0.050 C 
HETATM    6  C17 UNL     1      24.647  41.250  16.965  1.00  0.00     0.126 C 
HETATM    7  C18 UNL     1      23.782  42.464  16.635  1.00  0.00     0.044 C 
HETATM    8  C19 UNL     1      22.477  41.793  16.059  1.00  0.00    -0.008 C 
HETATM    9  C26 UNL     1      22.270  40.857  17.158  1.00  0.00     0.017 C 
HETATM   10  C27 UNL     1      21.193  39.853  17.260  1.00  0.00    -0.004 C 
HETATM   11  C28 UNL     1      20.165  39.882  16.138  1.00  0.00     0.019 C 
HETATM   12  C29 UNL     1      20.338  39.828  18.503  1.00  0.00     0.074 C 
HETATM   13  C30 UNL     1      20.057  41.097  19.242  1.00  0.00     0.047 C 
HETATM   14  C31 UNL     1      19.074  39.046  18.336  1.00  0.00     0.107 C 
HETATM   15  C32 UNL     1      20.000  37.920  18.816  1.00  0.00     0.169 C 
HETATM   16  O8  UNL     1      20.700  38.891  19.454  1.00  0.00    -0.343 OA
ENDROOT
BRANCH   1  17
HETATM   17  C9  UNL     1      21.284  36.047  17.707  1.00  0.00     0.019 C 
BRANCH  17  18
HETATM   18  C8  UNL     1      20.639  34.976  16.882  1.00  0.00     0.103 C 
BRANCH  18  19
HETATM   19  C7  UNL     1      19.176  34.866  17.183  1.00  0.00     0.217 C 
HETATM   20  N1  UNL     1      18.233  35.080  16.150  1.00  0.00    -0.361 N 
ATOM     21  H1  UNL     1      18.593  35.302  15.222  1.00  0.00     0.162 HD
HETATM   22  O1  UNL     1      18.817  34.589  18.330  1.00  0.00    -0.274 OA
BRANCH  20  23
HETATM   23  C6  UNL     1      16.817  35.008  16.307  1.00  0.00     0.122 C 
BRANCH  23  24
HETATM   24  C5  UNL     1      16.231  34.155  15.207  1.00  0.00     0.020 C 
BRANCH  24  25
HETATM   25  C4  UNL     1      15.837  32.812  15.828  1.00  0.00     0.002 C 
BRANCH  25  26
HETATM   26  C3  UNL     1      16.938  31.814  15.515  1.00  0.00    -0.000 C 
BRANCH  26  27
HETATM   27  C2  UNL     1      17.524  32.038  14.156  1.00  0.00    -0.005 C 
HETATM   28  C1  UNL     1      17.782  30.785  13.380  1.00  0.00     0.005 C 
ENDBRANCH  26  27
ENDBRANCH  25  26
ENDBRANCH  24  25
ENDBRANCH  23  24
ENDBRANCH  20  23
ENDBRANCH  18  19
ENDBRANCH  17  18
ENDBRANCH   1  17
BRANCH  15  29
HETATM   29  O7  UNL     1      19.394  37.081  19.728  1.00  0.00    -0.365 OA
ATOM     30  H7  UNL     1      19.742  36.961  20.604  1.00  0.00     0.213 HD
ENDBRANCH  15  29
BRANCH   4  31
HETATM   31  O2  UNL     1      23.799  39.931  19.665  1.00  0.00    -0.316 OA
BRANCH  31  32
HETATM   32  C14 UNL     1      24.461  39.423  20.764  1.00  0.00     0.255 C 
HETATM   33  C15 UNL     1      25.951  39.350  20.759  1.00  0.00     0.126 C 
HETATM   34  O3  UNL     1      23.884  39.001  21.806  1.00  0.00    -0.266 OA
ENDBRANCH  31  32
ENDBRANCH   4  31
BRANCH   8  35
HETATM   35  C20 UNL     1      23.037  41.236  14.758  1.00  0.00     0.189 C 
BRANCH  35  36
HETATM   36  O5  UNL     1      22.029  40.749  13.882  1.00  0.00    -0.321 OA
BRANCH  36  37
HETATM   37  C21 UNL     1      22.274  40.242  12.641  1.00  0.00     0.254 C 
HETATM   38  C22 UNL     1      23.208  40.869  11.663  1.00  0.00     0.126 C 
HETATM   39  O6  UNL     1      21.688  39.187  12.285  1.00  0.00    -0.266 OA
ENDBRANCH  36  37
ENDBRANCH  35  36
ENDBRANCH   8  35
BRANCH   8  40
HETATM   40  C23 UNL     1      21.589  42.961  15.854  1.00  0.00    -0.012 C 
HETATM   41  C24 UNL     1      21.276  43.792  17.078  1.00  0.00     0.010 C 
HETATM   42  C25 UNL     1      22.046  43.990  14.833  1.00  0.00     0.010 C 
ENDBRANCH   8  40
BRANCH   6  43
HETATM   43  O4  UNL     1      25.476  41.519  18.054  1.00  0.00    -0.395 OA
ATOM     44  H4  UNL     1      25.214  41.074  18.851  1.00  0.00     0.210 HD
ENDBRANCH   6  43
TORSDOF 16
ENDMDL
MODEL 3
REMARK VINA RESULT: -6.647076721      1.307      2.209
REMARK  16 active torsions:
REMARK  status: ('A' for Active; 'I' for Inactive)
REMARK    1  A    between atoms: C2_2  and  C3_3 
REMARK    2  A    between atoms: C3_3  and  C4_4 
REMARK    3  A    between atoms: C4_4  and  C5_5 
REMARK    4  A    between atoms: C5_5  and  C6_6 
REMARK    5  A    between atoms: C6_6  and  N1_7 
REMARK       I    between atoms: N1_7  and  C7_9 
REMARK    6  A    between atoms: C7_9  and  C8_11 
REMARK    7  A    between atoms: C8_11  and  C9_12 
REMARK    8  A    between atoms: C9_12  and  C10_13 
REMARK    9  A    between atoms: C13_16  and  O2_17 
REMARK   10  A    between atoms: O2_17  and  C14_18 
REMARK   11  A    between atoms: C17_22  and  O4_23 
REMARK   12  A    between atoms: C19_26  and  C20_27 
REMARK   13  A    between atoms: C19_26  and  C23_32 
REMARK   14  A    between atoms: C20_27  and  O5_28 
REMARK   15  A    between atoms: O5_28  and  C21_29 
REMARK   16  A    between atoms: C32_41  and  O7_42 
ROOT
HETATM    1  C10 UNL     1      20.959  37.325  17.637  1.00  0.00     0.053 C 
HETATM    2  C11 UNL     1      22.009  38.427  17.316  1.00  0.00     0.009 C 
HETATM    3  C12 UNL     1      23.063  38.284  18.319  1.00  0.00     0.039 C 
HETATM    4  C13 UNL     1      23.928  39.509  18.566  1.00  0.00     0.139 C 
HETATM    5  C16 UNL     1      23.750  40.314  17.324  1.00  0.00     0.050 C 
HETATM    6  C17 UNL     1      24.670  41.427  17.096  1.00  0.00     0.126 C 
HETATM    7  C18 UNL     1      23.746  42.568  16.676  1.00  0.00     0.044 C 
HETATM    8  C19 UNL     1      22.530  41.791  16.040  1.00  0.00    -0.008 C 
HETATM    9  C26 UNL     1      22.319  40.872  17.154  1.00  0.00     0.017 C 
HETATM   10  C27 UNL     1      21.309  39.798  17.220  1.00  0.00    -0.004 C 
HETATM   11  C28 UNL     1      20.355  39.725  16.037  1.00  0.00     0.019 C 
HETATM   12  C29 UNL     1      20.379  39.747  18.407  1.00  0.00     0.074 C 
HETATM   13  C30 UNL     1      19.965  41.012  19.088  1.00  0.00     0.047 C 
HETATM   14  C31 UNL     1      19.186  38.873  18.187  1.00  0.00     0.107 C 
HETATM   15  C32 UNL     1      20.154  37.828  18.759  1.00  0.00     0.169 C 
HETATM   16  O8  UNL     1      20.744  38.864  19.408  1.00  0.00    -0.343 OA
ENDROOT
BRANCH   1  17
HETATM   17  C9  UNL     1      21.632  36.021  17.790  1.00  0.00     0.019 C 
BRANCH  17  18
HETATM   18  C8  UNL     1      21.349  34.981  16.751  1.00  0.00     0.103 C 
BRANCH  18  19
HETATM   19  C7  UNL     1      19.901  34.600  16.745  1.00  0.00     0.217 C 
HETATM   20  N1  UNL     1      19.279  34.239  15.526  1.00  0.00    -0.361 N 
ATOM     21  H1  UNL     1      19.854  34.249  14.683  1.00  0.00     0.162 HD
HETATM   22  O1  UNL     1      19.272  34.609  17.806  1.00  0.00    -0.274 OA
BRANCH  20  23
HETATM   23  C6  UNL     1      17.911  33.861  15.385  1.00  0.00     0.122 C 
BRANCH  23  24
HETATM   24  C5  UNL     1      17.747  33.011  14.147  1.00  0.00     0.020 C 
BRANCH  24  25
HETATM   25  C4  UNL     1      19.096  32.343  13.867  1.00  0.00     0.002 C 
BRANCH  25  26
HETATM   26  C3  UNL     1      18.891  31.332  12.753  1.00  0.00    -0.000 C 
BRANCH  26  27
HETATM   27  C2  UNL     1      17.762  30.393  13.051  1.00  0.00    -0.005 C 
HETATM   28  C1  UNL     1      17.373  29.511  11.906  1.00  0.00     0.005 C 
ENDBRANCH  26  27
ENDBRANCH  25  26
ENDBRANCH  24  25
ENDBRANCH  23  24
ENDBRANCH  20  23
ENDBRANCH  18  19
ENDBRANCH  17  18
ENDBRANCH   1  17
BRANCH  15  29
HETATM   29  O7  UNL     1      19.550  36.974  19.657  1.00  0.00    -0.365 OA
ATOM     30  H7  UNL     1      19.590  37.126  20.594  1.00  0.00     0.213 HD
ENDBRANCH  15  29
BRANCH   4  31
HETATM   31  O2  UNL     1      23.744  40.124  19.778  1.00  0.00    -0.316 OA
BRANCH  31  32
HETATM   32  C14 UNL     1      24.206  39.587  20.961  1.00  0.00     0.255 C 
HETATM   33  C15 UNL     1      25.626  39.138  21.063  1.00  0.00     0.126 C 
HETATM   34  O3  UNL     1      23.497  39.439  21.997  1.00  0.00    -0.266 OA
ENDBRANCH  31  32
ENDBRANCH   4  31
BRANCH   8  35
HETATM   35  C20 UNL     1      23.209  41.240  14.795  1.00  0.00     0.189 C 
BRANCH  35  36
HETATM   36  O5  UNL     1      22.323  41.103  13.692  1.00  0.00    -0.321 OA
BRANCH  36  37
HETATM   37  C21 UNL     1      22.491  40.204  12.683  1.00  0.00     0.254 C 
HETATM   38  C22 UNL     1      23.536  40.331  11.629  1.00  0.00     0.126 C 
HETATM   39  O6  UNL     1      21.729  39.204  12.623  1.00  0.00    -0.266 OA
ENDBRANCH  36  37
ENDBRANCH  35  36
ENDBRANCH   8  35
BRANCH   8  40
HETATM   40  C23 UNL     1      21.579  42.888  15.745  1.00  0.00    -0.012 C 
HETATM   41  C24 UNL     1      21.028  43.640  16.935  1.00  0.00     0.010 C 
HETATM   42  C25 UNL     1      22.079  43.990  14.826  1.00  0.00     0.010 C 
ENDBRANCH   8  40
BRANCH   6  43
HETATM   43  O4  UNL     1      25.407  41.783  18.225  1.00  0.00    -0.395 OA
ATOM     44  H4  UNL     1      25.988  42.522  18.084  1.00  0.00     0.210 HD
ENDBRANCH   6  43
TORSDOF 16
ENDMDL
MODEL 4
REMARK VINA RESULT: -6.555315636      1.730      2.479
REMARK  16 active torsions:
REMARK  status: ('A' for Active; 'I' for Inactive)
REMARK    1  A    between atoms: C2_2  and  C3_3 
REMARK    2  A    between atoms: C3_3  and  C4_4 
REMARK    3  A    between atoms: C4_4  and  C5_5 
REMARK    4  A    between atoms: C5_5  and  C6_6 
REMARK    5  A    between atoms: C6_6  and  N1_7 
REMARK       I    between atoms: N1_7  and  C7_9 
REMARK    6  A    between atoms: C7_9  and  C8_11 
REMARK    7  A    between atoms: C8_11  and  C9_12 
REMARK    8  A    between atoms: C9_12  and  C10_13 
REMARK    9  A    between atoms: C13_16  and  O2_17 
REMARK   10  A    between atoms: O2_17  and  C14_18 
REMARK   11  A    between atoms: C17_22  and  O4_23 
REMARK   12  A    between atoms: C19_26  and  C20_27 
REMARK   13  A    between atoms: C19_26  and  C23_32 
REMARK   14  A    between atoms: C20_27  and  O5_28 
REMARK   15  A    between atoms: O5_28  and  C21_29 
REMARK   16  A    between atoms: C32_41  and  O7_42 
ROOT
HETATM    1  C10 UNL     1      20.946  37.173  17.650  1.00  0.00     0.053 C 
HETATM    2  C11 UNL     1      21.953  38.314  17.325  1.00  0.00     0.009 C 
HETATM    3  C12 UNL     1      23.066  38.148  18.259  1.00  0.00     0.039 C 
HETATM    4  C13 UNL     1      23.917  39.381  18.515  1.00  0.00     0.139 C 
HETATM    5  C16 UNL     1      23.652  40.238  17.325  1.00  0.00     0.050 C 
HETATM    6  C17 UNL     1      24.533  41.383  17.100  1.00  0.00     0.126 C 
HETATM    7  C18 UNL     1      23.563  42.520  16.787  1.00  0.00     0.044 C 
HETATM    8  C19 UNL     1      22.330  41.745  16.185  1.00  0.00    -0.008 C 
HETATM    9  C26 UNL     1      22.202  40.770  17.263  1.00  0.00     0.017 C 
HETATM   10  C27 UNL     1      21.220  39.671  17.334  1.00  0.00    -0.004 C 
HETATM   11  C28 UNL     1      20.202  39.630  16.204  1.00  0.00     0.019 C 
HETATM   12  C29 UNL     1      20.361  39.541  18.568  1.00  0.00     0.074 C 
HETATM   13  C30 UNL     1      19.960  40.764  19.331  1.00  0.00     0.047 C 
HETATM   14  C31 UNL     1      19.176  38.651  18.373  1.00  0.00     0.107 C 
HETATM   15  C32 UNL     1      20.197  37.604  18.839  1.00  0.00     0.169 C 
HETATM   16  O8  UNL     1      20.801  38.621  19.503  1.00  0.00    -0.343 OA
ENDROOT
BRANCH   1  17
HETATM   17  C9  UNL     1      21.655  35.880  17.703  1.00  0.00     0.019 C 
BRANCH  17  18
HETATM   18  C8  UNL     1      20.881  34.662  17.301  1.00  0.00     0.103 C 
BRANCH  18  19
HETATM   19  C7  UNL     1      21.782  33.614  16.724  1.00  0.00     0.217 C 
HETATM   20  N1  UNL     1      21.857  33.453  15.321  1.00  0.00    -0.361 N 
ATOM     21  H1  UNL     1      21.286  34.072  14.745  1.00  0.00     0.162 HD
HETATM   22  O1  UNL     1      22.445  32.905  17.485  1.00  0.00    -0.274 OA
BRANCH  20  23
HETATM   23  C6  UNL     1      22.670  32.493  14.649  1.00  0.00     0.122 C 
BRANCH  23  24
HETATM   24  C5  UNL     1      21.817  31.687  13.697  1.00  0.00     0.020 C 
BRANCH  24  25
HETATM   25  C4  UNL     1      20.426  32.326  13.674  1.00  0.00     0.002 C 
BRANCH  25  26
HETATM   26  C3  UNL     1      19.640  31.687  12.543  1.00  0.00    -0.000 C 
BRANCH  26  27
HETATM   27  C2  UNL     1      18.438  30.948  13.046  1.00  0.00    -0.005 C 
HETATM   28  C1  UNL     1      17.595  31.722  14.010  1.00  0.00     0.005 C 
ENDBRANCH  26  27
ENDBRANCH  25  26
ENDBRANCH  24  25
ENDBRANCH  23  24
ENDBRANCH  20  23
ENDBRANCH  18  19
ENDBRANCH  17  18
ENDBRANCH   1  17
BRANCH  15  29
HETATM   29  O7  UNL     1      19.663  36.694  19.727  1.00  0.00    -0.365 OA
ATOM     30  H7  UNL     1      18.888  36.187  19.518  1.00  0.00     0.213 HD
ENDBRANCH  15  29
BRANCH   4  31
HETATM   31  O2  UNL     1      23.790  39.934  19.764  1.00  0.00    -0.316 OA
BRANCH  31  32
HETATM   32  C14 UNL     1      24.473  39.454  20.862  1.00  0.00     0.255 C 
HETATM   33  C15 UNL     1      25.964  39.405  20.840  1.00  0.00     0.126 C 
HETATM   34  O3  UNL     1      23.915  39.039  21.917  1.00  0.00    -0.266 OA
ENDBRANCH  31  32
ENDBRANCH   4  31
BRANCH   8  35
HETATM   35  C20 UNL     1      22.948  41.269  14.878  1.00  0.00     0.189 C 
BRANCH  35  36
HETATM   36  O5  UNL     1      21.993  40.732  13.973  1.00  0.00    -0.321 OA
BRANCH  36  37
HETATM   37  C21 UNL     1      22.293  40.273  12.726  1.00  0.00     0.254 C 
HETATM   38  C22 UNL     1      23.239  40.959  11.801  1.00  0.00     0.126 C 
HETATM   39  O6  UNL     1      21.751  39.214  12.317  1.00  0.00    -0.266 OA
ENDBRANCH  36  37
ENDBRANCH  35  36
ENDBRANCH   8  35
BRANCH   8  40
HETATM   40  C23 UNL     1      21.341  42.831  15.996  1.00  0.00    -0.012 C 
HETATM   41  C24 UNL     1      20.907  43.571  17.241  1.00  0.00     0.010 C 
HETATM   42  C25 UNL     1      21.730  43.944  15.037  1.00  0.00     0.010 C 
ENDBRANCH   8  40
BRANCH   6  43
HETATM   43  O4  UNL     1      25.326  41.703  18.202  1.00  0.00    -0.395 OA
ATOM     44  H4  UNL     1      26.125  41.191  18.257  1.00  0.00     0.210 HD
ENDBRANCH   6  43
TORSDOF 16
ENDMDL
MODEL 5
REMARK VINA RESULT: -6.543376221      2.341      3.388
REMARK  16 active torsions:
REMARK  status: ('A' for Active; 'I' for Inactive)
REMARK    1  A    between atoms: C2_2  and  C3_3 
REMARK    2  A    between atoms: C3_3  and  C4_4 
REMARK    3  A    between atoms: C4_4  and  C5_5 
REMARK    4  A    between atoms: C5_5  and  C6_6 
REMARK    5  A    between atoms: C6_6  and  N1_7 
REMARK       I    between atoms: N1_7  and  C7_9 
REMARK    6  A    between atoms: C7_9  and  C8_11 
REMARK    7  A    between atoms: C8_11  and  C9_12 
REMARK    8  A    between atoms: C9_12  and  C10_13 
REMARK    9  A    between atoms: C13_16  and  O2_17 
REMARK   10  A    between atoms: O2_17  and  C14_18 
REMARK   11  A    between atoms: C17_22  and  O4_23 
REMARK   12  A    between atoms: C19_26  and  C20_27 
REMARK   13  A    between atoms: C19_26  and  C23_32 
REMARK   14  A    between atoms: C20_27  and  O5_28 
REMARK   15  A    between atoms: O5_28  and  C21_29 
REMARK   16  A    between atoms: C32_41  and  O7_42 
ROOT
HETATM    1  C10 UNL     1      20.950  37.172  17.663  1.00  0.00     0.053 C 
HETATM    2  C11 UNL     1      21.947  38.316  17.320  1.00  0.00     0.009 C 
HETATM    3  C12 UNL     1      23.038  38.204  18.287  1.00  0.00     0.039 C 
HETATM    4  C13 UNL     1      23.863  39.459  18.517  1.00  0.00     0.139 C 
HETATM    5  C16 UNL     1      23.615  40.267  17.290  1.00  0.00     0.050 C 
HETATM    6  C17 UNL     1      24.484  41.417  17.043  1.00  0.00     0.126 C 
HETATM    7  C18 UNL     1      23.505  42.525  16.664  1.00  0.00     0.044 C 
HETATM    8  C19 UNL     1      22.299  41.708  16.061  1.00  0.00    -0.008 C 
HETATM    9  C26 UNL     1      22.159  40.772  17.172  1.00  0.00     0.017 C 
HETATM   10  C27 UNL     1      21.193  39.660  17.260  1.00  0.00    -0.004 C 
HETATM   11  C28 UNL     1      20.204  39.561  16.107  1.00  0.00     0.019 C 
HETATM   12  C29 UNL     1      20.305  39.563  18.476  1.00  0.00     0.074 C 
HETATM   13  C30 UNL     1      19.866  40.806  19.183  1.00  0.00     0.047 C 
HETATM   14  C31 UNL     1      19.139  38.646  18.286  1.00  0.00     0.107 C 
HETATM   15  C32 UNL     1      20.164  37.634  18.816  1.00  0.00     0.169 C 
HETATM   16  O8  UNL     1      20.736  38.686  19.456  1.00  0.00    -0.343 OA
ENDROOT
BRANCH   1  17
HETATM   17  C9  UNL     1      21.677  35.893  17.782  1.00  0.00     0.019 C 
BRANCH  17  18
HETATM   18  C8  UNL     1      21.017  34.678  17.206  1.00  0.00     0.103 C 
BRANCH  18  19
HETATM   19  C7  UNL     1      22.025  33.626  16.862  1.00  0.00     0.217 C 
HETATM   20  N1  UNL     1      22.429  33.460  15.516  1.00  0.00    -0.361 N 
ATOM     21  H1  UNL     1      22.011  34.077  14.819  1.00  0.00     0.162 HD
HETATM   22  O1  UNL     1      22.489  32.919  17.760  1.00  0.00    -0.274 OA
BRANCH  20  23
HETATM   23  C6  UNL     1      23.375  32.495  15.058  1.00  0.00     0.122 C 
BRANCH  23  24
HETATM   24  C5  UNL     1      22.658  31.213  14.707  1.00  0.00     0.020 C 
BRANCH  24  25
HETATM   25  C4  UNL     1      21.700  31.523  13.553  1.00  0.00     0.002 C 
BRANCH  25  26
HETATM   26  C3  UNL     1      21.517  30.251  12.746  1.00  0.00    -0.000 C 
BRANCH  26  27
HETATM   27  C2  UNL     1      22.287  29.105  13.327  1.00  0.00    -0.005 C 
HETATM   28  C1  UNL     1      22.122  27.813  12.590  1.00  0.00     0.005 C 
ENDBRANCH  26  27
ENDBRANCH  25  26
ENDBRANCH  24  25
ENDBRANCH  23  24
ENDBRANCH  20  23
ENDBRANCH  18  19
ENDBRANCH  17  18
ENDBRANCH   1  17
BRANCH  15  29
HETATM   29  O7  UNL     1      19.623  36.750  19.725  1.00  0.00    -0.365 OA
ATOM     30  H7  UNL     1      18.723  36.452  19.657  1.00  0.00     0.213 HD
ENDBRANCH  15  29
BRANCH   4  31
HETATM   31  O2  UNL     1      23.696  40.056  19.741  1.00  0.00    -0.316 OA
BRANCH  31  32
HETATM   32  C14 UNL     1      24.237  39.539  20.900  1.00  0.00     0.255 C 
HETATM   33  C15 UNL     1      25.702  39.265  20.973  1.00  0.00     0.126 C 
HETATM   34  O3  UNL     1      23.565  39.269  21.936  1.00  0.00    -0.266 OA
ENDBRANCH  31  32
ENDBRANCH   4  31
BRANCH   8  35
HETATM   35  C20 UNL     1      22.957  41.194  14.789  1.00  0.00     0.189 C 
BRANCH  35  36
HETATM   36  O5  UNL     1      22.028  40.647  13.863  1.00  0.00    -0.321 OA
BRANCH  36  37
HETATM   37  C21 UNL     1      22.363  40.180  12.629  1.00  0.00     0.254 C 
HETATM   38  C22 UNL     1      23.635  40.524  11.934  1.00  0.00     0.126 C 
HETATM   39  O6  UNL     1      21.565  39.415  12.027  1.00  0.00    -0.266 OA
ENDBRANCH  36  37
ENDBRANCH  35  36
ENDBRANCH   8  35
BRANCH   8  40
HETATM   40  C23 UNL     1      21.298  42.770  15.807  1.00  0.00    -0.012 C 
HETATM   41  C24 UNL     1      20.757  43.489  17.022  1.00  0.00     0.010 C 
HETATM   42  C25 UNL     1      21.727  43.900  14.886  1.00  0.00     0.010 C 
ENDBRANCH   8  40
BRANCH   6  43
HETATM   43  O4  UNL     1      25.244  41.790  18.151  1.00  0.00    -0.395 OA
ATOM     44  H4  UNL     1      26.062  42.218  17.925  1.00  0.00     0.210 HD
ENDBRANCH   6  43
TORSDOF 16
ENDMDL
