MODEL 1
REMARK VINA RESULT: -8.857922484      0.000      0.000
REMARK  16 active torsions:
REMARK  status: ('A' for Active; 'I' for Inactive)
REMARK    1  A    between atoms: C2_2  and  C3_3 
REMARK    2  A    between atoms: C3_3  and  C5_5 
REMARK    3  A    between atoms: C5_5  and  C6_6 
REMARK    4  A    between atoms: C6_6  and  N1_7 
REMARK    5  A    between atoms: C6_6  and  C12_16 
REMARK       I    between atoms: N1_7  and  C7_9 
REMARK    6  A    between atoms: C7_9  and  O2_11 
REMARK    7  A    between atoms: O2_11  and  C8_12 
REMARK       I    between atoms: C12_16  and  N2_18 
REMARK    8  A    between atoms: C15_21  and  N3_22 
REMARK       I    between atoms: N3_22  and  C16_24 
REMARK    9  A    between atoms: C16_24  and  C17_26 
REMARK   10  A    between atoms: C17_26  and  C18_27 
REMARK   11  A    between atoms: C18_27  and  S1_28 
REMARK   12  A    between atoms: S1_28  and  S2_29 
REMARK   13  A    between atoms: S2_29  and  C19_30 
REMARK   14  A    between atoms: C19_30  and  C20_31 
REMARK   15  A    between atoms: C20_31  and  N4_32 
REMARK   16  A    between atoms: C20_31  and  C21_36 
ROOT
HETATM    1  C12 UNL     1      20.848  29.126  11.910  1.00  0.00     0.242 C 
HETATM    2  O3  UNL     1      21.623  29.657  11.032  1.00  0.00    -0.271 OA
HETATM    3  N2  UNL     1      19.938  29.985  12.543  1.00  0.00    -0.350 N 
HETATM    4  C13 UNL     1      18.982  29.546  13.523  1.00  0.00     0.128 C 
HETATM    5  C14 UNL     1      17.794  30.486  13.614  1.00  0.00     0.045 C 
HETATM    6  C15 UNL     1      18.131  31.928  13.675  1.00  0.00     0.087 C 
HETATM    7  C26 UNL     1      19.553  32.275  13.318  1.00  0.00     0.045 C 
HETATM    8  C27 UNL     1      19.994  31.409  12.166  1.00  0.00     0.128 C 
ENDROOT
BRANCH   6   9
HETATM    9  N3  UNL     1      17.752  32.450  14.969  1.00  0.00    -0.356 N 
HETATM   10  C16 UNL     1      17.174  33.715  15.197  1.00  0.00     0.227 C 
HETATM   11  O4  UNL     1      16.937  34.519  14.261  1.00  0.00    -0.273 OA
ATOM     12  H3  UNL     1      17.914  31.855  15.781  1.00  0.00     0.162 HD
BRANCH  10  13
HETATM   13  C17 UNL     1      16.804  34.182  16.570  1.00  0.00     0.050 C 
HETATM   14  C22 UNL     1      15.480  33.711  17.041  1.00  0.00     0.020 C 
HETATM   15  C23 UNL     1      14.554  34.869  17.213  1.00  0.00     0.001 C 
HETATM   16  C24 UNL     1      15.531  36.030  17.419  1.00  0.00     0.001 C 
HETATM   17  C25 UNL     1      16.559  35.707  16.367  1.00  0.00     0.020 C 
BRANCH  13  18
HETATM   18  C18 UNL     1      17.920  34.101  17.533  1.00  0.00     0.105 C 
BRANCH  18  19
HETATM   19  S1  UNL     1      19.318  35.152  17.340  1.00  0.00    -0.096 SA
BRANCH  19  20
HETATM   20  S2  UNL     1      20.850  34.227  16.236  1.00  0.00    -0.095 SA
BRANCH  20  21
HETATM   21  C19 UNL     1      22.140  33.686  17.360  1.00  0.00     0.130 C 
BRANCH  21  22
HETATM   22  C20 UNL     1      22.459  32.217  17.008  1.00  0.00     0.293 C 
BRANCH  22  23
HETATM   23  N4  UNL     1      21.263  31.426  16.977  1.00  0.00    -0.064 N 
ATOM     24  H43 UNL     1      20.864  31.309  17.909  1.00  0.00     0.275 HD
ATOM     25  H42 UNL     1      20.491  31.928  16.540  1.00  0.00     0.275 HD
ATOM     26  H41 UNL     1      21.433  30.527  16.526  1.00  0.00     0.275 HD
ENDBRANCH  22  23
BRANCH  22  27
HETATM   27  C21 UNL     1      23.174  32.179  15.700  1.00  0.00     0.205 C 
HETATM   28  O5  UNL     1      24.199  32.839  15.451  1.00  0.00    -0.646 OA
HETATM   29  O6  UNL     1      22.659  31.359  14.711  1.00  0.00    -0.646 OA
ENDBRANCH  22  27
ENDBRANCH  21  22
ENDBRANCH  20  21
ENDBRANCH  19  20
ENDBRANCH  18  19
ENDBRANCH  13  18
ENDBRANCH  10  13
ENDBRANCH   6   9
BRANCH   1  30
HETATM   30  C6  UNL     1      21.033  27.679  12.121  1.00  0.00     0.179 C 
BRANCH  30  31
HETATM   31  C5  UNL     1      22.407  27.238  12.452  1.00  0.00     0.039 C 
BRANCH  31  32
HETATM   32  C3  UNL     1      23.343  26.828  11.395  1.00  0.00    -0.017 C 
HETATM   33  C4  UNL     1      23.364  25.428  10.932  1.00  0.00     0.010 C 
BRANCH  32  34
HETATM   34  C2  UNL     1      24.770  27.225  11.778  1.00  0.00    -0.000 C 
HETATM   35  C1  UNL     1      25.814  26.609  10.920  1.00  0.00     0.005 C 
ENDBRANCH  32  34
ENDBRANCH  31  32
ENDBRANCH  30  31
BRANCH  30  36
HETATM   36  N1  UNL     1      20.456  26.975  10.988  1.00  0.00    -0.324 N 
HETATM   37  C7  UNL     1      19.229  26.252  11.096  1.00  0.00     0.362 C 
HETATM   38  O1  UNL     1      18.592  26.197  12.194  1.00  0.00    -0.238 OA
ATOM     39  H1  UNL     1      20.941  26.997  10.091  1.00  0.00     0.165 HD
BRANCH  37  40
HETATM   40  O2  UNL     1      18.683  25.586  10.021  1.00  0.00    -0.294 OA
BRANCH  40  41
HETATM   41  C8  UNL     1      18.121  26.232   8.892  1.00  0.00     0.061 C 
HETATM   42  C9  UNL     1      17.911  27.699   9.092  1.00  0.00     0.046 C 
HETATM   43  C10 UNL     1      16.763  25.583   8.647  1.00  0.00     0.046 C 
HETATM   44  C11 UNL     1      18.966  25.885   7.691  1.00  0.00     0.046 C 
ENDBRANCH  40  41
ENDBRANCH  37  40
ENDBRANCH  30  36
ENDBRANCH   1  30
TORSDOF 16
ENDMDL
MODEL 2
REMARK VINA RESULT: -8.359533030      1.778      4.223
REMARK  16 active torsions:
REMARK  status: ('A' for Active; 'I' for Inactive)
REMARK    1  A    between atoms: C2_2  and  C3_3 
REMARK    2  A    between atoms: C3_3  and  C5_5 
REMARK    3  A    between atoms: C5_5  and  C6_6 
REMARK    4  A    between atoms: C6_6  and  N1_7 
REMARK    5  A    between atoms: C6_6  and  C12_16 
REMARK       I    between atoms: N1_7  and  C7_9 
REMARK    6  A    between atoms: C7_9  and  O2_11 
REMARK    7  A    between atoms: O2_11  and  C8_12 
REMARK       I    between atoms: C12_16  and  N2_18 
REMARK    8  A    between atoms: C15_21  and  N3_22 
REMARK       I    between atoms: N3_22  and  C16_24 
REMARK    9  A    between atoms: C16_24  and  C17_26 
REMARK   10  A    between atoms: C17_26  and  C18_27 
REMARK   11  A    between atoms: C18_27  and  S1_28 
REMARK   12  A    between atoms: S1_28  and  S2_29 
REMARK   13  A    between atoms: S2_29  and  C19_30 
REMARK   14  A    between atoms: C19_30  and  C20_31 
REMARK   15  A    between atoms: C20_31  and  N4_32 
REMARK   16  A    between atoms: C20_31  and  C21_36 
ROOT
HETATM    1  C12 UNL     1      18.604  26.819  11.221  1.00  0.00     0.242 C 
HETATM    2  O3  UNL     1      18.015  25.768  11.671  1.00  0.00    -0.271 OA
HETATM    3  N2  UNL     1      18.770  27.878  12.125  1.00  0.00    -0.350 N 
HETATM    4  C13 UNL     1      19.435  29.108  11.793  1.00  0.00     0.128 C 
HETATM    5  C14 UNL     1      19.976  29.810  13.025  1.00  0.00     0.045 C 
HETATM    6  C15 UNL     1      19.036  29.899  14.166  1.00  0.00     0.087 C 
HETATM    7  C26 UNL     1      17.816  29.019  14.070  1.00  0.00     0.045 C 
HETATM    8  C27 UNL     1      18.217  27.691  13.478  1.00  0.00     0.128 C 
ENDROOT
BRANCH   6   9
HETATM    9  N3  UNL     1      18.690  31.285  14.390  1.00  0.00    -0.356 N 
HETATM   10  C16 UNL     1      18.537  31.891  15.652  1.00  0.00     0.227 C 
HETATM   11  O4  UNL     1      18.690  31.251  16.722  1.00  0.00    -0.273 OA
ATOM     12  H3  UNL     1      18.547  31.871  13.568  1.00  0.00     0.162 HD
BRANCH  10  13
HETATM   13  C17 UNL     1      18.181  33.337  15.800  1.00  0.00     0.050 C 
HETATM   14  C22 UNL     1      17.106  33.606  16.784  1.00  0.00     0.020 C 
HETATM   15  C23 UNL     1      15.902  34.155  16.093  1.00  0.00     0.001 C 
HETATM   16  C24 UNL     1      16.511  34.755  14.822  1.00  0.00     0.001 C 
HETATM   17  C25 UNL     1      17.481  33.666  14.448  1.00  0.00     0.020 C 
BRANCH  13  18
HETATM   18  C18 UNL     1      19.360  34.225  15.844  1.00  0.00     0.105 C 
BRANCH  18  19
HETATM   19  S1  UNL     1      19.913  34.867  17.386  1.00  0.00    -0.096 SA
BRANCH  19  20
HETATM   20  S2  UNL     1      21.912  34.352  17.781  1.00  0.00    -0.095 SA
BRANCH  20  21
HETATM   21  C19 UNL     1      22.300  32.814  16.941  1.00  0.00     0.130 C 
BRANCH  21  22
HETATM   22  C20 UNL     1      22.974  33.188  15.604  1.00  0.00     0.293 C 
BRANCH  22  23
HETATM   23  N4  UNL     1      24.398  33.043  15.689  1.00  0.00    -0.064 N 
ATOM     24  H43 UNL     1      24.783  32.603  14.853  1.00  0.00     0.275 HD
ATOM     25  H42 UNL     1      24.872  33.944  15.622  1.00  0.00     0.275 HD
ATOM     26  H41 UNL     1      24.663  32.540  16.536  1.00  0.00     0.275 HD
ENDBRANCH  22  23
BRANCH  22  27
HETATM   27  C21 UNL     1      22.401  32.336  14.522  1.00  0.00     0.205 C 
HETATM   28  O5  UNL     1      21.599  32.750  13.665  1.00  0.00    -0.646 OA
HETATM   29  O6  UNL     1      22.791  31.009  14.476  1.00  0.00    -0.646 OA
ENDBRANCH  22  27
ENDBRANCH  21  22
ENDBRANCH  20  21
ENDBRANCH  19  20
ENDBRANCH  18  19
ENDBRANCH  13  18
ENDBRANCH  10  13
ENDBRANCH   6   9
BRANCH   1  30
HETATM   30  C6  UNL     1      19.022  26.751   9.810  1.00  0.00     0.179 C 
BRANCH  30  31
HETATM   31  C5  UNL     1      18.436  25.655   9.006  1.00  0.00     0.039 C 
BRANCH  31  32
HETATM   32  C3  UNL     1      17.263  25.889   8.151  1.00  0.00    -0.017 C 
HETATM   33  C4  UNL     1      16.100  24.986   8.233  1.00  0.00     0.010 C 
BRANCH  32  34
HETATM   34  C2  UNL     1      17.695  25.979   6.686  1.00  0.00    -0.000 C 
HETATM   35  C1  UNL     1      18.228  27.311   6.300  1.00  0.00     0.005 C 
ENDBRANCH  32  34
ENDBRANCH  31  32
ENDBRANCH  30  31
BRANCH  30  36
HETATM   36  N1  UNL     1      20.474  26.791   9.761  1.00  0.00    -0.324 N 
HETATM   37  C7  UNL     1      21.278  25.808  10.417  1.00  0.00     0.362 C 
HETATM   38  O1  UNL     1      20.750  24.857  11.072  1.00  0.00    -0.238 OA
ATOM     39  H1  UNL     1      20.933  27.541   9.243  1.00  0.00     0.165 HD
BRANCH  37  40
HETATM   40  O2  UNL     1      22.654  25.847  10.367  1.00  0.00    -0.294 OA
BRANCH  40  41
HETATM   41  C8  UNL     1      23.447  26.752  11.116  1.00  0.00     0.061 C 
HETATM   42  C9  UNL     1      22.711  27.387  12.251  1.00  0.00     0.046 C 
HETATM   43  C10 UNL     1      23.884  27.852  10.153  1.00  0.00     0.046 C 
HETATM   44  C11 UNL     1      24.711  26.034  11.521  1.00  0.00     0.046 C 
ENDBRANCH  40  41
ENDBRANCH  37  40
ENDBRANCH  30  36
ENDBRANCH   1  30
TORSDOF 16
ENDMDL
MODEL 3
REMARK VINA RESULT: -8.282164295      1.993      2.706
REMARK  16 active torsions:
REMARK  status: ('A' for Active; 'I' for Inactive)
REMARK    1  A    between atoms: C2_2  and  C3_3 
REMARK    2  A    between atoms: C3_3  and  C5_5 
REMARK    3  A    between atoms: C5_5  and  C6_6 
REMARK    4  A    between atoms: C6_6  and  N1_7 
REMARK    5  A    between atoms: C6_6  and  C12_16 
REMARK       I    between atoms: N1_7  and  C7_9 
REMARK    6  A    between atoms: C7_9  and  O2_11 
REMARK    7  A    between atoms: O2_11  and  C8_12 
REMARK       I    between atoms: C12_16  and  N2_18 
REMARK    8  A    between atoms: C15_21  and  N3_22 
REMARK       I    between atoms: N3_22  and  C16_24 
REMARK    9  A    between atoms: C16_24  and  C17_26 
REMARK   10  A    between atoms: C17_26  and  C18_27 
REMARK   11  A    between atoms: C18_27  and  S1_28 
REMARK   12  A    between atoms: S1_28  and  S2_29 
REMARK   13  A    between atoms: S2_29  and  C19_30 
REMARK   14  A    between atoms: C19_30  and  C20_31 
REMARK   15  A    between atoms: C20_31  and  N4_32 
REMARK   16  A    between atoms: C20_31  and  C21_36 
ROOT
HETATM    1  C12 UNL     1      19.548  27.945  11.185  1.00  0.00     0.242 C 
HETATM    2  O3  UNL     1      18.795  27.686  10.175  1.00  0.00    -0.271 OA
HETATM    3  N2  UNL     1      19.011  28.795  12.163  1.00  0.00    -0.350 N 
HETATM    4  C13 UNL     1      19.708  29.158  13.367  1.00  0.00     0.128 C 
HETATM    5  C14 UNL     1      18.751  29.577  14.469  1.00  0.00     0.045 C 
HETATM    6  C15 UNL     1      17.687  30.522  14.056  1.00  0.00     0.087 C 
HETATM    7  C26 UNL     1      17.503  30.680  12.569  1.00  0.00     0.045 C 
HETATM    8  C27 UNL     1      17.663  29.333  11.910  1.00  0.00     0.128 C 
ENDROOT
BRANCH   6   9
HETATM    9  N3  UNL     1      17.896  31.791  14.717  1.00  0.00    -0.356 N 
HETATM   10  C16 UNL     1      16.903  32.529  15.392  1.00  0.00     0.227 C 
HETATM   11  O4  UNL     1      15.715  32.129  15.473  1.00  0.00    -0.273 OA
ATOM     12  H3  UNL     1      18.837  32.183  14.693  1.00  0.00     0.162 HD
BRANCH  10  13
HETATM   13  C17 UNL     1      17.201  33.836  16.056  1.00  0.00     0.050 C 
HETATM   14  C22 UNL     1      16.490  34.047  17.339  1.00  0.00     0.020 C 
HETATM   15  C23 UNL     1      15.532  35.184  17.216  1.00  0.00     0.001 C 
HETATM   16  C24 UNL     1      16.139  35.987  16.062  1.00  0.00     0.001 C 
HETATM   17  C25 UNL     1      16.506  34.871  15.121  1.00  0.00     0.020 C 
BRANCH  13  18
HETATM   18  C18 UNL     1      18.634  34.194  16.022  1.00  0.00     0.105 C 
BRANCH  18  19
HETATM   19  S1  UNL     1      19.460  34.631  17.512  1.00  0.00    -0.096 SA
BRANCH  19  20
HETATM   20  S2  UNL     1      21.506  34.997  17.198  1.00  0.00    -0.095 SA
BRANCH  20  21
HETATM   21  C19 UNL     1      22.364  33.431  17.022  1.00  0.00     0.130 C 
BRANCH  21  22
HETATM   22  C20 UNL     1      22.792  33.314  15.543  1.00  0.00     0.293 C 
BRANCH  22  23
HETATM   23  N4  UNL     1      24.126  32.799  15.435  1.00  0.00    -0.064 N 
ATOM     24  H43 UNL     1      24.760  33.252  16.093  1.00  0.00     0.275 HD
ATOM     25  H42 UNL     1      24.191  31.845  15.791  1.00  0.00     0.275 HD
ATOM     26  H41 UNL     1      24.467  32.868  14.477  1.00  0.00     0.275 HD
ENDBRANCH  22  23
BRANCH  22  27
HETATM   27  C21 UNL     1      21.812  32.451  14.824  1.00  0.00     0.205 C 
HETATM   28  O5  UNL     1      21.000  31.700  15.395  1.00  0.00    -0.646 OA
HETATM   29  O6  UNL     1      21.812  32.495  13.441  1.00  0.00    -0.646 OA
ENDBRANCH  22  27
ENDBRANCH  21  22
ENDBRANCH  20  21
ENDBRANCH  19  20
ENDBRANCH  18  19
ENDBRANCH  13  18
ENDBRANCH  10  13
ENDBRANCH   6   9
BRANCH   1  30
HETATM   30  C6  UNL     1      20.873  27.301  11.164  1.00  0.00     0.179 C 
BRANCH  30  31
HETATM   31  C5  UNL     1      22.038  28.199  11.336  1.00  0.00     0.039 C 
BRANCH  31  32
HETATM   32  C3  UNL     1      23.024  27.961  12.400  1.00  0.00    -0.017 C 
HETATM   33  C4  UNL     1      23.064  28.848  13.578  1.00  0.00     0.010 C 
BRANCH  32  34
HETATM   34  C2  UNL     1      24.431  27.896  11.804  1.00  0.00    -0.000 C 
HETATM   35  C1  UNL     1      25.096  26.579  11.982  1.00  0.00     0.005 C 
ENDBRANCH  32  34
ENDBRANCH  31  32
ENDBRANCH  30  31
BRANCH  30  36
HETATM   36  N1  UNL     1      20.958  26.466   9.978  1.00  0.00    -0.324 N 
HETATM   37  C7  UNL     1      21.708  25.250   9.964  1.00  0.00     0.362 C 
HETATM   38  O1  UNL     1      22.335  24.852  10.995  1.00  0.00    -0.238 OA
ATOM     39  H1  UNL     1      20.467  26.755   9.132  1.00  0.00     0.165 HD
BRANCH  37  40
HETATM   40  O2  UNL     1      21.786  24.460   8.839  1.00  0.00    -0.294 OA
BRANCH  40  41
HETATM   41  C8  UNL     1      22.728  24.652   7.799  1.00  0.00     0.061 C 
HETATM   42  C9  UNL     1      23.782  25.658   8.133  1.00  0.00     0.046 C 
HETATM   43  C10 UNL     1      21.948  25.159   6.590  1.00  0.00     0.046 C 
HETATM   44  C11 UNL     1      23.265  23.299   7.404  1.00  0.00     0.046 C 
ENDBRANCH  40  41
ENDBRANCH  37  40
ENDBRANCH  30  36
ENDBRANCH   1  30
TORSDOF 16
ENDMDL
MODEL 4
REMARK VINA RESULT: -8.097826583      3.431     10.228
REMARK  16 active torsions:
REMARK  status: ('A' for Active; 'I' for Inactive)
REMARK    1  A    between atoms: C2_2  and  C3_3 
REMARK    2  A    between atoms: C3_3  and  C5_5 
REMARK    3  A    between atoms: C5_5  and  C6_6 
REMARK    4  A    between atoms: C6_6  and  N1_7 
REMARK    5  A    between atoms: C6_6  and  C12_16 
REMARK       I    between atoms: N1_7  and  C7_9 
REMARK    6  A    between atoms: C7_9  and  O2_11 
REMARK    7  A    between atoms: O2_11  and  C8_12 
REMARK       I    between atoms: C12_16  and  N2_18 
REMARK    8  A    between atoms: C15_21  and  N3_22 
REMARK       I    between atoms: N3_22  and  C16_24 
REMARK    9  A    between atoms: C16_24  and  C17_26 
REMARK   10  A    between atoms: C17_26  and  C18_27 
REMARK   11  A    between atoms: C18_27  and  S1_28 
REMARK   12  A    between atoms: S1_28  and  S2_29 
REMARK   13  A    between atoms: S2_29  and  C19_30 
REMARK   14  A    between atoms: C19_30  and  C20_31 
REMARK   15  A    between atoms: C20_31  and  N4_32 
REMARK   16  A    between atoms: C20_31  and  C21_36 
ROOT
HETATM    1  C12 UNL     1      20.225  34.031  15.979  1.00  0.00     0.242 C 
HETATM    2  O3  UNL     1      21.063  35.002  16.060  1.00  0.00    -0.271 OA
HETATM    3  N2  UNL     1      20.696  32.846  15.393  1.00  0.00    -0.350 N 
HETATM    4  C13 UNL     1      19.898  31.658  15.255  1.00  0.00     0.128 C 
HETATM    5  C14 UNL     1      20.757  30.411  15.141  1.00  0.00     0.045 C 
HETATM    6  C15 UNL     1      21.895  30.511  14.198  1.00  0.00     0.087 C 
HETATM    7  C26 UNL     1      22.232  31.905  13.735  1.00  0.00     0.045 C 
HETATM    8  C27 UNL     1      22.084  32.854  14.897  1.00  0.00     0.128 C 
ENDROOT
BRANCH   6   9
HETATM    9  N3  UNL     1      21.673  29.609  13.090  1.00  0.00    -0.356 N 
HETATM   10  C16 UNL     1      22.515  28.537  12.734  1.00  0.00     0.227 C 
HETATM   11  O4  UNL     1      23.564  28.272  13.373  1.00  0.00    -0.273 OA
ATOM     12  H3  UNL     1      20.841  29.761  12.521  1.00  0.00     0.162 HD
BRANCH  10  13
HETATM   13  C17 UNL     1      22.214  27.643  11.572  1.00  0.00     0.050 C 
HETATM   14  C22 UNL     1      22.382  26.197  11.852  1.00  0.00     0.020 C 
HETATM   15  C23 UNL     1      23.494  25.640  11.027  1.00  0.00     0.001 C 
HETATM   16  C24 UNL     1      23.547  26.626   9.856  1.00  0.00     0.001 C 
HETATM   17  C25 UNL     1      23.392  27.929  10.594  1.00  0.00     0.020 C 
BRANCH  13  18
HETATM   18  C18 UNL     1      20.999  28.041  10.831  1.00  0.00     0.105 C 
BRANCH  18  19
HETATM   19  S1  UNL     1      19.850  26.812  10.315  1.00  0.00    -0.096 SA
BRANCH  19  20
HETATM   20  S2  UNL     1      18.419  26.401  11.799  1.00  0.00    -0.095 SA
BRANCH  20  21
HETATM   21  C19 UNL     1      18.687  27.498  13.194  1.00  0.00     0.130 C 
BRANCH  21  22
HETATM   22  C20 UNL     1      17.558  28.550  13.165  1.00  0.00     0.293 C 
BRANCH  22  23
HETATM   23  N4  UNL     1      17.494  29.267  14.405  1.00  0.00    -0.064 N 
ATOM     24  H43 UNL     1      17.247  28.655  15.183  1.00  0.00     0.275 HD
ATOM     25  H42 UNL     1      18.420  29.554  14.722  1.00  0.00     0.275 HD
ATOM     26  H41 UNL     1      16.857  30.061  14.334  1.00  0.00     0.275 HD
ENDBRANCH  22  23
BRANCH  22  27
HETATM   27  C21 UNL     1      17.785  29.468  12.012  1.00  0.00     0.205 C 
HETATM   28  O5  UNL     1      17.107  29.451  10.968  1.00  0.00    -0.646 OA
HETATM   29  O6  UNL     1      18.811  30.391  12.120  1.00  0.00    -0.646 OA
ENDBRANCH  22  27
ENDBRANCH  21  22
ENDBRANCH  20  21
ENDBRANCH  19  20
ENDBRANCH  18  19
ENDBRANCH  13  18
ENDBRANCH  10  13
ENDBRANCH   6   9
BRANCH   1  30
HETATM   30  C6  UNL     1      18.883  34.309  16.519  1.00  0.00     0.179 C 
BRANCH  30  31
HETATM   31  C5  UNL     1      17.742  33.984  15.634  1.00  0.00     0.039 C 
BRANCH  31  32
HETATM   32  C3  UNL     1      16.518  33.373  16.173  1.00  0.00    -0.017 C 
HETATM   33  C4  UNL     1      15.916  32.210  15.496  1.00  0.00     0.010 C 
BRANCH  32  34
HETATM   34  C2  UNL     1      15.434  34.439  16.346  1.00  0.00    -0.000 C 
HETATM   35  C1  UNL     1      14.849  34.482  17.711  1.00  0.00     0.005 C 
ENDBRANCH  32  34
ENDBRANCH  31  32
ENDBRANCH  30  31
BRANCH  30  36
HETATM   36  N1  UNL     1      18.862  35.677  17.010  1.00  0.00    -0.324 N 
HETATM   37  C7  UNL     1      18.383  36.001  18.317  1.00  0.00     0.362 C 
HETATM   38  O1  UNL     1      17.953  35.101  19.103  1.00  0.00    -0.238 OA
ATOM     39  H1  UNL     1      19.200  36.426  16.406  1.00  0.00     0.165 HD
BRANCH  37  40
HETATM   40  O2  UNL     1      18.366  37.298  18.780  1.00  0.00    -0.294 OA
BRANCH  40  41
HETATM   41  C8  UNL     1      17.552  38.322  18.237  1.00  0.00     0.061 C 
HETATM   42  C9  UNL     1      16.406  37.803  17.430  1.00  0.00     0.046 C 
HETATM   43  C10 UNL     1      18.446  39.153  17.320  1.00  0.00     0.046 C 
HETATM   44  C11 UNL     1      17.151  39.243  19.364  1.00  0.00     0.046 C 
ENDBRANCH  40  41
ENDBRANCH  37  40
ENDBRANCH  30  36
ENDBRANCH   1  30
TORSDOF 16
ENDMDL
MODEL 5
REMARK VINA RESULT: -8.091384985      3.198     10.766
REMARK  16 active torsions:
REMARK  status: ('A' for Active; 'I' for Inactive)
REMARK    1  A    between atoms: C2_2  and  C3_3 
REMARK    2  A    between atoms: C3_3  and  C5_5 
REMARK    3  A    between atoms: C5_5  and  C6_6 
REMARK    4  A    between atoms: C6_6  and  N1_7 
REMARK    5  A    between atoms: C6_6  and  C12_16 
REMARK       I    between atoms: N1_7  and  C7_9 
REMARK    6  A    between atoms: C7_9  and  O2_11 
REMARK    7  A    between atoms: O2_11  and  C8_12 
REMARK       I    between atoms: C12_16  and  N2_18 
REMARK    8  A    between atoms: C15_21  and  N3_22 
REMARK       I    between atoms: N3_22  and  C16_24 
REMARK    9  A    between atoms: C16_24  and  C17_26 
REMARK   10  A    between atoms: C17_26  and  C18_27 
REMARK   11  A    between atoms: C18_27  and  S1_28 
REMARK   12  A    between atoms: S1_28  and  S2_29 
REMARK   13  A    between atoms: S2_29  and  C19_30 
REMARK   14  A    between atoms: C19_30  and  C20_31 
REMARK   15  A    between atoms: C20_31  and  N4_32 
REMARK   16  A    between atoms: C20_31  and  C21_36 
ROOT
HETATM    1  C12 UNL     1      18.918  33.097  14.723  1.00  0.00     0.242 C 
HETATM    2  O3  UNL     1      17.920  33.542  14.045  1.00  0.00    -0.271 OA
HETATM    3  N2  UNL     1      19.794  32.230  14.051  1.00  0.00    -0.350 N 
HETATM    4  C13 UNL     1      20.973  31.671  14.653  1.00  0.00     0.128 C 
HETATM    5  C14 UNL     1      22.003  31.271  13.613  1.00  0.00     0.045 C 
HETATM    6  C15 UNL     1      21.472  30.510  12.458  1.00  0.00     0.087 C 
HETATM    7  C26 UNL     1      19.972  30.518  12.311  1.00  0.00     0.045 C 
HETATM    8  C27 UNL     1      19.455  31.891  12.658  1.00  0.00     0.128 C 
ENDROOT
BRANCH   6   9
HETATM    9  N3  UNL     1      22.009  29.167  12.486  1.00  0.00    -0.356 N 
HETATM   10  C16 UNL     1      22.652  28.526  11.410  1.00  0.00     0.227 C 
HETATM   11  O4  UNL     1      22.815  29.089  10.298  1.00  0.00    -0.273 OA
ATOM     12  H3  UNL     1      21.914  28.643  13.356  1.00  0.00     0.162 HD
BRANCH  10  13
HETATM   13  C17 UNL     1      23.186  27.132  11.521  1.00  0.00     0.050 C 
HETATM   14  C22 UNL     1      24.445  27.018  12.295  1.00  0.00     0.020 C 
HETATM   15  C23 UNL     1      25.556  26.569  11.406  1.00  0.00     0.001 C 
HETATM   16  C24 UNL     1      24.797  25.857  10.283  1.00  0.00     0.001 C 
HETATM   17  C25 UNL     1      23.662  26.823  10.070  1.00  0.00     0.020 C 
BRANCH  13  18
HETATM   18  C18 UNL     1      22.139  26.128  11.800  1.00  0.00     0.105 C 
BRANCH  18  19
HETATM   19  S1  UNL     1      20.960  25.727  10.558  1.00  0.00    -0.096 SA
BRANCH  19  20
HETATM   20  S2  UNL     1      19.397  27.131  10.476  1.00  0.00    -0.095 SA
BRANCH  20  21
HETATM   21  C19 UNL     1      17.874  26.290  10.036  1.00  0.00     0.130 C 
BRANCH  21  22
HETATM   22  C20 UNL     1      17.749  26.356   8.499  1.00  0.00     0.293 C 
BRANCH  22  23
HETATM   23  N4  UNL     1      18.589  27.386   7.960  1.00  0.00    -0.064 N 
ATOM     24  H43 UNL     1      18.062  28.238   7.764  1.00  0.00     0.275 HD
ATOM     25  H42 UNL     1      19.227  27.757   8.663  1.00  0.00     0.275 HD
ATOM     26  H41 UNL     1      19.088  27.055   7.135  1.00  0.00     0.275 HD
ENDBRANCH  22  23
BRANCH  22  27
HETATM   27  C21 UNL     1      18.087  25.020   7.929  1.00  0.00     0.205 C 
HETATM   28  O5  UNL     1      17.300  24.057   7.906  1.00  0.00    -0.646 OA
HETATM   29  O6  UNL     1      19.354  24.852   7.397  1.00  0.00    -0.646 OA
ENDBRANCH  22  27
ENDBRANCH  21  22
ENDBRANCH  20  21
ENDBRANCH  19  20
ENDBRANCH  18  19
ENDBRANCH  13  18
ENDBRANCH  10  13
ENDBRANCH   6   9
BRANCH   1  30
HETATM   30  C6  UNL     1      18.995  33.570  16.116  1.00  0.00     0.179 C 
BRANCH  30  31
HETATM   31  C5  UNL     1      17.765  33.419  16.926  1.00  0.00     0.039 C 
BRANCH  31  32
HETATM   32  C3  UNL     1      16.804  34.524  17.052  1.00  0.00    -0.017 C 
HETATM   33  C4  UNL     1      16.668  35.239  18.334  1.00  0.00     0.010 C 
BRANCH  32  34
HETATM   34  C2  UNL     1      15.413  34.059  16.615  1.00  0.00    -0.000 C 
HETATM   35  C1  UNL     1      15.371  32.649  16.151  1.00  0.00     0.005 C 
ENDBRANCH  32  34
ENDBRANCH  31  32
ENDBRANCH  30  31
BRANCH  30  36
HETATM   36  N1  UNL     1      19.521  34.924  16.111  1.00  0.00    -0.324 N 
HETATM   37  C7  UNL     1      20.791  35.242  16.683  1.00  0.00     0.362 C 
HETATM   38  O1  UNL     1      21.513  34.346  17.222  1.00  0.00    -0.238 OA
ATOM     39  H1  UNL     1      18.968  35.669  15.687  1.00  0.00     0.165 HD
BRANCH  37  40
HETATM   40  O2  UNL     1      21.288  36.526  16.676  1.00  0.00    -0.294 OA
BRANCH  40  41
HETATM   41  C8  UNL     1      21.087  37.459  17.723  1.00  0.00     0.061 C 
HETATM   42  C9  UNL     1      20.038  37.036  18.701  1.00  0.00     0.046 C 
HETATM   43  C10 UNL     1      20.636  38.762  17.070  1.00  0.00     0.046 C 
HETATM   44  C11 UNL     1      22.431  37.754  18.345  1.00  0.00     0.046 C 
ENDBRANCH  40  41
ENDBRANCH  37  40
ENDBRANCH  30  36
ENDBRANCH   1  30
TORSDOF 16
ENDMDL
