MODEL 1
REMARK VINA RESULT: -8.507738373      0.000      0.000
REMARK  15 active torsions:
REMARK  status: ('A' for Active; 'I' for Inactive)
REMARK    1  A    between atoms: C2_2  and  C3_3 
REMARK    2  A    between atoms: C3_3  and  N1_4 
REMARK    3  A    between atoms: C4_5  and  S1_6 
REMARK    4  A    between atoms: S1_6  and  C5_7 
REMARK    5  A    between atoms: C5_7  and  C6_8 
REMARK    6  A    between atoms: C6_8  and  C7_9 
REMARK    7  A    between atoms: C7_9  and  C8_10 
REMARK    8  A    between atoms: N2_14  and  C12_15 
REMARK    9  A    between atoms: C12_15  and  C13_16 
REMARK   10  A    between atoms: N3_18  and  C15_19 
REMARK   11  A    between atoms: C15_19  and  C16_20 
REMARK       I    between atoms: N4_22  and  C18_24 
REMARK   12  A    between atoms: C20_35  and  N9_36 
REMARK       I    between atoms: N9_36  and  C21_38 
REMARK   13  A    between atoms: C21_38  and  C22_40 
REMARK   14  A    between atoms: C22_40  and  C23_41 
REMARK   15  A    between atoms: C22_40  and  C25_43 
ROOT
HETATM    1  C6  UNL     1      22.351  29.240  10.472  1.00  0.00     0.017 C 
ENDROOT
BRANCH   1   2
HETATM    2  C5  UNL     1      21.321  28.535  11.252  1.00  0.00     0.083 C 
BRANCH   2   3
HETATM    3  S1  UNL     1      21.567  28.108  12.917  1.00  0.00    -0.092 SA
BRANCH   3   4
HETATM    4  C4  UNL     1      20.886  29.036  14.228  1.00  0.00     0.177 A 
HETATM    5  N1  UNL     1      20.650  30.325  14.457  1.00  0.00    -0.159 N 
HETATM    6  C20 UNL     1      20.075  30.492  15.699  1.00  0.00     0.703 A 
HETATM    7  N8  UNL     1      19.965  29.275  16.224  1.00  0.00    -0.130 N 
HETATM    8  N7  UNL     1      20.436  28.396  15.379  1.00  0.00    -0.265 N 
ATOM      9  H8  UNL     1      19.574  29.061  17.142  1.00  0.00     0.205 HD
ATOM     10  H7  UNL     1      20.468  27.389  15.540  1.00  0.00     0.189 HD
BRANCH   5  11
HETATM   11  C3  UNL     1      20.915  31.444  13.623  1.00  0.00     0.149 C 
BRANCH  11  12
HETATM   12  C2  UNL     1      20.004  31.800  12.532  1.00  0.00     0.016 C 
HETATM   13  C1  UNL     1      18.803  30.982  12.315  1.00  0.00     0.006 C 
ENDBRANCH  11  12
ENDBRANCH   5  11
BRANCH   6  14
HETATM   14  N9  UNL     1      19.730  31.629  16.207  1.00  0.00    -0.158 N 
HETATM   15  C21 UNL     1      18.429  32.138  16.031  1.00  0.00     0.240 C 
HETATM   16  O2  UNL     1      17.401  31.427  16.244  1.00  0.00    -0.272 OA
ATOM     17  H9  UNL     1      20.411  32.167  16.744  1.00  0.00     0.187 HD
BRANCH  15  18
HETATM   18  C22 UNL     1      18.260  33.541  15.586  1.00  0.00     0.078 C 
BRANCH  18  19
HETATM   19  C23 UNL     1      17.295  33.532  14.410  1.00  0.00     0.009 C 
HETATM   20  C24 UNL     1      16.466  34.794  14.375  1.00  0.00     0.006 C 
ENDBRANCH  18  19
BRANCH  18  21
HETATM   21  C25 UNL     1      17.692  34.350  16.708  1.00  0.00     0.009 C 
HETATM   22  C26 UNL     1      18.765  34.930  17.590  1.00  0.00     0.006 C 
ENDBRANCH  18  21
ENDBRANCH  15  18
ENDBRANCH   6  14
ENDBRANCH   3   4
ENDBRANCH   2   3
ENDBRANCH   1   2
BRANCH   1  23
HETATM   23  C7  UNL     1      23.010  28.420   9.369  1.00  0.00     0.058 C 
BRANCH  23  24
HETATM   24  C8  UNL     1      23.880  27.343   9.871  1.00  0.00     0.011 A 
HETATM   25  C9  UNL     1      24.927  27.612  10.747  1.00  0.00     0.026 A 
HETATM   26  C10 UNL     1      25.570  26.434  11.054  1.00  0.00     0.019 A 
HETATM   27  C11 UNL     1      24.898  25.462  10.357  1.00  0.00     0.091 A 
HETATM   28  N2  UNL     1      23.878  26.031   9.649  1.00  0.00    -0.358 N 
BRANCH  28  29
HETATM   29  C12 UNL     1      22.967  25.251   8.878  1.00  0.00     0.162 C 
BRANCH  29  30
HETATM   30  C13 UNL     1      21.763  24.747   9.577  1.00  0.00     0.160 C 
HETATM   31  C14 UNL     1      20.540  25.585   9.561  1.00  0.00     0.160 C 
HETATM   32  N3  UNL     1      19.744  24.880  10.536  1.00  0.00    -0.347 N 
HETATM   33  C19 UNL     1      20.684  24.395  11.503  1.00  0.00     0.295 C 
HETATM   34  O1  UNL     1      21.952  24.504  10.931  1.00  0.00    -0.363 OA
BRANCH  32  35
HETATM   35  C15 UNL     1      18.350  24.715  10.509  1.00  0.00     0.082 C 
HETATM   36  N4  UNL     1      17.491  25.601  10.878  1.00  0.00    -0.321 N 
HETATM   37  C18 UNL     1      17.712  26.876  11.369  1.00  0.00     0.187 C 
ATOM     38  H4  UNL     1      16.512  25.324  10.797  1.00  0.00     0.169 HD
HETATM   39  N5  UNL     1      17.911  27.864  10.573  1.00  0.00    -0.373 N 
HETATM   40  N6  UNL     1      17.720  27.122  12.763  1.00  0.00    -0.064 NA
ATOM     41  H52 UNL     1      17.906  27.686   9.568  1.00  0.00     0.158 HD
ATOM     42  H51 UNL     1      18.074  28.803  10.934  1.00  0.00     0.158 HD
BRANCH  35  43
HETATM   43  C16 UNL     1      17.733  23.421  10.020  1.00  0.00     0.072 C 
HETATM   44  C17 UNL     1      17.018  22.706  11.116  1.00  0.00     0.013 C 
ENDBRANCH  35  43
ENDBRANCH  32  35
ENDBRANCH  29  30
ENDBRANCH  28  29
ENDBRANCH  23  24
ENDBRANCH   1  23
TORSDOF 15
ENDMDL
MODEL 2
REMARK VINA RESULT: -8.063125891      2.245      6.552
REMARK  15 active torsions:
REMARK  status: ('A' for Active; 'I' for Inactive)
REMARK    1  A    between atoms: C2_2  and  C3_3 
REMARK    2  A    between atoms: C3_3  and  N1_4 
REMARK    3  A    between atoms: C4_5  and  S1_6 
REMARK    4  A    between atoms: S1_6  and  C5_7 
REMARK    5  A    between atoms: C5_7  and  C6_8 
REMARK    6  A    between atoms: C6_8  and  C7_9 
REMARK    7  A    between atoms: C7_9  and  C8_10 
REMARK    8  A    between atoms: N2_14  and  C12_15 
REMARK    9  A    between atoms: C12_15  and  C13_16 
REMARK   10  A    between atoms: N3_18  and  C15_19 
REMARK   11  A    between atoms: C15_19  and  C16_20 
REMARK       I    between atoms: N4_22  and  C18_24 
REMARK   12  A    between atoms: C20_35  and  N9_36 
REMARK       I    between atoms: N9_36  and  C21_38 
REMARK   13  A    between atoms: C21_38  and  C22_40 
REMARK   14  A    between atoms: C22_40  and  C23_41 
REMARK   15  A    between atoms: C22_40  and  C25_43 
ROOT
HETATM    1  C6  UNL     1      17.238  31.032  15.488  1.00  0.00     0.017 C 
ENDROOT
BRANCH   1   2
HETATM    2  C5  UNL     1      18.377  31.417  16.338  1.00  0.00     0.083 C 
BRANCH   2   3
HETATM    3  S1  UNL     1      19.807  30.438  16.449  1.00  0.00    -0.092 SA
BRANCH   3   4
HETATM    4  C4  UNL     1      20.477  29.607  15.071  1.00  0.00     0.177 A 
HETATM    5  N1  UNL     1      21.530  29.780  14.276  1.00  0.00    -0.159 N 
HETATM    6  C20 UNL     1      21.577  28.787  13.321  1.00  0.00     0.703 A 
HETATM    7  N8  UNL     1      20.529  28.001  13.550  1.00  0.00    -0.130 N 
HETATM    8  N7  UNL     1      19.861  28.460  14.576  1.00  0.00    -0.265 N 
ATOM      9  H8  UNL     1      20.284  27.171  13.010  1.00  0.00     0.205 HD
ATOM     10  H7  UNL     1      19.014  28.040  14.957  1.00  0.00     0.189 HD
BRANCH   5  11
HETATM   11  C3  UNL     1      22.517  30.802  14.311  1.00  0.00     0.149 C 
BRANCH  11  12
HETATM   12  C2  UNL     1      22.208  32.126  14.859  1.00  0.00     0.016 C 
HETATM   13  C1  UNL     1      22.660  33.318  14.130  1.00  0.00     0.006 C 
ENDBRANCH  11  12
ENDBRANCH   5  11
BRANCH   6  14
HETATM   14  N9  UNL     1      22.483  28.684  12.405  1.00  0.00    -0.158 N 
HETATM   15  C21 UNL     1      22.229  27.989  11.207  1.00  0.00     0.240 C 
HETATM   16  O2  UNL     1      21.182  28.199  10.525  1.00  0.00    -0.272 OA
ATOM     17  H9  UNL     1      23.397  29.114  12.552  1.00  0.00     0.187 HD
BRANCH  15  18
HETATM   18  C22 UNL     1      23.214  26.989  10.734  1.00  0.00     0.078 C 
BRANCH  18  19
HETATM   19  C23 UNL     1      24.516  27.247  11.478  1.00  0.00     0.009 C 
HETATM   20  C24 UNL     1      25.675  26.544  10.810  1.00  0.00     0.006 C 
ENDBRANCH  18  19
BRANCH  18  21
HETATM   21  C25 UNL     1      22.712  25.615  11.043  1.00  0.00     0.009 C 
HETATM   22  C26 UNL     1      22.615  24.756   9.811  1.00  0.00     0.006 C 
ENDBRANCH  18  21
ENDBRANCH  15  18
ENDBRANCH   6  14
ENDBRANCH   3   4
ENDBRANCH   2   3
ENDBRANCH   1   2
BRANCH   1  23
HETATM   23  C7  UNL     1      17.053  31.866  14.226  1.00  0.00     0.058 C 
BRANCH  23  24
HETATM   24  C8  UNL     1      18.025  31.557  13.164  1.00  0.00     0.011 A 
HETATM   25  C9  UNL     1      19.163  32.336  12.978  1.00  0.00     0.026 A 
HETATM   26  C10 UNL     1      19.890  31.824  11.928  1.00  0.00     0.019 A 
HETATM   27  C11 UNL     1      19.180  30.735  11.491  1.00  0.00     0.091 A 
HETATM   28  N2  UNL     1      18.056  30.588  12.252  1.00  0.00    -0.358 N 
BRANCH  28  29
HETATM   29  C12 UNL     1      17.156  29.497  12.067  1.00  0.00     0.162 C 
BRANCH  29  30
HETATM   30  C13 UNL     1      17.712  28.271  11.451  1.00  0.00     0.160 C 
HETATM   31  C14 UNL     1      16.862  27.517  10.500  1.00  0.00     0.160 C 
HETATM   32  N3  UNL     1      17.650  26.315  10.362  1.00  0.00    -0.347 N 
HETATM   33  C19 UNL     1      18.239  26.108  11.652  1.00  0.00     0.295 C 
HETATM   34  O1  UNL     1      18.089  27.296  12.367  1.00  0.00    -0.363 OA
BRANCH  32  35
HETATM   35  C15 UNL     1      17.793  25.545   9.198  1.00  0.00     0.082 C 
HETATM   36  N4  UNL     1      18.051  24.283   9.169  1.00  0.00    -0.321 N 
HETATM   37  C18 UNL     1      18.241  23.410  10.226  1.00  0.00     0.187 C 
ATOM     38  H4  UNL     1      18.126  23.871   8.238  1.00  0.00     0.169 HD
HETATM   39  N5  UNL     1      17.241  22.867  10.820  1.00  0.00    -0.373 N 
HETATM   40  N6  UNL     1      19.546  23.091  10.674  1.00  0.00    -0.064 NA
ATOM     41  H52 UNL     1      16.301  23.097  10.497  1.00  0.00     0.158 HD
ATOM     42  H51 UNL     1      17.381  22.224  11.599  1.00  0.00     0.158 HD
BRANCH  35  43
HETATM   43  C16 UNL     1      17.648  26.177   7.829  1.00  0.00     0.072 C 
HETATM   44  C17 UNL     1      17.032  25.234   6.851  1.00  0.00     0.013 C 
ENDBRANCH  35  43
ENDBRANCH  32  35
ENDBRANCH  29  30
ENDBRANCH  28  29
ENDBRANCH  23  24
ENDBRANCH   1  23
TORSDOF 15
ENDMDL
MODEL 3
REMARK VINA RESULT: -8.035436412      2.066      5.045
REMARK  15 active torsions:
REMARK  status: ('A' for Active; 'I' for Inactive)
REMARK    1  A    between atoms: C2_2  and  C3_3 
REMARK    2  A    between atoms: C3_3  and  N1_4 
REMARK    3  A    between atoms: C4_5  and  S1_6 
REMARK    4  A    between atoms: S1_6  and  C5_7 
REMARK    5  A    between atoms: C5_7  and  C6_8 
REMARK    6  A    between atoms: C6_8  and  C7_9 
REMARK    7  A    between atoms: C7_9  and  C8_10 
REMARK    8  A    between atoms: N2_14  and  C12_15 
REMARK    9  A    between atoms: C12_15  and  C13_16 
REMARK   10  A    between atoms: N3_18  and  C15_19 
REMARK   11  A    between atoms: C15_19  and  C16_20 
REMARK       I    between atoms: N4_22  and  C18_24 
REMARK   12  A    between atoms: C20_35  and  N9_36 
REMARK       I    between atoms: N9_36  and  C21_38 
REMARK   13  A    between atoms: C21_38  and  C22_40 
REMARK   14  A    between atoms: C22_40  and  C23_41 
REMARK   15  A    between atoms: C22_40  and  C25_43 
ROOT
HETATM    1  C6  UNL     1      19.900  28.926  13.014  1.00  0.00     0.017 C 
ENDROOT
BRANCH   1   2
HETATM    2  C5  UNL     1      20.694  29.103  14.242  1.00  0.00     0.083 C 
BRANCH   2   3
HETATM    3  S1  UNL     1      21.560  30.572  14.567  1.00  0.00    -0.092 SA
BRANCH   3   4
HETATM    4  C4  UNL     1      20.825  31.928  15.381  1.00  0.00     0.177 A 
HETATM    5  N1  UNL     1      19.825  32.765  15.120  1.00  0.00    -0.159 N 
HETATM    6  C20 UNL     1      19.676  33.669  16.150  1.00  0.00     0.703 A 
HETATM    7  N8  UNL     1      20.609  33.365  17.048  1.00  0.00    -0.130 N 
HETATM    8  N7  UNL     1      21.303  32.343  16.622  1.00  0.00    -0.265 N 
ATOM      9  H8  UNL     1      20.760  33.854  17.931  1.00  0.00     0.205 HD
ATOM     10  H7  UNL     1      22.079  31.912  17.124  1.00  0.00     0.189 HD
BRANCH   5  11
HETATM   11  C3  UNL     1      18.977  32.816  13.981  1.00  0.00     0.149 C 
BRANCH  11  12
HETATM   12  C2  UNL     1      17.832  31.909  13.857  1.00  0.00     0.016 C 
HETATM   13  C1  UNL     1      17.169  31.432  15.077  1.00  0.00     0.006 C 
ENDBRANCH  11  12
ENDBRANCH   5  11
BRANCH   6  14
HETATM   14  N9  UNL     1      18.789  34.609  16.188  1.00  0.00    -0.158 N 
HETATM   15  C21 UNL     1      17.740  34.579  17.126  1.00  0.00     0.240 C 
HETATM   16  O2  UNL     1      17.952  34.364  18.357  1.00  0.00    -0.272 OA
ATOM     17  H9  UNL     1      18.851  35.384  15.527  1.00  0.00     0.187 HD
BRANCH  15  18
HETATM   18  C22 UNL     1      16.353  34.808  16.659  1.00  0.00     0.078 C 
BRANCH  18  19
HETATM   19  C23 UNL     1      15.563  35.360  17.837  1.00  0.00     0.009 C 
HETATM   20  C24 UNL     1      14.133  35.651  17.447  1.00  0.00     0.006 C 
ENDBRANCH  18  19
BRANCH  18  21
HETATM   21  C25 UNL     1      16.364  35.801  15.541  1.00  0.00     0.009 C 
HETATM   22  C26 UNL     1      16.175  35.146  14.199  1.00  0.00     0.006 C 
ENDBRANCH  18  21
ENDBRANCH  15  18
ENDBRANCH   6  14
ENDBRANCH   3   4
ENDBRANCH   2   3
ENDBRANCH   1   2
BRANCH   1  23
HETATM   23  C7  UNL     1      18.507  28.342  13.217  1.00  0.00     0.058 C 
BRANCH  23  24
HETATM   24  C8  UNL     1      17.753  28.161  11.966  1.00  0.00     0.011 A 
HETATM   25  C9  UNL     1      16.916  29.159  11.476  1.00  0.00     0.026 A 
HETATM   26  C10 UNL     1      16.343  28.730  10.301  1.00  0.00     0.019 A 
HETATM   27  C11 UNL     1      16.845  27.471  10.092  1.00  0.00     0.091 A 
HETATM   28  N2  UNL     1      17.697  27.145  11.108  1.00  0.00    -0.358 N 
BRANCH  28  29
HETATM   29  C12 UNL     1      18.419  25.915  11.123  1.00  0.00     0.162 C 
BRANCH  29  30
HETATM   30  C13 UNL     1      19.874  25.991  10.856  1.00  0.00     0.160 C 
HETATM   31  C14 UNL     1      20.321  26.614   9.588  1.00  0.00     0.160 C 
HETATM   32  N3  UNL     1      21.718  26.249   9.613  1.00  0.00    -0.347 N 
HETATM   33  C19 UNL     1      21.753  24.957  10.229  1.00  0.00     0.295 C 
HETATM   34  O1  UNL     1      20.513  24.758  10.837  1.00  0.00    -0.363 OA
BRANCH  32  35
HETATM   35  C15 UNL     1      22.787  27.024   9.135  1.00  0.00     0.082 C 
HETATM   36  N4  UNL     1      23.436  26.800   8.045  1.00  0.00    -0.321 N 
HETATM   37  C18 UNL     1      23.253  25.793   7.114  1.00  0.00     0.187 C 
ATOM     38  H4  UNL     1      24.190  27.458   7.840  1.00  0.00     0.169 HD
HETATM   39  N5  UNL     1      22.370  25.902   6.189  1.00  0.00    -0.373 N 
HETATM   40  N6  UNL     1      24.041  24.616   7.158  1.00  0.00    -0.064 NA
ATOM     41  H52 UNL     1      21.802  26.750   6.158  1.00  0.00     0.158 HD
ATOM     42  H51 UNL     1      22.234  25.160   5.504  1.00  0.00     0.158 HD
BRANCH  35  43
HETATM   43  C16 UNL     1      23.273  28.232   9.908  1.00  0.00     0.072 C 
HETATM   44  C17 UNL     1      23.381  27.944  11.367  1.00  0.00     0.013 C 
ENDBRANCH  35  43
ENDBRANCH  32  35
ENDBRANCH  29  30
ENDBRANCH  28  29
ENDBRANCH  23  24
ENDBRANCH   1  23
TORSDOF 15
ENDMDL
MODEL 4
REMARK VINA RESULT: -7.966596375      1.422      2.344
REMARK  15 active torsions:
REMARK  status: ('A' for Active; 'I' for Inactive)
REMARK    1  A    between atoms: C2_2  and  C3_3 
REMARK    2  A    between atoms: C3_3  and  N1_4 
REMARK    3  A    between atoms: C4_5  and  S1_6 
REMARK    4  A    between atoms: S1_6  and  C5_7 
REMARK    5  A    between atoms: C5_7  and  C6_8 
REMARK    6  A    between atoms: C6_8  and  C7_9 
REMARK    7  A    between atoms: C7_9  and  C8_10 
REMARK    8  A    between atoms: N2_14  and  C12_15 
REMARK    9  A    between atoms: C12_15  and  C13_16 
REMARK   10  A    between atoms: N3_18  and  C15_19 
REMARK   11  A    between atoms: C15_19  and  C16_20 
REMARK       I    between atoms: N4_22  and  C18_24 
REMARK   12  A    between atoms: C20_35  and  N9_36 
REMARK       I    between atoms: N9_36  and  C21_38 
REMARK   13  A    between atoms: C21_38  and  C22_40 
REMARK   14  A    between atoms: C22_40  and  C23_41 
REMARK   15  A    between atoms: C22_40  and  C25_43 
ROOT
HETATM    1  C6  UNL     1      24.218  27.865  11.842  1.00  0.00     0.017 C 
ENDROOT
BRANCH   1   2
HETATM    2  C5  UNL     1      22.972  28.640  11.971  1.00  0.00     0.083 C 
BRANCH   2   3
HETATM    3  S1  UNL     1      21.643  28.082  12.939  1.00  0.00    -0.092 SA
BRANCH   3   4
HETATM    4  C4  UNL     1      20.976  29.030  14.242  1.00  0.00     0.177 A 
HETATM    5  N1  UNL     1      20.857  30.328  14.508  1.00  0.00    -0.159 N 
HETATM    6  C20 UNL     1      20.221  30.511  15.718  1.00  0.00     0.703 A 
HETATM    7  N8  UNL     1      19.955  29.295  16.185  1.00  0.00    -0.130 N 
HETATM    8  N7  UNL     1      20.389  28.401  15.336  1.00  0.00    -0.265 N 
ATOM      9  H8  UNL     1      19.485  29.092  17.068  1.00  0.00     0.205 HD
ATOM     10  H7  UNL     1      20.309  27.392  15.458  1.00  0.00     0.189 HD
BRANCH   5  11
HETATM   11  C3  UNL     1      21.287  31.442  13.738  1.00  0.00     0.149 C 
BRANCH  11  12
HETATM   12  C2  UNL     1      22.604  32.046  13.963  1.00  0.00     0.016 C 
HETATM   13  C1  UNL     1      22.676  33.440  14.418  1.00  0.00     0.006 C 
ENDBRANCH  11  12
ENDBRANCH   5  11
BRANCH   6  14
HETATM   14  N9  UNL     1      19.960  31.660  16.249  1.00  0.00    -0.158 N 
HETATM   15  C21 UNL     1      18.691  32.254  16.106  1.00  0.00     0.240 C 
HETATM   16  O2  UNL     1      17.624  31.608  16.329  1.00  0.00    -0.272 OA
ATOM     17  H9  UNL     1      20.684  32.144  16.780  1.00  0.00     0.187 HD
BRANCH  15  18
HETATM   18  C22 UNL     1      18.605  33.672  15.686  1.00  0.00     0.078 C 
BRANCH  18  19
HETATM   19  C23 UNL     1      17.139  34.074  15.743  1.00  0.00     0.009 C 
HETATM   20  C24 UNL     1      16.657  34.575  14.401  1.00  0.00     0.006 C 
ENDBRANCH  18  19
BRANCH  18  21
HETATM   21  C25 UNL     1      19.404  34.517  16.627  1.00  0.00     0.009 C 
HETATM   22  C26 UNL     1      18.545  35.155  17.685  1.00  0.00     0.006 C 
ENDBRANCH  18  21
ENDBRANCH  15  18
ENDBRANCH   6  14
ENDBRANCH   3   4
ENDBRANCH   2   3
ENDBRANCH   1   2
BRANCH   1  23
HETATM   23  C7  UNL     1      24.040  26.405  11.446  1.00  0.00     0.058 C 
BRANCH  23  24
HETATM   24  C8  UNL     1      23.599  26.218  10.054  1.00  0.00     0.011 A 
HETATM   25  C9  UNL     1      24.120  26.992   9.022  1.00  0.00     0.026 A 
HETATM   26  C10 UNL     1      23.539  26.608   7.835  1.00  0.00     0.019 A 
HETATM   27  C11 UNL     1      22.672  25.599   8.165  1.00  0.00     0.091 A 
HETATM   28  N2  UNL     1      22.723  25.375   9.511  1.00  0.00    -0.358 N 
BRANCH  28  29
HETATM   29  C12 UNL     1      21.971  24.336  10.133  1.00  0.00     0.162 C 
BRANCH  29  30
HETATM   30  C13 UNL     1      20.500  24.503  10.164  1.00  0.00     0.160 C 
HETATM   31  C14 UNL     1      19.942  25.678  10.874  1.00  0.00     0.160 C 
HETATM   32  N3  UNL     1      18.544  25.318  10.888  1.00  0.00    -0.347 N 
HETATM   33  C19 UNL     1      18.529  23.892  11.024  1.00  0.00     0.295 C 
HETATM   34  O1  UNL     1      19.819  23.440  10.744  1.00  0.00    -0.363 OA
BRANCH  32  35
HETATM   35  C15 UNL     1      17.458  26.201  10.780  1.00  0.00     0.082 C 
HETATM   36  N4  UNL     1      17.015  26.702   9.680  1.00  0.00    -0.321 N 
HETATM   37  C18 UNL     1      17.473  26.506   8.388  1.00  0.00     0.187 C 
ATOM     38  H4  UNL     1      16.216  27.330   9.773  1.00  0.00     0.169 HD
HETATM   39  N5  UNL     1      17.097  25.487   7.703  1.00  0.00    -0.373 N 
HETATM   40  N6  UNL     1      18.365  27.429   7.790  1.00  0.00    -0.064 NA
ATOM     41  H52 UNL     1      16.455  24.822   8.135  1.00  0.00     0.158 HD
ATOM     42  H51 UNL     1      17.435  25.343   6.752  1.00  0.00     0.158 HD
BRANCH  35  43
HETATM   43  C16 UNL     1      16.698  26.646  12.012  1.00  0.00     0.072 C 
HETATM   44  C17 UNL     1      17.522  27.544  12.872  1.00  0.00     0.013 C 
ENDBRANCH  35  43
ENDBRANCH  32  35
ENDBRANCH  29  30
ENDBRANCH  28  29
ENDBRANCH  23  24
ENDBRANCH   1  23
TORSDOF 15
ENDMDL
MODEL 5
REMARK VINA RESULT: -7.959545414      2.501      4.579
REMARK  15 active torsions:
REMARK  status: ('A' for Active; 'I' for Inactive)
REMARK    1  A    between atoms: C2_2  and  C3_3 
REMARK    2  A    between atoms: C3_3  and  N1_4 
REMARK    3  A    between atoms: C4_5  and  S1_6 
REMARK    4  A    between atoms: S1_6  and  C5_7 
REMARK    5  A    between atoms: C5_7  and  C6_8 
REMARK    6  A    between atoms: C6_8  and  C7_9 
REMARK    7  A    between atoms: C7_9  and  C8_10 
REMARK    8  A    between atoms: N2_14  and  C12_15 
REMARK    9  A    between atoms: C12_15  and  C13_16 
REMARK   10  A    between atoms: N3_18  and  C15_19 
REMARK   11  A    between atoms: C15_19  and  C16_20 
REMARK       I    between atoms: N4_22  and  C18_24 
REMARK   12  A    between atoms: C20_35  and  N9_36 
REMARK       I    between atoms: N9_36  and  C21_38 
REMARK   13  A    between atoms: C21_38  and  C22_40 
REMARK   14  A    between atoms: C22_40  and  C23_41 
REMARK   15  A    between atoms: C22_40  and  C25_43 
ROOT
HETATM    1  C6  UNL     1      18.970  31.377  12.212  1.00  0.00     0.017 C 
ENDROOT
BRANCH   1   2
HETATM    2  C5  UNL     1      18.579  30.284  13.118  1.00  0.00     0.083 C 
BRANCH   2   3
HETATM    3  S1  UNL     1      18.690  30.443  14.844  1.00  0.00    -0.092 SA
BRANCH   3   4
HETATM    4  C4  UNL     1      18.850  31.992  15.629  1.00  0.00     0.177 A 
HETATM    5  N1  UNL     1      18.279  33.186  15.500  1.00  0.00    -0.159 N 
HETATM    6  C20 UNL     1      18.807  34.070  16.417  1.00  0.00     0.703 A 
HETATM    7  N8  UNL     1      19.715  33.389  17.110  1.00  0.00    -0.130 N 
HETATM    8  N7  UNL     1      19.763  32.160  16.667  1.00  0.00    -0.265 N 
ATOM      9  H8  UNL     1      20.285  33.766  17.867  1.00  0.00     0.205 HD
ATOM     10  H7  UNL     1      20.379  31.432  17.029  1.00  0.00     0.189 HD
BRANCH   5  11
HETATM   11  C3  UNL     1      17.272  33.602  14.588  1.00  0.00     0.149 C 
BRANCH  11  12
HETATM   12  C2  UNL     1      15.853  33.400  14.893  1.00  0.00     0.016 C 
HETATM   13  C1  UNL     1      15.482  32.442  15.943  1.00  0.00     0.006 C 
ENDBRANCH  11  12
ENDBRANCH   5  11
BRANCH   6  14
HETATM   14  N9  UNL     1      18.455  35.308  16.538  1.00  0.00    -0.158 N 
HETATM   15  C21 UNL     1      17.457  35.692  17.453  1.00  0.00     0.240 C 
HETATM   16  O2  UNL     1      17.470  35.300  18.659  1.00  0.00    -0.272 OA
ATOM     17  H9  UNL     1      18.908  36.018  15.962  1.00  0.00     0.187 HD
BRANCH  15  18
HETATM   18  C22 UNL     1      16.364  36.580  16.994  1.00  0.00     0.078 C 
BRANCH  18  19
HETATM   19  C23 UNL     1      15.214  36.432  17.978  1.00  0.00     0.009 C 
HETATM   20  C24 UNL     1      14.133  35.533  17.424  1.00  0.00     0.006 C 
ENDBRANCH  18  19
BRANCH  18  21
HETATM   21  C25 UNL     1      16.848  37.996  16.982  1.00  0.00     0.009 C 
HETATM   22  C26 UNL     1      16.362  38.771  18.177  1.00  0.00     0.006 C 
ENDBRANCH  18  21
ENDBRANCH  15  18
ENDBRANCH   6  14
ENDBRANCH   3   4
ENDBRANCH   2   3
ENDBRANCH   1   2
BRANCH   1  23
HETATM   23  C7  UNL     1      20.418  31.346  11.739  1.00  0.00     0.058 C 
BRANCH  23  24
HETATM   24  C8  UNL     1      21.400  31.491  12.827  1.00  0.00     0.011 A 
HETATM   25  C9  UNL     1      21.540  32.691  13.516  1.00  0.00     0.026 A 
HETATM   26  C10 UNL     1      22.519  32.548  14.474  1.00  0.00     0.019 A 
HETATM   27  C11 UNL     1      22.958  31.254  14.352  1.00  0.00     0.091 A 
HETATM   28  N2  UNL     1      22.268  30.630  13.353  1.00  0.00    -0.358 N 
BRANCH  28  29
HETATM   29  C12 UNL     1      22.470  29.253  13.042  1.00  0.00     0.162 C 
BRANCH  29  30
HETATM   30  C13 UNL     1      21.553  28.653  12.045  1.00  0.00     0.160 C 
HETATM   31  C14 UNL     1      20.905  27.362  12.376  1.00  0.00     0.160 C 
HETATM   32  N3  UNL     1      20.346  27.029  11.088  1.00  0.00    -0.347 N 
HETATM   33  C19 UNL     1      21.291  27.525  10.133  1.00  0.00     0.295 C 
HETATM   34  O1  UNL     1      22.143  28.395  10.814  1.00  0.00    -0.363 OA
BRANCH  32  35
HETATM   35  C15 UNL     1      19.129  26.366  10.857  1.00  0.00     0.082 C 
HETATM   36  N4  UNL     1      18.995  25.096  10.696  1.00  0.00    -0.321 N 
HETATM   37  C18 UNL     1      19.966  24.109  10.710  1.00  0.00     0.187 C 
ATOM     38  H4  UNL     1      18.041  24.772  10.535  1.00  0.00     0.169 HD
HETATM   39  N5  UNL     1      20.375  23.603  11.817  1.00  0.00    -0.373 N 
HETATM   40  N6  UNL     1      20.530  23.632   9.502  1.00  0.00    -0.064 NA
ATOM     41  H52 UNL     1      19.969  23.947  12.688  1.00  0.00     0.158 HD
ATOM     42  H51 UNL     1      21.090  22.877  11.828  1.00  0.00     0.158 HD
BRANCH  35  43
HETATM   43  C16 UNL     1      17.830  27.140  10.777  1.00  0.00     0.072 C 
HETATM   44  C17 UNL     1      17.009  26.964  12.010  1.00  0.00     0.013 C 
ENDBRANCH  35  43
ENDBRANCH  32  35
ENDBRANCH  29  30
ENDBRANCH  28  29
ENDBRANCH  23  24
ENDBRANCH   1  23
TORSDOF 15
ENDMDL
