MODEL 1
REMARK VINA RESULT: -9.948687006      0.000      0.000
REMARK  13 active torsions:
REMARK  status: ('A' for Active; 'I' for Inactive)
REMARK    1  A    between atoms: C2_2  and  C3_3 
REMARK    2  A    between atoms: C4_4  and  C5_5 
REMARK    3  A    between atoms: C5_5  and  C6_6 
REMARK    4  A    between atoms: C6_6  and  C7_7 
REMARK    5  A    between atoms: C7_7  and  C8_8 
REMARK    6  A    between atoms: C8_8  and  C9_9 
REMARK    7  A    between atoms: N4_25  and  C18_26 
REMARK    8  A    between atoms: C18_26  and  C19_27 
REMARK    9  A    between atoms: C19_27  and  N5_28 
REMARK   10  A    between atoms: N5_28  and  N6_30 
REMARK   11  A    between atoms: C21_35  and  C22_36 
REMARK       I    between atoms: C22_36  and  N8_38 
REMARK   12  A    between atoms: N8_38  and  C23_40 
REMARK   13  A    between atoms: C23_40  and  C24_41 
ROOT
HETATM    1  C3  UNL     1      21.098  30.894  14.688  1.00  0.00     0.053 A 
HETATM    2  C4  UNL     1      20.432  29.730  15.055  1.00  0.00     0.051 A 
HETATM    3  N2  UNL     1      20.044  29.943  16.354  1.00  0.00    -0.288 N 
ATOM      4  H2  UNL     1      19.529  29.283  16.936  1.00  0.00     0.188 HD
HETATM    5  N3  UNL     1      20.441  31.126  16.721  1.00  0.00    -0.240 N 
ATOM      6  H3  UNL     1      20.278  31.527  17.644  1.00  0.00     0.208 HD
HETATM    7  N4  UNL     1      21.086  31.742  15.741  1.00  0.00    -0.279 N 
ENDROOT
BRANCH   7   8
HETATM    8  C18 UNL     1      21.640  33.074  15.810  1.00  0.00     0.171 C 
BRANCH   8   9
HETATM    9  C19 UNL     1      22.281  33.299  17.201  1.00  0.00     0.163 C 
BRANCH   9  10
HETATM   10  N5  UNL     1      21.450  34.083  18.011  1.00  0.00    -0.306 N 
ATOM     11  H5  UNL     1      21.032  33.555  18.777  1.00  0.00     0.182 HD
BRANCH  10  12
HETATM   12  N6  UNL     1      21.070  35.406  18.007  1.00  0.00    -0.137 N 
HETATM   13  O2  UNL     1      21.993  36.394  18.153  1.00  0.00    -0.209 OA
HETATM   14  C20 UNL     1      21.432  37.550  18.112  1.00  0.00     0.263 A 
HETATM   15  N7  UNL     1      20.130  37.337  17.937  1.00  0.00    -0.324 N 
HETATM   16  C21 UNL     1      19.893  35.965  17.872  1.00  0.00     0.221 A 
ATOM     17  H7  UNL     1      19.417  38.063  17.863  1.00  0.00     0.169 HD
BRANCH  16  18
HETATM   18  C22 UNL     1      18.547  35.431  17.738  1.00  0.00     0.289 C 
HETATM   19  O3  UNL     1      17.869  34.861  18.596  1.00  0.00    -0.264 OA
HETATM   20  N8  UNL     1      17.966  35.610  16.414  1.00  0.00    -0.354 N 
ATOM     21  H8  UNL     1      18.486  36.081  15.673  1.00  0.00     0.162 HD
BRANCH  20  22
HETATM   22  C23 UNL     1      16.641  35.107  16.182  1.00  0.00     0.127 C 
BRANCH  22  23
HETATM   23  C24 UNL     1      16.661  33.912  15.300  1.00  0.00     0.003 C 
HETATM   24  C25 UNL     1      18.071  33.689  14.740  1.00  0.00     0.006 C 
HETATM   25  C26 UNL     1      17.946  32.662  13.633  1.00  0.00     0.000 C 
HETATM   26  C27 UNL     1      17.079  31.494  14.068  1.00  0.00     0.000 C 
HETATM   27  C28 UNL     1      16.932  31.444  15.568  1.00  0.00     0.000 C 
HETATM   28  C29 UNL     1      16.315  32.690  16.154  1.00  0.00     0.006 C 
ENDBRANCH  22  23
ENDBRANCH  20  22
ENDBRANCH  16  18
ENDBRANCH  10  12
ENDBRANCH   9  10
ENDBRANCH   8   9
ENDBRANCH   7   8
BRANCH   1  29
HETATM   29  C2  UNL     1      21.781  31.175  13.409  1.00  0.00     0.056 C 
HETATM   30  C1  UNL     1      20.893  31.466  12.246  1.00  0.00     0.011 C 
ENDBRANCH   1  29
BRANCH   2  31
HETATM   31  C5  UNL     1      20.111  28.549  14.282  1.00  0.00     0.061 C 
BRANCH  31  32
HETATM   32  C6  UNL     1      18.811  28.378  13.656  1.00  0.00     0.006 C 
BRANCH  32  33
HETATM   33  C7  UNL     1      18.494  28.505  12.240  1.00  0.00     0.002 C 
BRANCH  33  34
HETATM   34  C8  UNL     1      18.531  27.257  11.454  1.00  0.00     0.025 C 
BRANCH  34  35
HETATM   35  C9  UNL     1      19.865  27.026  10.759  1.00  0.00     0.084 C 
HETATM   36  C10 UNL     1      20.651  28.264  10.588  1.00  0.00     0.026 C 
HETATM   37  C11 UNL     1      22.007  28.049   9.950  1.00  0.00     0.021 C 
HETATM   38  C12 UNL     1      22.823  26.994  10.600  1.00  0.00     0.041 C 
HETATM   39  C13 UNL     1      23.767  26.421   9.565  1.00  0.00     0.019 C 
HETATM   40  C16 UNL     1      23.680  27.503  11.731  1.00  0.00     0.019 C 
HETATM   41  C17 UNL     1      22.002  25.874  11.135  1.00  0.00     0.226 C 
HETATM   42  C14 UNL     1      25.155  26.801  10.045  1.00  0.00     0.001 C 
HETATM   43  C15 UNL     1      24.990  26.729  11.562  1.00  0.00     0.001 C 
HETATM   44  O1  UNL     1      22.563  24.766  11.263  1.00  0.00    -0.273 OA
HETATM   45  N1  UNL     1      20.636  26.047  11.488  1.00  0.00    -0.356 N 
ATOM     46  H1  UNL     1      20.213  25.495  12.235  1.00  0.00     0.162 HD
ENDBRANCH  34  35
ENDBRANCH  33  34
ENDBRANCH  32  33
ENDBRANCH  31  32
ENDBRANCH   2  31
TORSDOF 13
ENDMDL
MODEL 2
REMARK VINA RESULT: -9.623504003      1.765      2.589
REMARK  13 active torsions:
REMARK  status: ('A' for Active; 'I' for Inactive)
REMARK    1  A    between atoms: C2_2  and  C3_3 
REMARK    2  A    between atoms: C4_4  and  C5_5 
REMARK    3  A    between atoms: C5_5  and  C6_6 
REMARK    4  A    between atoms: C6_6  and  C7_7 
REMARK    5  A    between atoms: C7_7  and  C8_8 
REMARK    6  A    between atoms: C8_8  and  C9_9 
REMARK    7  A    between atoms: N4_25  and  C18_26 
REMARK    8  A    between atoms: C18_26  and  C19_27 
REMARK    9  A    between atoms: C19_27  and  N5_28 
REMARK   10  A    between atoms: N5_28  and  N6_30 
REMARK   11  A    between atoms: C21_35  and  C22_36 
REMARK       I    between atoms: C22_36  and  N8_38 
REMARK   12  A    between atoms: N8_38  and  C23_40 
REMARK   13  A    between atoms: C23_40  and  C24_41 
ROOT
HETATM    1  C3  UNL     1      20.032  29.900  13.365  1.00  0.00     0.053 A 
HETATM    2  C4  UNL     1      19.159  28.983  13.939  1.00  0.00     0.051 A 
HETATM    3  N2  UNL     1      19.841  28.480  15.020  1.00  0.00    -0.288 N 
ATOM      4  H2  UNL     1      19.489  27.775  15.668  1.00  0.00     0.188 HD
HETATM    5  N3  UNL     1      21.007  29.050  15.081  1.00  0.00    -0.240 N 
ATOM      6  H3  UNL     1      21.709  28.852  15.795  1.00  0.00     0.208 HD
HETATM    7  N4  UNL     1      21.169  29.922  14.096  1.00  0.00    -0.279 N 
ENDROOT
BRANCH   7   8
HETATM    8  C18 UNL     1      22.341  30.739  13.885  1.00  0.00     0.171 C 
BRANCH   8   9
HETATM    9  C19 UNL     1      22.566  31.652  15.114  1.00  0.00     0.163 C 
BRANCH   9  10
HETATM   10  N5  UNL     1      22.400  33.000  14.770  1.00  0.00    -0.306 N 
ATOM     11  H5  UNL     1      22.773  33.220  13.847  1.00  0.00     0.182 HD
BRANCH  10  12
HETATM   12  N6  UNL     1      21.848  34.094  15.397  1.00  0.00    -0.137 N 
HETATM   13  O2  UNL     1      22.633  35.119  15.822  1.00  0.00    -0.209 OA
HETATM   14  C20 UNL     1      21.921  36.040  16.369  1.00  0.00     0.263 A 
HETATM   15  N7  UNL     1      20.656  35.630  16.311  1.00  0.00    -0.324 N 
HETATM   16  C21 UNL     1      20.605  34.383  15.691  1.00  0.00     0.221 A 
ATOM     17  H7  UNL     1      19.851  36.148  16.664  1.00  0.00     0.169 HD
BRANCH  16  18
HETATM   18  C22 UNL     1      19.352  33.662  15.536  1.00  0.00     0.289 C 
HETATM   19  O3  UNL     1      19.108  32.492  15.841  1.00  0.00    -0.264 OA
HETATM   20  N8  UNL     1      18.281  34.453  14.944  1.00  0.00    -0.354 N 
ATOM     21  H8  UNL     1      18.433  35.427  14.681  1.00  0.00     0.162 HD
BRANCH  20  22
HETATM   22  C23 UNL     1      17.006  33.824  14.743  1.00  0.00     0.127 C 
BRANCH  22  23
HETATM   23  C24 UNL     1      15.957  34.435  15.600  1.00  0.00     0.003 C 
HETATM   24  C25 UNL     1      15.970  33.793  16.993  1.00  0.00     0.006 C 
HETATM   25  C26 UNL     1      14.702  34.240  17.692  1.00  0.00     0.000 C 
HETATM   26  C27 UNL     1      14.478  35.731  17.515  1.00  0.00     0.000 C 
HETATM   27  C28 UNL     1      15.741  36.432  17.083  1.00  0.00     0.000 C 
HETATM   28  C29 UNL     1      16.300  35.915  15.781  1.00  0.00     0.006 C 
ENDBRANCH  22  23
ENDBRANCH  20  22
ENDBRANCH  16  18
ENDBRANCH  10  12
ENDBRANCH   9  10
ENDBRANCH   8   9
ENDBRANCH   7   8
BRANCH   1  29
HETATM   29  C2  UNL     1      19.829  30.685  12.130  1.00  0.00     0.056 C 
HETATM   30  C1  UNL     1      19.392  32.098  12.320  1.00  0.00     0.011 C 
ENDBRANCH   1  29
BRANCH   2  31
HETATM   31  C5  UNL     1      17.800  28.633  13.586  1.00  0.00     0.061 C 
BRANCH  31  32
HETATM   32  C6  UNL     1      17.461  27.316  13.074  1.00  0.00     0.006 C 
BRANCH  32  33
HETATM   33  C7  UNL     1      17.391  26.908  11.678  1.00  0.00     0.002 C 
BRANCH  33  34
HETATM   34  C8  UNL     1      18.134  25.684  11.322  1.00  0.00     0.025 C 
BRANCH  34  35
HETATM   35  C9  UNL     1      19.482  25.968  10.676  1.00  0.00     0.084 C 
HETATM   36  C10 UNL     1      19.782  27.410  10.572  1.00  0.00     0.026 C 
HETATM   37  C11 UNL     1      21.144  27.714   9.985  1.00  0.00     0.021 C 
HETATM   38  C12 UNL     1      22.262  26.991  10.638  1.00  0.00     0.041 C 
HETATM   39  C13 UNL     1      23.377  26.831   9.626  1.00  0.00     0.019 C 
HETATM   40  C16 UNL     1      22.851  27.724  11.816  1.00  0.00     0.019 C 
HETATM   41  C17 UNL     1      21.877  25.632  11.107  1.00  0.00     0.226 C 
HETATM   42  C14 UNL     1      24.526  27.658  10.173  1.00  0.00     0.001 C 
HETATM   43  C15 UNL     1      24.354  27.470  11.679  1.00  0.00     0.001 C 
HETATM   44  O1  UNL     1      22.791  24.790  11.227  1.00  0.00    -0.273 OA
HETATM   45  N1  UNL     1      20.530  25.296  11.409  1.00  0.00    -0.356 N 
ATOM     46  H1  UNL     1      20.309  24.601  12.122  1.00  0.00     0.162 HD
ENDBRANCH  34  35
ENDBRANCH  33  34
ENDBRANCH  32  33
ENDBRANCH  31  32
ENDBRANCH   2  31
TORSDOF 13
ENDMDL
MODEL 3
REMARK VINA RESULT: -9.512086418      2.258      4.808
REMARK  13 active torsions:
REMARK  status: ('A' for Active; 'I' for Inactive)
REMARK    1  A    between atoms: C2_2  and  C3_3 
REMARK    2  A    between atoms: C4_4  and  C5_5 
REMARK    3  A    between atoms: C5_5  and  C6_6 
REMARK    4  A    between atoms: C6_6  and  C7_7 
REMARK    5  A    between atoms: C7_7  and  C8_8 
REMARK    6  A    between atoms: C8_8  and  C9_9 
REMARK    7  A    between atoms: N4_25  and  C18_26 
REMARK    8  A    between atoms: C18_26  and  C19_27 
REMARK    9  A    between atoms: C19_27  and  N5_28 
REMARK   10  A    between atoms: N5_28  and  N6_30 
REMARK   11  A    between atoms: C21_35  and  C22_36 
REMARK       I    between atoms: C22_36  and  N8_38 
REMARK   12  A    between atoms: N8_38  and  C23_40 
REMARK   13  A    between atoms: C23_40  and  C24_41 
ROOT
HETATM    1  C3  UNL     1      16.901  34.384  16.784  1.00  0.00     0.053 A 
HETATM    2  C4  UNL     1      18.071  33.650  16.939  1.00  0.00     0.051 A 
HETATM    3  N2  UNL     1      18.634  34.128  18.096  1.00  0.00    -0.288 N 
ATOM      4  H2  UNL     1      19.510  33.808  18.507  1.00  0.00     0.188 HD
HETATM    5  N3  UNL     1      17.865  35.058  18.582  1.00  0.00    -0.240 N 
ATOM      6  H3  UNL     1      18.058  35.574  19.440  1.00  0.00     0.208 HD
HETATM    7  N4  UNL     1      16.799  35.248  17.818  1.00  0.00    -0.279 N 
ENDROOT
BRANCH   7   8
HETATM    8  C18 UNL     1      15.737  36.191  18.083  1.00  0.00     0.171 C 
BRANCH   8   9
HETATM    9  C19 UNL     1      16.126  37.581  17.526  1.00  0.00     0.163 C 
BRANCH   9  10
HETATM   10  N5  UNL     1      17.456  37.888  17.838  1.00  0.00    -0.306 N 
ATOM     11  H5  UNL     1      17.743  37.524  18.747  1.00  0.00     0.182 HD
BRANCH  10  12
HETATM   12  N6  UNL     1      18.465  38.569  17.195  1.00  0.00    -0.137 N 
HETATM   13  O2  UNL     1      18.200  39.705  16.498  1.00  0.00    -0.209 OA
HETATM   14  C20 UNL     1      19.277  40.186  15.985  1.00  0.00     0.263 A 
HETATM   15  N7  UNL     1      20.266  39.370  16.339  1.00  0.00    -0.324 N 
HETATM   16  C21 UNL     1      19.751  38.331  17.112  1.00  0.00     0.221 A 
ATOM     17  H7  UNL     1      21.247  39.485  16.085  1.00  0.00     0.169 HD
BRANCH  16  18
HETATM   18  C22 UNL     1      20.595  37.252  17.598  1.00  0.00     0.289 C 
HETATM   19  O3  UNL     1      20.441  36.567  18.612  1.00  0.00    -0.264 OA
HETATM   20  N8  UNL     1      21.752  36.978  16.756  1.00  0.00    -0.354 N 
ATOM     21  H8  UNL     1      21.918  37.513  15.903  1.00  0.00     0.162 HD
BRANCH  20  22
HETATM   22  C23 UNL     1      22.651  35.933  17.159  1.00  0.00     0.127 C 
BRANCH  22  23
HETATM   23  C24 UNL     1      22.472  34.713  16.330  1.00  0.00     0.003 C 
HETATM   24  C25 UNL     1      23.824  34.237  15.785  1.00  0.00     0.006 C 
HETATM   25  C26 UNL     1      23.528  33.197  14.724  1.00  0.00     0.000 C 
HETATM   26  C27 UNL     1      22.483  32.207  15.207  1.00  0.00     0.000 C 
HETATM   27  C28 UNL     1      22.336  32.247  16.707  1.00  0.00     0.000 C 
HETATM   28  C29 UNL     1      21.934  33.602  17.236  1.00  0.00     0.006 C 
ENDBRANCH  22  23
ENDBRANCH  20  22
ENDBRANCH  16  18
ENDBRANCH  10  12
ENDBRANCH   9  10
ENDBRANCH   8   9
ENDBRANCH   7   8
BRANCH   1  29
HETATM   29  C2  UNL     1      15.941  34.322  15.662  1.00  0.00     0.056 C 
HETATM   30  C1  UNL     1      16.380  34.971  14.393  1.00  0.00     0.011 C 
ENDBRANCH   1  29
BRANCH   2  31
HETATM   31  C5  UNL     1      18.609  32.563  16.149  1.00  0.00     0.061 C 
BRANCH  31  32
HETATM   32  C6  UNL     1      17.891  31.309  15.990  1.00  0.00     0.006 C 
BRANCH  32  33
HETATM   33  C7  UNL     1      17.388  30.736  14.751  1.00  0.00     0.002 C 
BRANCH  33  34
HETATM   34  C8  UNL     1      17.587  31.547  13.534  1.00  0.00     0.025 C 
BRANCH  34  35
HETATM   35  C9  UNL     1      18.613  30.953  12.580  1.00  0.00     0.084 C 
HETATM   36  C10 UNL     1      19.907  31.663  12.606  1.00  0.00     0.026 C 
HETATM   37  C11 UNL     1      20.961  31.053  11.707  1.00  0.00     0.021 C 
HETATM   38  C12 UNL     1      21.158  29.596  11.902  1.00  0.00     0.041 C 
HETATM   39  C13 UNL     1      21.668  29.009  10.604  1.00  0.00     0.019 C 
HETATM   40  C16 UNL     1      22.180  29.260  12.958  1.00  0.00     0.019 C 
HETATM   41  C17 UNL     1      19.900  28.885  12.259  1.00  0.00     0.226 C 
HETATM   42  C14 UNL     1      23.072  28.524  10.916  1.00  0.00     0.001 C 
HETATM   43  C15 UNL     1      22.926  28.063  12.365  1.00  0.00     0.001 C 
HETATM   44  O1  UNL     1      19.838  27.667  11.991  1.00  0.00    -0.273 OA
HETATM   45  N1  UNL     1      18.810  29.553  12.879  1.00  0.00    -0.356 N 
ATOM     46  H1  UNL     1      18.185  29.060  13.516  1.00  0.00     0.162 HD
ENDBRANCH  34  35
ENDBRANCH  33  34
ENDBRANCH  32  33
ENDBRANCH  31  32
ENDBRANCH   2  31
TORSDOF 13
ENDMDL
MODEL 4
REMARK VINA RESULT: -9.402568579      3.030      8.988
REMARK  13 active torsions:
REMARK  status: ('A' for Active; 'I' for Inactive)
REMARK    1  A    between atoms: C2_2  and  C3_3 
REMARK    2  A    between atoms: C4_4  and  C5_5 
REMARK    3  A    between atoms: C5_5  and  C6_6 
REMARK    4  A    between atoms: C6_6  and  C7_7 
REMARK    5  A    between atoms: C7_7  and  C8_8 
REMARK    6  A    between atoms: C8_8  and  C9_9 
REMARK    7  A    between atoms: N4_25  and  C18_26 
REMARK    8  A    between atoms: C18_26  and  C19_27 
REMARK    9  A    between atoms: C19_27  and  N5_28 
REMARK   10  A    between atoms: N5_28  and  N6_30 
REMARK   11  A    between atoms: C21_35  and  C22_36 
REMARK       I    between atoms: C22_36  and  N8_38 
REMARK   12  A    between atoms: N8_38  and  C23_40 
REMARK   13  A    between atoms: C23_40  and  C24_41 
ROOT
HETATM    1  C3  UNL     1      17.934  26.122  10.019  1.00  0.00     0.053 A 
HETATM    2  C4  UNL     1      17.371  26.852  11.059  1.00  0.00     0.051 A 
HETATM    3  N2  UNL     1      18.048  26.443  12.181  1.00  0.00    -0.288 N 
ATOM      4  H2  UNL     1      17.884  26.780  13.129  1.00  0.00     0.188 HD
HETATM    5  N3  UNL     1      18.931  25.554  11.835  1.00  0.00    -0.240 N 
ATOM      6  H3  UNL     1      19.567  25.090  12.485  1.00  0.00     0.208 HD
HETATM    7  N4  UNL     1      18.900  25.326  10.530  1.00  0.00    -0.279 N 
ENDROOT
BRANCH   7   8
HETATM    8  C18 UNL     1      19.763  24.412   9.818  1.00  0.00     0.171 C 
BRANCH   8   9
HETATM    9  C19 UNL     1      21.110  25.106   9.507  1.00  0.00     0.163 C 
BRANCH   9  10
HETATM   10  N5  UNL     1      21.993  24.988  10.587  1.00  0.00    -0.306 N 
ATOM     11  H5  UNL     1      21.800  24.170  11.167  1.00  0.00     0.182 HD
BRANCH  10  12
HETATM   12  N6  UNL     1      23.062  25.724  11.044  1.00  0.00    -0.137 N 
HETATM   13  O2  UNL     1      24.325  25.225  10.984  1.00  0.00    -0.209 OA
HETATM   14  C20 UNL     1      25.172  26.072  11.451  1.00  0.00     0.263 A 
HETATM   15  N7  UNL     1      24.475  27.142  11.826  1.00  0.00    -0.324 N 
HETATM   16  C21 UNL     1      23.123  26.923  11.570  1.00  0.00     0.221 A 
ATOM     17  H7  UNL     1      24.868  27.989  12.236  1.00  0.00     0.169 HD
BRANCH  16  18
HETATM   18  C22 UNL     1      22.111  27.904  11.928  1.00  0.00     0.289 C 
HETATM   19  O3  UNL     1      20.892  27.833  11.755  1.00  0.00    -0.264 OA
HETATM   20  N8  UNL     1      22.644  29.100  12.566  1.00  0.00    -0.354 N 
ATOM     21  H8  UNL     1      23.645  29.202  12.736  1.00  0.00     0.162 HD
BRANCH  20  22
HETATM   22  C23 UNL     1      21.721  30.132  12.950  1.00  0.00     0.127 C 
BRANCH  22  23
HETATM   23  C24 UNL     1      22.214  30.890  14.128  1.00  0.00     0.003 C 
HETATM   24  C25 UNL     1      22.550  32.332  13.729  1.00  0.00     0.006 C 
HETATM   25  C26 UNL     1      23.319  32.939  14.885  1.00  0.00     0.000 C 
HETATM   26  C27 UNL     1      22.649  32.626  16.211  1.00  0.00     0.000 C 
HETATM   27  C28 UNL     1      21.219  32.187  16.017  1.00  0.00     0.000 C 
HETATM   28  C29 UNL     1      21.080  30.957  15.154  1.00  0.00     0.006 C 
ENDBRANCH  22  23
ENDBRANCH  20  22
ENDBRANCH  16  18
ENDBRANCH  10  12
ENDBRANCH   9  10
ENDBRANCH   8   9
ENDBRANCH   7   8
BRANCH   1  29
HETATM   29  C2  UNL     1      17.532  26.123   8.597  1.00  0.00     0.056 C 
HETATM   30  C1  UNL     1      18.079  27.234   7.766  1.00  0.00     0.011 C 
ENDBRANCH   1  29
BRANCH   2  31
HETATM   31  C5  UNL     1      16.354  27.883  11.040  1.00  0.00     0.061 C 
BRANCH  31  32
HETATM   32  C6  UNL     1      16.686  29.284  11.233  1.00  0.00     0.006 C 
BRANCH  32  33
HETATM   33  C7  UNL     1      18.013  29.884  11.209  1.00  0.00     0.002 C 
BRANCH  33  34
HETATM   34  C8  UNL     1      18.569  30.280  12.517  1.00  0.00     0.025 C 
BRANCH  34  35
HETATM   35  C9  UNL     1      17.579  31.047  13.381  1.00  0.00     0.084 C 
HETATM   36  C10 UNL     1      17.476  30.515  14.755  1.00  0.00     0.026 C 
HETATM   37  C11 UNL     1      16.539  31.298  15.649  1.00  0.00     0.021 C 
HETATM   38  C12 UNL     1      16.799  32.758  15.670  1.00  0.00     0.041 C 
HETATM   39  C13 UNL     1      15.501  33.465  15.999  1.00  0.00     0.019 C 
HETATM   40  C16 UNL     1      17.798  33.180  16.717  1.00  0.00     0.019 C 
HETATM   41  C17 UNL     1      17.281  33.280  14.361  1.00  0.00     0.226 C 
HETATM   42  C14 UNL     1      15.740  34.118  17.348  1.00  0.00     0.001 C 
HETATM   43  C15 UNL     1      17.218  34.491  17.254  1.00  0.00     0.001 C 
HETATM   44  O1  UNL     1      17.083  34.489  14.122  1.00  0.00    -0.273 OA
HETATM   45  N1  UNL     1      17.938  32.445  13.418  1.00  0.00    -0.356 N 
ATOM     46  H1  UNL     1      18.643  32.823  12.785  1.00  0.00     0.162 HD
ENDBRANCH  34  35
ENDBRANCH  33  34
ENDBRANCH  32  33
ENDBRANCH  31  32
ENDBRANCH   2  31
TORSDOF 13
ENDMDL
MODEL 5
REMARK VINA RESULT: -9.347224368      2.192      4.346
REMARK  13 active torsions:
REMARK  status: ('A' for Active; 'I' for Inactive)
REMARK    1  A    between atoms: C2_2  and  C3_3 
REMARK    2  A    between atoms: C4_4  and  C5_5 
REMARK    3  A    between atoms: C5_5  and  C6_6 
REMARK    4  A    between atoms: C6_6  and  C7_7 
REMARK    5  A    between atoms: C7_7  and  C8_8 
REMARK    6  A    between atoms: C8_8  and  C9_9 
REMARK    7  A    between atoms: N4_25  and  C18_26 
REMARK    8  A    between atoms: C18_26  and  C19_27 
REMARK    9  A    between atoms: C19_27  and  N5_28 
REMARK   10  A    between atoms: N5_28  and  N6_30 
REMARK   11  A    between atoms: C21_35  and  C22_36 
REMARK       I    between atoms: C22_36  and  N8_38 
REMARK   12  A    between atoms: N8_38  and  C23_40 
REMARK   13  A    between atoms: C23_40  and  C24_41 
ROOT
HETATM    1  C3  UNL     1      18.840  30.177  14.664  1.00  0.00     0.053 A 
HETATM    2  C4  UNL     1      19.990  29.563  15.146  1.00  0.00     0.051 A 
HETATM    3  N2  UNL     1      20.037  29.903  16.476  1.00  0.00    -0.288 N 
ATOM      4  H2  UNL     1      20.760  29.619  17.136  1.00  0.00     0.188 HD
HETATM    5  N3  UNL     1      19.008  30.648  16.753  1.00  0.00    -0.240 N 
ATOM      6  H3  UNL     1      18.809  31.034  17.676  1.00  0.00     0.208 HD
HETATM    7  N4  UNL     1      18.251  30.841  15.683  1.00  0.00    -0.279 N 
ENDROOT
BRANCH   7   8
HETATM    8  C18 UNL     1      17.024  31.604  15.651  1.00  0.00     0.171 C 
BRANCH   8   9
HETATM    9  C19 UNL     1      17.348  33.113  15.761  1.00  0.00     0.163 C 
BRANCH   9  10
HETATM   10  N5  UNL     1      17.222  33.553  17.085  1.00  0.00    -0.306 N 
ATOM     11  H5  UNL     1      17.323  32.799  17.764  1.00  0.00     0.182 HD
BRANCH  10  12
HETATM   12  N6  UNL     1      16.993  34.775  17.677  1.00  0.00    -0.137 N 
HETATM   13  O2  UNL     1      15.728  35.250  17.820  1.00  0.00    -0.209 OA
HETATM   14  C20 UNL     1      15.735  36.396  18.403  1.00  0.00     0.263 A 
HETATM   15  N7  UNL     1      17.010  36.690  18.650  1.00  0.00    -0.324 N 
HETATM   16  C21 UNL     1      17.819  35.656  18.184  1.00  0.00     0.221 A 
ATOM     17  H7  UNL     1      17.342  37.539  19.108  1.00  0.00     0.169 HD
BRANCH  16  18
HETATM   18  C22 UNL     1      19.269  35.726  18.270  1.00  0.00     0.289 C 
HETATM   19  O3  UNL     1      19.974  35.629  19.276  1.00  0.00    -0.264 OA
HETATM   20  N8  UNL     1      19.929  35.936  16.988  1.00  0.00    -0.354 N 
ATOM     21  H8  UNL     1      19.389  36.017  16.127  1.00  0.00     0.162 HD
BRANCH  20  22
HETATM   22  C23 UNL     1      21.363  36.027  16.972  1.00  0.00     0.127 C 
BRANCH  22  23
HETATM   23  C24 UNL     1      21.948  35.178  15.903  1.00  0.00     0.003 C 
HETATM   24  C25 UNL     1      23.098  34.334  16.465  1.00  0.00     0.006 C 
HETATM   25  C26 UNL     1      23.828  33.739  15.277  1.00  0.00     0.000 C 
HETATM   26  C27 UNL     1      22.850  33.163  14.270  1.00  0.00     0.000 C 
HETATM   27  C28 UNL     1      21.489  32.945  14.882  1.00  0.00     0.000 C 
HETATM   28  C29 UNL     1      20.866  34.206  15.427  1.00  0.00     0.006 C 
ENDBRANCH  22  23
ENDBRANCH  20  22
ENDBRANCH  16  18
ENDBRANCH  10  12
ENDBRANCH   9  10
ENDBRANCH   8   9
ENDBRANCH   7   8
BRANCH   1  29
HETATM   29  C2  UNL     1      18.345  30.194  13.271  1.00  0.00     0.056 C 
HETATM   30  C1  UNL     1      18.961  31.214  12.374  1.00  0.00     0.011 C 
ENDBRANCH   1  29
BRANCH   2  31
HETATM   31  C5  UNL     1      20.935  28.687  14.486  1.00  0.00     0.061 C 
BRANCH  31  32
HETATM   32  C6  UNL     1      21.911  29.196  13.538  1.00  0.00     0.006 C 
BRANCH  32  33
HETATM   33  C7  UNL     1      22.129  28.742  12.172  1.00  0.00     0.002 C 
BRANCH  33  34
HETATM   34  C8  UNL     1      22.402  27.302  12.004  1.00  0.00     0.025 C 
BRANCH  34  35
HETATM   35  C9  UNL     1      21.396  26.603  11.100  1.00  0.00     0.084 C 
HETATM   36  C10 UNL     1      21.722  25.183  10.860  1.00  0.00     0.026 C 
HETATM   37  C11 UNL     1      20.703  24.454  10.010  1.00  0.00     0.021 C 
HETATM   38  C12 UNL     1      19.304  24.600  10.480  1.00  0.00     0.041 C 
HETATM   39  C13 UNL     1      18.385  24.444   9.287  1.00  0.00     0.019 C 
HETATM   40  C16 UNL     1      18.891  23.553  11.483  1.00  0.00     0.019 C 
HETATM   41  C17 UNL     1      19.034  25.930  11.090  1.00  0.00     0.226 C 
HETATM   42  C14 UNL     1      17.599  23.175   9.560  1.00  0.00     0.001 C 
HETATM   43  C15 UNL     1      17.452  23.221  11.080  1.00  0.00     0.001 C 
HETATM   44  O1  UNL     1      17.851  26.331  11.083  1.00  0.00    -0.273 OA
HETATM   45  N1  UNL     1      20.069  26.719  11.659  1.00  0.00    -0.356 N 
ATOM     46  H1  UNL     1      19.881  27.349  12.439  1.00  0.00     0.162 HD
ENDBRANCH  34  35
ENDBRANCH  33  34
ENDBRANCH  32  33
ENDBRANCH  31  32
ENDBRANCH   2  31
TORSDOF 13
ENDMDL
