MODEL 1
REMARK VINA RESULT: -8.732648678      0.000      0.000
REMARK  14 active torsions:
REMARK  status: ('A' for Active; 'I' for Inactive)
REMARK    1  A    between atoms: C2_2  and  C3_3 
REMARK    2  A    between atoms: C3_3  and  C4_4 
REMARK    3  A    between atoms: C4_4  and  C5_5 
REMARK    4  A    between atoms: C5_5  and  C6_6 
REMARK    5  A    between atoms: C6_6  and  C7_7 
REMARK    6  A    between atoms: C7_7  and  C8_8 
REMARK    7  A    between atoms: C8_8  and  N1_9 
REMARK    8  A    between atoms: N2_12  and  C10_13 
REMARK    9  A    between atoms: C10_13  and  C12_15 
REMARK   10  A    between atoms: N3_19  and  C15_20 
REMARK   11  A    between atoms: C15_20  and  C16_21 
REMARK       I    between atoms: C16_21  and  N4_23 
REMARK   12  A    between atoms: N4_23  and  C17_24 
REMARK   13  A    between atoms: N4_23  and  C20_31 
REMARK   14  A    between atoms: C17_24  and  C18_28 
ROOT
HETATM    1  C18 UNL     1      22.779  29.168  12.608  1.00  0.00     0.200 C 
HETATM    2  C19 UNL     1      23.513  28.044  12.092  1.00  0.00     0.066 C 
HETATM    3  N6  UNL     1      24.107  27.154  11.661  1.00  0.00    -0.197 NA
ENDROOT
BRANCH   1   4
HETATM    4  C17 UNL     1      21.390  28.806  13.072  1.00  0.00     0.098 C 
HETATM    5  N5  UNL     1      21.309  28.404  14.277  1.00  0.00    -0.388 N 
ATOM      6  H52 UNL     1      20.370  28.159  14.590  1.00  0.00     0.157 HD
ATOM      7  H51 UNL     1      22.135  28.340  14.872  1.00  0.00     0.157 HD
BRANCH   4   8
HETATM    8  N4  UNL     1      20.256  28.893  12.254  1.00  0.00    -0.262 N 
HETATM    9  C16 UNL     1      19.757  30.158  11.863  1.00  0.00     0.248 C 
HETATM   10  O3  UNL     1      18.653  30.256  11.217  1.00  0.00    -0.271 OA
BRANCH   9  11
HETATM   11  C15 UNL     1      20.466  31.392  12.166  1.00  0.00     0.233 C 
BRANCH  11  12
HETATM   12  N3  UNL     1      20.267  31.875  13.531  1.00  0.00    -0.304 N 
HETATM   13  C14 UNL     1      21.238  32.659  14.214  1.00  0.00     0.331 C 
HETATM   14  N2  UNL     1      20.859  33.615  15.218  1.00  0.00    -0.247 N 
HETATM   15  O2  UNL     1      22.454  32.472  13.893  1.00  0.00    -0.246 OA
HETATM   16  C9  UNL     1      19.462  33.724  15.485  1.00  0.00     0.330 C 
HETATM   17  N1  UNL     1      18.564  32.904  14.764  1.00  0.00    -0.312 N 
HETATM   18  O1  UNL     1      19.064  34.531  16.335  1.00  0.00    -0.246 OA
HETATM   19  C25 UNL     1      19.040  31.591  14.280  1.00  0.00     0.192 C 
HETATM   20  C26 UNL     1      19.383  30.802  15.523  1.00  0.00     0.056 C 
BRANCH  14  21
HETATM   21  C10 UNL     1      21.882  34.356  15.857  1.00  0.00     0.095 C 
HETATM   22  C11 UNL     1      21.634  35.821  15.999  1.00  0.00     0.033 C 
BRANCH  21  23
HETATM   23  C12 UNL     1      22.135  33.790  17.250  1.00  0.00     0.021 C 
HETATM   24  C13 UNL     1      22.379  34.931  18.224  1.00  0.00     0.007 C 
ENDBRANCH  21  23
ENDBRANCH  14  21
BRANCH  17  25
HETATM   25  C8  UNL     1      17.217  33.341  14.513  1.00  0.00     0.130 C 
BRANCH  25  26
HETATM   26  C7  UNL     1      16.178  32.419  15.086  1.00  0.00     0.020 C 
BRANCH  26  27
HETATM   27  C6  UNL     1      15.602  32.996  16.349  1.00  0.00     0.002 C 
BRANCH  27  28
HETATM   28  C5  UNL     1      15.459  34.479  16.242  1.00  0.00     0.000 C 
BRANCH  28  29
HETATM   29  C4  UNL     1      14.694  35.038  17.438  1.00  0.00     0.000 C 
BRANCH  29  30
HETATM   30  C3  UNL     1      15.165  36.414  17.728  1.00  0.00    -0.000 C 
BRANCH  30  31
HETATM   31  C2  UNL     1      16.310  36.834  16.862  1.00  0.00    -0.005 C 
HETATM   32  C1  UNL     1      16.650  38.284  17.141  1.00  0.00     0.005 C 
ENDBRANCH  30  31
ENDBRANCH  29  30
ENDBRANCH  28  29
ENDBRANCH  27  28
ENDBRANCH  26  27
ENDBRANCH  25  26
ENDBRANCH  17  25
ENDBRANCH  11  12
ENDBRANCH   9  11
BRANCH   8  33
HETATM   33  C20 UNL     1      19.546  27.746  11.795  1.00  0.00     0.134 A 
HETATM   34  C21 UNL     1      18.460  27.283  12.481  1.00  0.00     0.043 A 
HETATM   35  C22 UNL     1      18.020  28.000  13.693  1.00  0.00     0.071 C 
HETATM   36  N7  UNL     1      17.802  26.165  12.026  1.00  0.00    -0.310 N 
HETATM   37  C23 UNL     1      18.225  25.535  10.915  1.00  0.00     0.327 A 
ATOM     38  H7  UNL     1      16.990  25.812  12.533  1.00  0.00     0.170 HD
HETATM   39  O4  UNL     1      17.624  24.506  10.492  1.00  0.00    -0.247 OA
HETATM   40  N8  UNL     1      19.275  25.966  10.233  1.00  0.00    -0.274 N 
HETATM   41  C24 UNL     1      19.943  27.074  10.667  1.00  0.00     0.278 A 
ATOM     42  H8  UNL     1      19.582  25.475   9.393  1.00  0.00     0.173 HD
HETATM   43  O5  UNL     1      20.916  27.441   9.997  1.00  0.00    -0.265 OA
ENDBRANCH   8  33
ENDBRANCH   4   8
ENDBRANCH   1   4
TORSDOF 14
ENDMDL
MODEL 2
REMARK VINA RESULT: -8.724845598      2.282      9.118
REMARK  14 active torsions:
REMARK  status: ('A' for Active; 'I' for Inactive)
REMARK    1  A    between atoms: C2_2  and  C3_3 
REMARK    2  A    between atoms: C3_3  and  C4_4 
REMARK    3  A    between atoms: C4_4  and  C5_5 
REMARK    4  A    between atoms: C5_5  and  C6_6 
REMARK    5  A    between atoms: C6_6  and  C7_7 
REMARK    6  A    between atoms: C7_7  and  C8_8 
REMARK    7  A    between atoms: C8_8  and  N1_9 
REMARK    8  A    between atoms: N2_12  and  C10_13 
REMARK    9  A    between atoms: C10_13  and  C12_15 
REMARK   10  A    between atoms: N3_19  and  C15_20 
REMARK   11  A    between atoms: C15_20  and  C16_21 
REMARK       I    between atoms: C16_21  and  N4_23 
REMARK   12  A    between atoms: N4_23  and  C17_24 
REMARK   13  A    between atoms: N4_23  and  C20_31 
REMARK   14  A    between atoms: C17_24  and  C18_28 
ROOT
HETATM    1  C18 UNL     1      23.062  32.646  14.053  1.00  0.00     0.200 C 
HETATM    2  C19 UNL     1      23.862  33.475  14.914  1.00  0.00     0.066 C 
HETATM    3  N6  UNL     1      24.521  34.130  15.597  1.00  0.00    -0.197 NA
ENDROOT
BRANCH   1   4
HETATM    4  C17 UNL     1      21.890  32.014  14.761  1.00  0.00     0.098 C 
HETATM    5  N5  UNL     1      22.183  31.052  15.541  1.00  0.00    -0.388 N 
ATOM      6  H52 UNL     1      21.390  30.625  16.019  1.00  0.00     0.157 HD
ATOM      7  H51 UNL     1      23.148  30.747  15.669  1.00  0.00     0.157 HD
BRANCH   4   8
HETATM    8  N4  UNL     1      20.565  32.433  14.585  1.00  0.00    -0.262 N 
HETATM    9  C16 UNL     1      19.903  32.200  13.356  1.00  0.00     0.248 C 
HETATM   10  O3  UNL     1      18.735  32.684  13.139  1.00  0.00    -0.271 OA
BRANCH   9  11
HETATM   11  C15 UNL     1      20.505  31.406  12.296  1.00  0.00     0.233 C 
BRANCH  11  12
HETATM   12  N3  UNL     1      20.057  30.014  12.265  1.00  0.00    -0.304 N 
HETATM   13  C14 UNL     1      18.960  29.582  11.471  1.00  0.00     0.331 C 
HETATM   14  N2  UNL     1      18.891  28.244  10.950  1.00  0.00    -0.247 N 
HETATM   15  O2  UNL     1      18.045  30.436  11.243  1.00  0.00    -0.246 OA
HETATM   16  C9  UNL     1      19.982  27.386  11.282  1.00  0.00     0.330 C 
HETATM   17  N1  UNL     1      21.030  27.894  12.082  1.00  0.00    -0.312 N 
HETATM   18  O1  UNL     1      19.991  26.220  10.864  1.00  0.00    -0.246 OA
HETATM   19  C25 UNL     1      20.725  28.970  13.047  1.00  0.00     0.192 C 
HETATM   20  C26 UNL     1      19.741  28.369  14.024  1.00  0.00     0.056 C 
BRANCH  14  21
HETATM   21  C10 UNL     1      17.766  27.886  10.170  1.00  0.00     0.095 C 
HETATM   22  C11 UNL     1      18.030  27.640   8.722  1.00  0.00     0.033 C 
BRANCH  21  23
HETATM   23  C12 UNL     1      17.119  26.630  10.745  1.00  0.00     0.021 C 
HETATM   24  C13 UNL     1      16.447  26.966  12.066  1.00  0.00     0.007 C 
ENDBRANCH  21  23
ENDBRANCH  14  21
BRANCH  17  25
HETATM   25  C8  UNL     1      22.364  27.369  11.957  1.00  0.00     0.130 C 
BRANCH  25  26
HETATM   26  C7  UNL     1      23.431  28.391  12.228  1.00  0.00     0.020 C 
BRANCH  26  27
HETATM   27  C6  UNL     1      24.785  27.846  11.871  1.00  0.00     0.002 C 
BRANCH  27  28
HETATM   28  C5  UNL     1      24.684  26.432  11.400  1.00  0.00     0.000 C 
BRANCH  28  29
HETATM   29  C4  UNL     1      25.694  26.156  10.289  1.00  0.00     0.000 C 
BRANCH  29  30
HETATM   30  C3  UNL     1      24.974  25.896   9.019  1.00  0.00    -0.000 C 
BRANCH  30  31
HETATM   31  C2  UNL     1      23.663  25.204   9.221  1.00  0.00    -0.005 C 
HETATM   32  C1  UNL     1      22.595  25.891   8.396  1.00  0.00     0.005 C 
ENDBRANCH  30  31
ENDBRANCH  29  30
ENDBRANCH  28  29
ENDBRANCH  27  28
ENDBRANCH  26  27
ENDBRANCH  25  26
ENDBRANCH  17  25
ENDBRANCH  11  12
ENDBRANCH   9  11
BRANCH   8  33
HETATM   33  C20 UNL     1      19.831  33.116  15.597  1.00  0.00     0.134 A 
HETATM   34  C21 UNL     1      18.883  32.461  16.328  1.00  0.00     0.043 A 
HETATM   35  C22 UNL     1      18.644  31.029  16.068  1.00  0.00     0.071 C 
HETATM   36  N7  UNL     1      18.177  33.147  17.288  1.00  0.00    -0.310 N 
HETATM   37  C23 UNL     1      18.422  34.452  17.504  1.00  0.00     0.327 A 
ATOM     38  H7  UNL     1      17.467  32.665  17.837  1.00  0.00     0.170 HD
HETATM   39  O4  UNL     1      17.775  35.089  18.385  1.00  0.00    -0.247 OA
HETATM   40  N8  UNL     1      19.337  35.110  16.808  1.00  0.00    -0.274 N 
HETATM   41  C24 UNL     1      20.048  34.447  15.850  1.00  0.00     0.278 A 
ATOM     42  H8  UNL     1      19.508  36.100  16.985  1.00  0.00     0.173 HD
HETATM   43  O5  UNL     1      20.894  35.101  15.227  1.00  0.00    -0.265 OA
ENDBRANCH   8  33
ENDBRANCH   4   8
ENDBRANCH   1   4
TORSDOF 14
ENDMDL
MODEL 3
REMARK VINA RESULT: -8.522322843      2.156      5.093
REMARK  14 active torsions:
REMARK  status: ('A' for Active; 'I' for Inactive)
REMARK    1  A    between atoms: C2_2  and  C3_3 
REMARK    2  A    between atoms: C3_3  and  C4_4 
REMARK    3  A    between atoms: C4_4  and  C5_5 
REMARK    4  A    between atoms: C5_5  and  C6_6 
REMARK    5  A    between atoms: C6_6  and  C7_7 
REMARK    6  A    between atoms: C7_7  and  C8_8 
REMARK    7  A    between atoms: C8_8  and  N1_9 
REMARK    8  A    between atoms: N2_12  and  C10_13 
REMARK    9  A    between atoms: C10_13  and  C12_15 
REMARK   10  A    between atoms: N3_19  and  C15_20 
REMARK   11  A    between atoms: C15_20  and  C16_21 
REMARK       I    between atoms: C16_21  and  N4_23 
REMARK   12  A    between atoms: N4_23  and  C17_24 
REMARK   13  A    between atoms: N4_23  and  C20_31 
REMARK   14  A    between atoms: C17_24  and  C18_28 
ROOT
HETATM    1  C18 UNL     1      18.968  28.489  10.701  1.00  0.00     0.200 C 
HETATM    2  C19 UNL     1      17.545  28.292  10.653  1.00  0.00     0.066 C 
HETATM    3  N6  UNL     1      16.400  28.153  10.622  1.00  0.00    -0.197 NA
ENDROOT
BRANCH   1   4
HETATM    4  C17 UNL     1      19.696  27.388  11.431  1.00  0.00     0.098 C 
HETATM    5  N5  UNL     1      18.963  26.426  11.828  1.00  0.00    -0.388 N 
ATOM      6  H52 UNL     1      19.455  25.681  12.321  1.00  0.00     0.157 HD
ATOM      7  H51 UNL     1      17.959  26.415  11.652  1.00  0.00     0.157 HD
BRANCH   4   8
HETATM    8  N4  UNL     1      21.075  27.402  11.671  1.00  0.00    -0.262 N 
HETATM    9  C16 UNL     1      21.586  27.998  12.850  1.00  0.00     0.248 C 
HETATM   10  O3  UNL     1      22.850  28.125  13.024  1.00  0.00    -0.271 OA
BRANCH   9  11
HETATM   11  C15 UNL     1      20.712  28.482  13.907  1.00  0.00     0.233 C 
BRANCH  11  12
HETATM   12  N3  UNL     1      20.469  29.923  13.868  1.00  0.00    -0.304 N 
HETATM   13  C14 UNL     1      19.189  30.490  14.118  1.00  0.00     0.331 C 
HETATM   14  N2  UNL     1      19.048  31.805  14.679  1.00  0.00    -0.247 N 
HETATM   15  O2  UNL     1      18.178  29.777  13.822  1.00  0.00    -0.246 OA
HETATM   16  C9  UNL     1      20.261  32.500  14.964  1.00  0.00     0.330 C 
HETATM   17  N1  UNL     1      21.492  31.866  14.679  1.00  0.00    -0.312 N 
HETATM   18  O1  UNL     1      20.214  33.637  15.452  1.00  0.00    -0.246 OA
HETATM   19  C25 UNL     1      21.541  30.880  13.580  1.00  0.00     0.192 C 
HETATM   20  C26 UNL     1      21.200  31.653  12.327  1.00  0.00     0.056 C 
BRANCH  14  21
HETATM   21  C10 UNL     1      17.741  32.304  14.897  1.00  0.00     0.095 C 
HETATM   22  C11 UNL     1      17.407  32.664  16.306  1.00  0.00     0.033 C 
BRANCH  21  23
HETATM   23  C12 UNL     1      17.511  33.540  14.034  1.00  0.00     0.021 C 
HETATM   24  C13 UNL     1      16.537  34.473  14.735  1.00  0.00     0.007 C 
ENDBRANCH  21  23
ENDBRANCH  14  21
BRANCH  17  25
HETATM   25  C8  UNL     1      22.669  32.179  15.445  1.00  0.00     0.130 C 
BRANCH  25  26
HETATM   26  C7  UNL     1      23.496  33.276  14.838  1.00  0.00     0.020 C 
BRANCH  26  27
HETATM   27  C6  UNL     1      23.758  34.359  15.847  1.00  0.00     0.002 C 
BRANCH  27  28
HETATM   28  C5  UNL     1      23.305  33.940  17.208  1.00  0.00     0.000 C 
BRANCH  28  29
HETATM   29  C4  UNL     1      22.547  35.071  17.899  1.00  0.00     0.000 C 
BRANCH  29  30
HETATM   30  C3  UNL     1      22.508  36.257  17.009  1.00  0.00    -0.000 C 
BRANCH  30  31
HETATM   31  C2  UNL     1      21.214  37.004  17.087  1.00  0.00    -0.005 C 
HETATM   32  C1  UNL     1      20.225  36.217  17.921  1.00  0.00     0.005 C 
ENDBRANCH  30  31
ENDBRANCH  29  30
ENDBRANCH  28  29
ENDBRANCH  27  28
ENDBRANCH  26  27
ENDBRANCH  25  26
ENDBRANCH  17  25
ENDBRANCH  11  12
ENDBRANCH   9  11
BRANCH   8  33
HETATM   33  C20 UNL     1      22.023  26.850  10.762  1.00  0.00     0.134 A 
HETATM   34  C21 UNL     1      22.670  27.650   9.864  1.00  0.00     0.043 A 
HETATM   35  C22 UNL     1      22.388  29.098   9.864  1.00  0.00     0.071 C 
HETATM   36  N7  UNL     1      23.568  27.090   8.987  1.00  0.00    -0.310 N 
HETATM   37  C23 UNL     1      23.806  25.766   9.014  1.00  0.00     0.327 A 
ATOM     38  H7  UNL     1      24.054  27.680   8.312  1.00  0.00     0.170 HD
HETATM   39  O4  UNL     1      24.630  25.245   8.209  1.00  0.00    -0.247 OA
HETATM   40  N8  UNL     1      23.191  24.970   9.876  1.00  0.00    -0.274 N 
HETATM   41  C24 UNL     1      22.296  25.506  10.756  1.00  0.00     0.278 A 
ATOM     42  H8  UNL     1      23.384  23.968   9.882  1.00  0.00     0.173 HD
HETATM   43  O5  UNL     1      21.748  24.725  11.544  1.00  0.00    -0.265 OA
ENDBRANCH   8  33
ENDBRANCH   4   8
ENDBRANCH   1   4
TORSDOF 14
ENDMDL
MODEL 4
REMARK VINA RESULT: -8.423680342      1.783      3.015
REMARK  14 active torsions:
REMARK  status: ('A' for Active; 'I' for Inactive)
REMARK    1  A    between atoms: C2_2  and  C3_3 
REMARK    2  A    between atoms: C3_3  and  C4_4 
REMARK    3  A    between atoms: C4_4  and  C5_5 
REMARK    4  A    between atoms: C5_5  and  C6_6 
REMARK    5  A    between atoms: C6_6  and  C7_7 
REMARK    6  A    between atoms: C7_7  and  C8_8 
REMARK    7  A    between atoms: C8_8  and  N1_9 
REMARK    8  A    between atoms: N2_12  and  C10_13 
REMARK    9  A    between atoms: C10_13  and  C12_15 
REMARK   10  A    between atoms: N3_19  and  C15_20 
REMARK   11  A    between atoms: C15_20  and  C16_21 
REMARK       I    between atoms: C16_21  and  N4_23 
REMARK   12  A    between atoms: N4_23  and  C17_24 
REMARK   13  A    between atoms: N4_23  and  C20_31 
REMARK   14  A    between atoms: C17_24  and  C18_28 
ROOT
HETATM    1  C18 UNL     1      17.624  28.767  12.792  1.00  0.00     0.200 C 
HETATM    2  C19 UNL     1      17.113  27.535  12.253  1.00  0.00     0.066 C 
HETATM    3  N6  UNL     1      16.687  26.549  11.834  1.00  0.00    -0.197 NA
ENDROOT
BRANCH   1   4
HETATM    4  C17 UNL     1      19.077  28.684  13.188  1.00  0.00     0.098 C 
HETATM    5  N5  UNL     1      19.302  28.111  14.302  1.00  0.00    -0.388 N 
ATOM      6  H52 UNL     1      20.285  28.055  14.570  1.00  0.00     0.157 HD
ATOM      7  H51 UNL     1      18.543  27.737  14.871  1.00  0.00     0.157 HD
BRANCH   4   8
HETATM    8  N4  UNL     1      20.120  29.197  12.407  1.00  0.00    -0.262 N 
HETATM    9  C16 UNL     1      20.201  30.587  12.153  1.00  0.00     0.248 C 
HETATM   10  O3  UNL     1      21.078  31.054  11.342  1.00  0.00    -0.271 OA
BRANCH   9  11
HETATM   11  C15 UNL     1      19.308  31.539  12.795  1.00  0.00     0.233 C 
BRANCH  11  12
HETATM   12  N3  UNL     1      19.759  31.984  14.113  1.00  0.00    -0.304 N 
HETATM   13  C14 UNL     1      20.788  32.950  14.284  1.00  0.00     0.331 C 
HETATM   14  N2  UNL     1      20.820  33.820  15.427  1.00  0.00    -0.247 N 
HETATM   15  O2  UNL     1      21.677  33.007  13.375  1.00  0.00    -0.246 OA
HETATM   16  C9  UNL     1      19.764  33.651  16.372  1.00  0.00     0.330 C 
HETATM   17  N1  UNL     1      18.784  32.662  16.130  1.00  0.00    -0.312 N 
HETATM   18  O1  UNL     1      19.726  34.369  17.380  1.00  0.00    -0.246 OA
HETATM   19  C25 UNL     1      19.163  31.467  15.348  1.00  0.00     0.192 C 
HETATM   20  C26 UNL     1      20.228  30.772  16.165  1.00  0.00     0.056 C 
BRANCH  14  21
HETATM   21  C10 UNL     1      21.877  34.754  15.529  1.00  0.00     0.095 C 
HETATM   22  C11 UNL     1      21.500  36.115  16.013  1.00  0.00     0.033 C 
BRANCH  21  23
HETATM   23  C12 UNL     1      22.956  34.212  16.461  1.00  0.00     0.021 C 
HETATM   24  C13 UNL     1      24.238  33.988  15.675  1.00  0.00     0.007 C 
ENDBRANCH  21  23
ENDBRANCH  14  21
BRANCH  17  25
HETATM   25  C8  UNL     1      17.447  32.820  16.637  1.00  0.00     0.130 C 
BRANCH  25  26
HETATM   26  C7  UNL     1      16.386  32.488  15.626  1.00  0.00     0.020 C 
BRANCH  26  27
HETATM   27  C6  UNL     1      15.518  33.686  15.361  1.00  0.00     0.002 C 
BRANCH  27  28
HETATM   28  C5  UNL     1      16.342  34.860  14.941  1.00  0.00     0.000 C 
BRANCH  28  29
HETATM   29  C4  UNL     1      16.232  35.992  15.959  1.00  0.00     0.000 C 
BRANCH  29  30
HETATM   30  C3  UNL     1      15.124  35.703  16.903  1.00  0.00    -0.000 C 
BRANCH  30  31
HETATM   31  C2  UNL     1      15.516  35.880  18.336  1.00  0.00    -0.005 C 
HETATM   32  C1  UNL     1      16.976  36.274  18.417  1.00  0.00     0.005 C 
ENDBRANCH  30  31
ENDBRANCH  29  30
ENDBRANCH  28  29
ENDBRANCH  27  28
ENDBRANCH  26  27
ENDBRANCH  25  26
ENDBRANCH  17  25
ENDBRANCH  11  12
ENDBRANCH   9  11
BRANCH   8  33
HETATM   33  C20 UNL     1      21.124  28.372  11.823  1.00  0.00     0.134 A 
HETATM   34  C21 UNL     1      20.917  27.783  10.609  1.00  0.00     0.043 A 
HETATM   35  C22 UNL     1      19.647  28.030   9.901  1.00  0.00     0.071 C 
HETATM   36  N7  UNL     1      21.895  26.979  10.074  1.00  0.00    -0.310 N 
HETATM   37  C23 UNL     1      23.045  26.775  10.742  1.00  0.00     0.327 A 
ATOM     38  H7  UNL     1      21.749  26.534   9.168  1.00  0.00     0.170 HD
HETATM   39  O4  UNL     1      23.949  26.036  10.256  1.00  0.00    -0.247 OA
HETATM   40  N8  UNL     1      23.269  27.336  11.921  1.00  0.00    -0.274 N 
HETATM   41  C24 UNL     1      22.311  28.138  12.470  1.00  0.00     0.278 A 
ATOM     42  H8  UNL     1      24.147  27.170  12.414  1.00  0.00     0.173 HD
HETATM   43  O5  UNL     1      22.565  28.642  13.571  1.00  0.00    -0.265 OA
ENDBRANCH   8  33
ENDBRANCH   4   8
ENDBRANCH   1   4
TORSDOF 14
ENDMDL
MODEL 5
REMARK VINA RESULT: -8.380774878      1.469      2.942
REMARK  14 active torsions:
REMARK  status: ('A' for Active; 'I' for Inactive)
REMARK    1  A    between atoms: C2_2  and  C3_3 
REMARK    2  A    between atoms: C3_3  and  C4_4 
REMARK    3  A    between atoms: C4_4  and  C5_5 
REMARK    4  A    between atoms: C5_5  and  C6_6 
REMARK    5  A    between atoms: C6_6  and  C7_7 
REMARK    6  A    between atoms: C7_7  and  C8_8 
REMARK    7  A    between atoms: C8_8  and  N1_9 
REMARK    8  A    between atoms: N2_12  and  C10_13 
REMARK    9  A    between atoms: C10_13  and  C12_15 
REMARK   10  A    between atoms: N3_19  and  C15_20 
REMARK   11  A    between atoms: C15_20  and  C16_21 
REMARK       I    between atoms: C16_21  and  N4_23 
REMARK   12  A    between atoms: N4_23  and  C17_24 
REMARK   13  A    between atoms: N4_23  and  C20_31 
REMARK   14  A    between atoms: C17_24  and  C18_28 
ROOT
HETATM    1  C18 UNL     1      17.590  28.621  12.630  1.00  0.00     0.200 C 
HETATM    2  C19 UNL     1      17.254  27.387  11.974  1.00  0.00     0.066 C 
HETATM    3  N6  UNL     1      16.968  26.395  11.460  1.00  0.00    -0.197 NA
ENDROOT
BRANCH   1   4
HETATM    4  C17 UNL     1      19.041  28.702  13.035  1.00  0.00     0.098 C 
HETATM    5  N5  UNL     1      19.321  28.163  14.153  1.00  0.00    -0.388 N 
ATOM      6  H52 UNL     1      20.302  28.218  14.427  1.00  0.00     0.157 HD
ATOM      7  H51 UNL     1      18.604  27.711  14.720  1.00  0.00     0.157 HD
BRANCH   4   8
HETATM    8  N4  UNL     1      20.026  29.323  12.256  1.00  0.00    -0.262 N 
HETATM    9  C16 UNL     1      20.023  30.729  12.095  1.00  0.00     0.248 C 
HETATM   10  O3  UNL     1      20.843  31.298  11.290  1.00  0.00    -0.271 OA
BRANCH   9  11
HETATM   11  C15 UNL     1      19.105  31.586  12.831  1.00  0.00     0.233 C 
BRANCH  11  12
HETATM   12  N3  UNL     1      19.600  32.004  14.142  1.00  0.00    -0.304 N 
HETATM   13  C14 UNL     1      20.662  32.937  14.296  1.00  0.00     0.331 C 
HETATM   14  N2  UNL     1      20.747  33.794  15.446  1.00  0.00    -0.247 N 
HETATM   15  O2  UNL     1      21.531  32.976  13.367  1.00  0.00    -0.246 OA
HETATM   16  C9  UNL     1      19.710  33.648  16.415  1.00  0.00     0.330 C 
HETATM   17  N1  UNL     1      18.694  32.691  16.187  1.00  0.00    -0.312 N 
HETATM   18  O1  UNL     1      19.718  34.357  17.430  1.00  0.00    -0.246 OA
HETATM   19  C25 UNL     1      19.019  31.493  15.386  1.00  0.00     0.192 C 
HETATM   20  C26 UNL     1      20.081  30.758  16.171  1.00  0.00     0.056 C 
BRANCH  14  21
HETATM   21  C10 UNL     1      21.835  34.695  15.531  1.00  0.00     0.095 C 
HETATM   22  C11 UNL     1      21.510  36.063  16.032  1.00  0.00     0.033 C 
BRANCH  21  23
HETATM   23  C12 UNL     1      22.917  34.113  16.435  1.00  0.00     0.021 C 
HETATM   24  C13 UNL     1      24.206  33.955  15.646  1.00  0.00     0.007 C 
ENDBRANCH  21  23
ENDBRANCH  14  21
BRANCH  17  25
HETATM   25  C8  UNL     1      17.375  32.885  16.728  1.00  0.00     0.130 C 
BRANCH  25  26
HETATM   26  C7  UNL     1      16.281  32.602  15.738  1.00  0.00     0.020 C 
BRANCH  26  27
HETATM   27  C6  UNL     1      15.460  33.836  15.493  1.00  0.00     0.002 C 
BRANCH  27  28
HETATM   28  C5  UNL     1      16.320  34.967  15.031  1.00  0.00     0.000 C 
BRANCH  28  29
HETATM   29  C4  UNL     1      16.270  36.127  16.022  1.00  0.00     0.000 C 
BRANCH  29  30
HETATM   30  C3  UNL     1      15.197  35.882  17.017  1.00  0.00    -0.000 C 
BRANCH  30  31
HETATM   31  C2  UNL     1      15.587  36.278  18.406  1.00  0.00    -0.005 C 
HETATM   32  C1  UNL     1      16.885  37.058  18.365  1.00  0.00     0.005 C 
ENDBRANCH  30  31
ENDBRANCH  29  30
ENDBRANCH  28  29
ENDBRANCH  27  28
ENDBRANCH  26  27
ENDBRANCH  25  26
ENDBRANCH  17  25
ENDBRANCH  11  12
ENDBRANCH   9  11
BRANCH   8  33
HETATM   33  C20 UNL     1      21.050  28.596  11.583  1.00  0.00     0.134 A 
HETATM   34  C21 UNL     1      22.287  28.463  12.143  1.00  0.00     0.043 A 
HETATM   35  C22 UNL     1      22.543  29.065  13.465  1.00  0.00     0.071 C 
HETATM   36  N7  UNL     1      23.263  27.770  11.466  1.00  0.00    -0.310 N 
HETATM   37  C23 UNL     1      22.997  27.228  10.263  1.00  0.00     0.327 A 
ATOM     38  H7  UNL     1      24.190  27.666  11.876  1.00  0.00     0.170 HD
HETATM   39  O4  UNL     1      23.890  26.590   9.635  1.00  0.00    -0.247 OA
HETATM   40  N8  UNL     1      21.804  27.343   9.700  1.00  0.00    -0.274 N 
HETATM   41  C24 UNL     1      20.822  28.027  10.356  1.00  0.00     0.278 A 
ATOM     42  H8  UNL     1      21.621  26.926   8.787  1.00  0.00     0.173 HD
HETATM   43  O5  UNL     1      19.723  28.107   9.793  1.00  0.00    -0.265 OA
ENDBRANCH   8  33
ENDBRANCH   4   8
ENDBRANCH   1   4
TORSDOF 14
ENDMDL
