MODEL 1
REMARK VINA RESULT: -8.026345882      0.000      0.000
REMARK  18 active torsions:
REMARK  status: ('A' for Active; 'I' for Inactive)
REMARK    1  A    between atoms: C3_3  and  C4_4 
REMARK    2  A    between atoms: C8_8  and  C9_9 
REMARK    3  A    between atoms: C9_9  and  C10_10 
REMARK    4  A    between atoms: C10_10  and  O1_11 
REMARK    5  A    between atoms: C10_10  and  N1_13 
REMARK    6  A    between atoms: N1_13  and  C11_15 
REMARK    7  A    between atoms: C12_20  and  C13_21 
REMARK    8  A    between atoms: C13_21  and  C14_22 
REMARK    9  A    between atoms: C14_22  and  C15_23 
REMARK   10  A    between atoms: C15_23  and  C16_24 
REMARK   11  A    between atoms: C16_24  and  C17_25 
REMARK       I    between atoms: N6_31  and  C19_33 
REMARK   12  A    between atoms: C19_33  and  C20_35 
REMARK   13  A    between atoms: C20_35  and  C21_36 
REMARK   14  A    between atoms: C21_36  and  C22_37 
REMARK   15  A    between atoms: C22_37  and  C23_38 
REMARK   16  A    between atoms: C23_38  and  C24_39 
REMARK   17  A    between atoms: C24_39  and  N7_40 
REMARK   18  A    between atoms: C25_46  and  C26_47 
ROOT
HETATM    1  C1  UNL     1      17.143  22.824  11.007  1.00  0.00     0.112 C 
HETATM    2  C2  UNL     1      17.410  24.258  11.116  1.00  0.00    -0.105 C 
HETATM    3  C3  UNL     1      17.626  25.462  11.185  1.00  0.00    -0.067 C 
ENDROOT
BRANCH   3   4
HETATM    4  C4  UNL     1      17.852  26.889  11.256  1.00  0.00     0.024 A 
HETATM    5  C5  UNL     1      16.819  27.788  11.388  1.00  0.00     0.021 A 
HETATM    6  C6  UNL     1      17.050  29.146  11.440  1.00  0.00     0.002 A 
HETATM    7  C7  UNL     1      18.343  29.594  11.359  1.00  0.00     0.008 A 
HETATM    8  C8  UNL     1      19.404  28.690  11.226  1.00  0.00    -0.043 A 
HETATM    9  C25 UNL     1      19.182  27.353  11.173  1.00  0.00    -0.033 A 
BRANCH   8  10
HETATM   10  C9  UNL     1      20.752  29.281  11.177  1.00  0.00     0.123 C 
BRANCH  10  11
HETATM   11  C10 UNL     1      21.097  29.891  12.467  1.00  0.00     0.121 C 
BRANCH  11  12
HETATM   12  O1  UNL     1      21.111  29.052  13.467  1.00  0.00    -0.349 OA
ATOM     13  H1  UNL     1      20.712  29.388  14.261  1.00  0.00     0.219 HD
ENDBRANCH  11  12
BRANCH  11  14
HETATM   14  N1  UNL     1      21.404  31.179  12.810  1.00  0.00    -0.320 N 
ATOM     15  H1  UNL     1      21.150  31.883  12.118  1.00  0.00     0.169 HD
BRANCH  14  16
HETATM   16  C11 UNL     1      21.960  31.634  13.864  1.00  0.00     0.166 A 
HETATM   17  N2  UNL     1      22.440  31.093  14.979  1.00  0.00    -0.279 N 
HETATM   18  N3  UNL     1      22.937  31.833  15.872  1.00  0.00    -0.296 N 
ATOM     19  H2  UNL     1      22.408  30.082  15.112  1.00  0.00     0.189 HD
HETATM   20  C12 UNL     1      23.003  33.134  15.752  1.00  0.00     0.069 A 
ATOM     21  H3  UNL     1      23.300  31.400  16.721  1.00  0.00     0.187 HD
HETATM   22  S2  UNL     1      22.276  33.329  14.189  1.00  0.00    -0.038 SA
BRANCH  20  23
HETATM   23  C13 UNL     1      23.530  34.205  16.635  1.00  0.00     0.066 C 
BRANCH  23  24
HETATM   24  C14 UNL     1      22.822  35.474  16.546  1.00  0.00     0.007 C 
BRANCH  24  25
HETATM   25  C15 UNL     1      22.097  36.000  17.704  1.00  0.00     0.007 C 
BRANCH  25  26
HETATM   26  C16 UNL     1      21.359  35.145  18.641  1.00  0.00     0.066 C 
BRANCH  26  27
HETATM   27  C17 UNL     1      19.887  35.272  18.259  1.00  0.00     0.069 A 
HETATM   28  N4  UNL     1      18.960  35.924  18.932  1.00  0.00    -0.296 N 
HETATM   29  N5  UNL     1      17.765  35.947  18.506  1.00  0.00    -0.279 N 
ATOM     30  H4  UNL     1      19.205  36.410  19.795  1.00  0.00     0.187 HD
HETATM   31  C18 UNL     1      17.470  35.305  17.374  1.00  0.00     0.167 A 
ATOM     32  H5  UNL     1      17.041  36.450  19.020  1.00  0.00     0.189 HD
HETATM   33  N6  UNL     1      16.302  35.213  16.780  1.00  0.00    -0.306 N 
HETATM   34  S1  UNL     1      19.003  34.657  16.945  1.00  0.00    -0.038 SA
HETATM   35  C19 UNL     1      16.255  34.452  15.558  1.00  0.00     0.223 C 
ATOM     36  H6  UNL     1      15.470  35.659  17.165  1.00  0.00     0.171 HD
HETATM   37  O2  UNL     1      16.362  35.118  14.494  1.00  0.00    -0.273 OA
BRANCH  35  38
HETATM   38  C20 UNL     1      16.103  33.014  15.507  1.00  0.00     0.103 C 
BRANCH  38  39
HETATM   39  C21 UNL     1      16.689  32.403  14.277  1.00  0.00     0.009 C 
BRANCH  39  40
HETATM   40  C22 UNL     1      18.063  31.893  14.359  1.00  0.00     0.002 C 
BRANCH  40  41
HETATM   41  C23 UNL     1      18.331  30.573  14.945  1.00  0.00     0.027 C 
BRANCH  41  42
HETATM   42  C24 UNL     1      19.161  30.831  16.236  1.00  0.00     0.229 C 
BRANCH  42  43
HETATM   43  N7  UNL     1      19.928  29.623  16.490  1.00  0.00    -0.079 N 
ATOM     44  H73 UNL     1      19.717  29.195  17.392  1.00  0.00     0.274 HD
ATOM     45  H72 UNL     1      19.645  28.837  15.905  1.00  0.00     0.274 HD
ATOM     46  H71 UNL     1      20.911  29.870  16.382  1.00  0.00     0.274 HD
ENDBRANCH  42  43
ENDBRANCH  41  42
ENDBRANCH  40  41
ENDBRANCH  39  40
ENDBRANCH  38  39
ENDBRANCH  35  38
ENDBRANCH  26  27
ENDBRANCH  25  26
ENDBRANCH  24  25
ENDBRANCH  23  24
ENDBRANCH  20  23
ENDBRANCH  14  16
ENDBRANCH  11  14
ENDBRANCH  10  11
ENDBRANCH   8  10
BRANCH   9  47
HETATM   47  C26 UNL     1      20.246  26.372  10.989  1.00  0.00     0.036 C 
HETATM   48  C27 UNL     1      20.659  26.135   9.555  1.00  0.00     0.010 C 
ENDBRANCH   9  47
ENDBRANCH   3   4
TORSDOF 18
ENDMDL
MODEL 2
REMARK VINA RESULT: -7.822066711      1.853      3.554
REMARK  18 active torsions:
REMARK  status: ('A' for Active; 'I' for Inactive)
REMARK    1  A    between atoms: C3_3  and  C4_4 
REMARK    2  A    between atoms: C8_8  and  C9_9 
REMARK    3  A    between atoms: C9_9  and  C10_10 
REMARK    4  A    between atoms: C10_10  and  O1_11 
REMARK    5  A    between atoms: C10_10  and  N1_13 
REMARK    6  A    between atoms: N1_13  and  C11_15 
REMARK    7  A    between atoms: C12_20  and  C13_21 
REMARK    8  A    between atoms: C13_21  and  C14_22 
REMARK    9  A    between atoms: C14_22  and  C15_23 
REMARK   10  A    between atoms: C15_23  and  C16_24 
REMARK   11  A    between atoms: C16_24  and  C17_25 
REMARK       I    between atoms: N6_31  and  C19_33 
REMARK   12  A    between atoms: C19_33  and  C20_35 
REMARK   13  A    between atoms: C20_35  and  C21_36 
REMARK   14  A    between atoms: C21_36  and  C22_37 
REMARK   15  A    between atoms: C22_37  and  C23_38 
REMARK   16  A    between atoms: C23_38  and  C24_39 
REMARK   17  A    between atoms: C24_39  and  N7_40 
REMARK   18  A    between atoms: C25_46  and  C26_47 
ROOT
HETATM    1  C1  UNL     1      17.480  23.149  10.747  1.00  0.00     0.112 C 
HETATM    2  C2  UNL     1      18.113  24.453  10.941  1.00  0.00    -0.105 C 
HETATM    3  C3  UNL     1      18.627  25.555  11.088  1.00  0.00    -0.067 C 
ENDROOT
BRANCH   3   4
HETATM    4  C4  UNL     1      19.206  26.868  11.268  1.00  0.00     0.024 A 
HETATM    5  C5  UNL     1      20.525  27.133  10.976  1.00  0.00     0.021 A 
HETATM    6  C6  UNL     1      21.065  28.386  11.167  1.00  0.00     0.002 A 
HETATM    7  C7  UNL     1      20.258  29.380  11.659  1.00  0.00     0.008 A 
HETATM    8  C8  UNL     1      18.915  29.124  11.959  1.00  0.00    -0.043 A 
HETATM    9  C25 UNL     1      18.378  27.893  11.774  1.00  0.00    -0.033 A 
BRANCH   8  10
HETATM   10  C9  UNL     1      18.136  30.272  12.453  1.00  0.00     0.123 C 
BRANCH  10  11
HETATM   11  C10 UNL     1      18.227  30.369  13.915  1.00  0.00     0.121 C 
BRANCH  11  12
HETATM   12  O1  UNL     1      17.204  30.954  14.476  1.00  0.00    -0.349 OA
ATOM     13  H1  UNL     1      17.315  31.888  14.609  1.00  0.00     0.219 HD
ENDBRANCH  11  12
BRANCH  11  14
HETATM   14  N1  UNL     1      19.190  29.959  14.795  1.00  0.00    -0.320 N 
ATOM     15  H1  UNL     1      19.169  28.967  15.028  1.00  0.00     0.169 HD
BRANCH  14  16
HETATM   16  C11 UNL     1      20.112  30.629  15.368  1.00  0.00     0.166 A 
HETATM   17  N2  UNL     1      20.470  30.844  16.630  1.00  0.00    -0.279 N 
HETATM   18  N3  UNL     1      21.456  31.588  16.885  1.00  0.00    -0.296 N 
ATOM     19  H2  UNL     1      19.947  30.408  17.390  1.00  0.00     0.189 HD
HETATM   20  C12 UNL     1      22.159  32.171  15.948  1.00  0.00     0.069 A 
ATOM     21  H3  UNL     1      21.714  31.742  17.859  1.00  0.00     0.187 HD
HETATM   22  S2  UNL     1      21.323  31.595  14.541  1.00  0.00    -0.038 SA
BRANCH  20  23
HETATM   23  C13 UNL     1      23.339  33.071  15.983  1.00  0.00     0.066 C 
BRANCH  23  24
HETATM   24  C14 UNL     1      23.345  34.030  17.079  1.00  0.00     0.007 C 
BRANCH  24  25
HETATM   25  C15 UNL     1      22.403  35.150  17.087  1.00  0.00     0.007 C 
BRANCH  25  26
HETATM   26  C16 UNL     1      21.196  35.174  17.924  1.00  0.00     0.066 C 
BRANCH  26  27
HETATM   27  C17 UNL     1      20.033  34.838  16.997  1.00  0.00     0.069 A 
HETATM   28  N4  UNL     1      20.073  34.788  15.680  1.00  0.00    -0.296 N 
HETATM   29  N5  UNL     1      19.027  34.500  15.023  1.00  0.00    -0.279 N 
ATOM     30  H4  UNL     1      20.947  34.982  15.190  1.00  0.00     0.187 HD
HETATM   31  C18 UNL     1      17.896  34.250  15.686  1.00  0.00     0.167 A 
ATOM     32  H5  UNL     1      19.049  34.459  14.003  1.00  0.00     0.189 HD
HETATM   33  N6  UNL     1      16.721  33.938  15.188  1.00  0.00    -0.306 N 
HETATM   34  S1  UNL     1      18.409  34.450  17.314  1.00  0.00    -0.038 SA
HETATM   35  C19 UNL     1      15.656  33.717  16.131  1.00  0.00     0.223 C 
ATOM     36  H6  UNL     1      16.571  33.857  14.182  1.00  0.00     0.171 HD
HETATM   37  O2  UNL     1      15.454  32.518  16.459  1.00  0.00    -0.273 OA
BRANCH  35  38
HETATM   38  C20 UNL     1      14.846  34.774  16.699  1.00  0.00     0.103 C 
BRANCH  38  39
HETATM   39  C21 UNL     1      15.122  35.015  18.146  1.00  0.00     0.009 C 
BRANCH  39  40
HETATM   40  C22 UNL     1      15.517  36.371  18.547  1.00  0.00     0.002 C 
BRANCH  40  41
HETATM   41  C23 UNL     1      15.893  37.365  17.533  1.00  0.00     0.027 C 
BRANCH  41  42
HETATM   42  C24 UNL     1      17.228  38.000  18.021  1.00  0.00     0.229 C 
BRANCH  42  43
HETATM   43  N7  UNL     1      18.069  38.163  16.847  1.00  0.00    -0.079 N 
ATOM     44  H73 UNL     1      18.756  37.417  16.738  1.00  0.00     0.274 HD
ATOM     45  H72 UNL     1      17.570  38.008  15.971  1.00  0.00     0.274 HD
ATOM     46  H71 UNL     1      18.488  39.090  16.912  1.00  0.00     0.274 HD
ENDBRANCH  42  43
ENDBRANCH  41  42
ENDBRANCH  40  41
ENDBRANCH  39  40
ENDBRANCH  38  39
ENDBRANCH  35  38
ENDBRANCH  26  27
ENDBRANCH  25  26
ENDBRANCH  24  25
ENDBRANCH  23  24
ENDBRANCH  20  23
ENDBRANCH  14  16
ENDBRANCH  11  14
ENDBRANCH  10  11
ENDBRANCH   8  10
BRANCH   9  47
HETATM   47  C26 UNL     1      16.999  27.562  12.113  1.00  0.00     0.036 C 
HETATM   48  C27 UNL     1      15.990  27.815  11.017  1.00  0.00     0.010 C 
ENDBRANCH   9  47
ENDBRANCH   3   4
TORSDOF 18
ENDMDL
MODEL 3
REMARK VINA RESULT: -7.798907518      2.021      4.575
REMARK  18 active torsions:
REMARK  status: ('A' for Active; 'I' for Inactive)
REMARK    1  A    between atoms: C3_3  and  C4_4 
REMARK    2  A    between atoms: C8_8  and  C9_9 
REMARK    3  A    between atoms: C9_9  and  C10_10 
REMARK    4  A    between atoms: C10_10  and  O1_11 
REMARK    5  A    between atoms: C10_10  and  N1_13 
REMARK    6  A    between atoms: N1_13  and  C11_15 
REMARK    7  A    between atoms: C12_20  and  C13_21 
REMARK    8  A    between atoms: C13_21  and  C14_22 
REMARK    9  A    between atoms: C14_22  and  C15_23 
REMARK   10  A    between atoms: C15_23  and  C16_24 
REMARK   11  A    between atoms: C16_24  and  C17_25 
REMARK       I    between atoms: N6_31  and  C19_33 
REMARK   12  A    between atoms: C19_33  and  C20_35 
REMARK   13  A    between atoms: C20_35  and  C21_36 
REMARK   14  A    between atoms: C21_36  and  C22_37 
REMARK   15  A    between atoms: C22_37  and  C23_38 
REMARK   16  A    between atoms: C23_38  and  C24_39 
REMARK   17  A    between atoms: C24_39  and  N7_40 
REMARK   18  A    between atoms: C25_46  and  C26_47 
ROOT
HETATM    1  C1  UNL     1      15.548  21.633  11.191  1.00  0.00     0.112 C 
HETATM    2  C2  UNL     1      16.713  22.515  11.135  1.00  0.00    -0.105 C 
HETATM    3  C3  UNL     1      17.703  23.235  11.090  1.00  0.00    -0.067 C 
ENDROOT
BRANCH   3   4
HETATM    4  C4  UNL     1      18.884  24.067  11.016  1.00  0.00     0.024 A 
HETATM    5  C5  UNL     1      20.154  23.546  11.121  1.00  0.00     0.021 A 
HETATM    6  C6  UNL     1      21.268  24.355  11.063  1.00  0.00     0.002 A 
HETATM    7  C7  UNL     1      21.092  25.704  10.897  1.00  0.00     0.008 A 
HETATM    8  C8  UNL     1      19.806  26.247  10.788  1.00  0.00    -0.043 A 
HETATM    9  C25 UNL     1      18.706  25.456  10.845  1.00  0.00    -0.033 A 
BRANCH   8  10
HETATM   10  C9  UNL     1      19.736  27.703  10.582  1.00  0.00     0.123 C 
BRANCH  10  11
HETATM   11  C10 UNL     1      20.314  28.416  11.728  1.00  0.00     0.121 C 
BRANCH  11  12
HETATM   12  O1  UNL     1      21.332  29.176  11.425  1.00  0.00    -0.349 OA
ATOM     13  H1  UNL     1      21.262  30.066  11.750  1.00  0.00     0.219 HD
ENDBRANCH  11  12
BRANCH  11  14
HETATM   14  N1  UNL     1      19.981  28.426  13.054  1.00  0.00    -0.320 N 
ATOM     15  H1  UNL     1      20.380  27.667  13.605  1.00  0.00     0.169 HD
BRANCH  14  16
HETATM   16  C11 UNL     1      19.247  29.240  13.706  1.00  0.00     0.166 A 
HETATM   17  N2  UNL     1      19.076  29.525  14.993  1.00  0.00    -0.279 N 
HETATM   18  N3  UNL     1      18.239  30.404  15.336  1.00  0.00    -0.296 N 
ATOM     19  H2  UNL     1      19.621  29.033  15.702  1.00  0.00     0.189 HD
HETATM   20  C12 UNL     1      17.516  31.064  14.468  1.00  0.00     0.069 A 
ATOM     21  H3  UNL     1      18.121  30.608  16.328  1.00  0.00     0.187 HD
HETATM   22  S2  UNL     1      18.092  30.354  12.994  1.00  0.00    -0.038 SA
BRANCH  20  23
HETATM   23  C13 UNL     1      16.488  32.126  14.609  1.00  0.00     0.066 C 
BRANCH  23  24
HETATM   24  C14 UNL     1      15.855  32.194  15.919  1.00  0.00     0.007 C 
BRANCH  24  25
HETATM   25  C15 UNL     1      15.916  33.425  16.708  1.00  0.00     0.007 C 
BRANCH  25  26
HETATM   26  C16 UNL     1      15.939  34.762  16.102  1.00  0.00     0.066 C 
BRANCH  26  27
HETATM   27  C17 UNL     1      17.211  35.434  16.609  1.00  0.00     0.069 A 
HETATM   28  N4  UNL     1      17.384  36.725  16.813  1.00  0.00    -0.296 N 
HETATM   29  N5  UNL     1      18.500  37.158  17.234  1.00  0.00    -0.279 N 
ATOM     30  H4  UNL     1      16.619  37.376  16.631  1.00  0.00     0.187 HD
HETATM   31  C18 UNL     1      19.484  36.287  17.465  1.00  0.00     0.167 A 
ATOM     32  H5  UNL     1      18.642  38.156  17.394  1.00  0.00     0.189 HD
HETATM   33  N6  UNL     1      20.699  36.540  17.898  1.00  0.00    -0.306 N 
HETATM   34  S1  UNL     1      18.727  34.803  17.045  1.00  0.00    -0.038 SA
HETATM   35  C19 UNL     1      21.575  35.409  18.063  1.00  0.00     0.223 C 
ATOM     36  H6  UNL     1      21.006  37.490  18.106  1.00  0.00     0.171 HD
HETATM   37  O2  UNL     1      21.631  34.924  19.224  1.00  0.00    -0.273 OA
BRANCH  35  38
HETATM   38  C20 UNL     1      22.357  34.828  16.991  1.00  0.00     0.103 C 
BRANCH  38  39
HETATM   39  C21 UNL     1      22.679  33.387  17.212  1.00  0.00     0.009 C 
BRANCH  39  40
HETATM   40  C22 UNL     1      22.291  32.435  16.165  1.00  0.00     0.002 C 
BRANCH  40  41
HETATM   41  C23 UNL     1      22.666  32.676  14.765  1.00  0.00     0.027 C 
BRANCH  41  42
HETATM   42  C24 UNL     1      22.377  31.351  14.002  1.00  0.00     0.229 C 
BRANCH  42  43
HETATM   43  N7  UNL     1      21.592  31.704  12.831  1.00  0.00    -0.079 N 
ATOM     44  H73 UNL     1      21.846  32.608  12.435  1.00  0.00     0.274 HD
ATOM     45  H72 UNL     1      21.814  31.137  12.013  1.00  0.00     0.274 HD
ATOM     46  H71 UNL     1      20.612  31.646  13.106  1.00  0.00     0.274 HD
ENDBRANCH  42  43
ENDBRANCH  41  42
ENDBRANCH  40  41
ENDBRANCH  39  40
ENDBRANCH  38  39
ENDBRANCH  35  38
ENDBRANCH  26  27
ENDBRANCH  25  26
ENDBRANCH  24  25
ENDBRANCH  23  24
ENDBRANCH  20  23
ENDBRANCH  14  16
ENDBRANCH  11  14
ENDBRANCH  10  11
ENDBRANCH   8  10
BRANCH   9  47
HETATM   47  C26 UNL     1      17.343  25.975  10.782  1.00  0.00     0.036 C 
HETATM   48  C27 UNL     1      16.838  26.607  12.059  1.00  0.00     0.010 C 
ENDBRANCH   9  47
ENDBRANCH   3   4
TORSDOF 18
ENDMDL
MODEL 4
REMARK VINA RESULT: -7.769998703      3.323      9.574
REMARK  18 active torsions:
REMARK  status: ('A' for Active; 'I' for Inactive)
REMARK    1  A    between atoms: C3_3  and  C4_4 
REMARK    2  A    between atoms: C8_8  and  C9_9 
REMARK    3  A    between atoms: C9_9  and  C10_10 
REMARK    4  A    between atoms: C10_10  and  O1_11 
REMARK    5  A    between atoms: C10_10  and  N1_13 
REMARK    6  A    between atoms: N1_13  and  C11_15 
REMARK    7  A    between atoms: C12_20  and  C13_21 
REMARK    8  A    between atoms: C13_21  and  C14_22 
REMARK    9  A    between atoms: C14_22  and  C15_23 
REMARK   10  A    between atoms: C15_23  and  C16_24 
REMARK   11  A    between atoms: C16_24  and  C17_25 
REMARK       I    between atoms: N6_31  and  C19_33 
REMARK   12  A    between atoms: C19_33  and  C20_35 
REMARK   13  A    between atoms: C20_35  and  C21_36 
REMARK   14  A    between atoms: C21_36  and  C22_37 
REMARK   15  A    between atoms: C22_37  and  C23_38 
REMARK   16  A    between atoms: C23_38  and  C24_39 
REMARK   17  A    between atoms: C24_39  and  N7_40 
REMARK   18  A    between atoms: C25_46  and  C26_47 
ROOT
HETATM    1  C1  UNL     1      15.557  34.280  17.677  1.00  0.00     0.112 C 
HETATM    2  C2  UNL     1      16.946  34.304  17.221  1.00  0.00    -0.105 C 
HETATM    3  C3  UNL     1      18.110  34.348  16.839  1.00  0.00    -0.067 C 
ENDROOT
BRANCH   3   4
HETATM    4  C4  UNL     1      19.489  34.419  16.411  1.00  0.00     0.024 A 
HETATM    5  C5  UNL     1      20.362  35.359  16.908  1.00  0.00     0.021 A 
HETATM    6  C6  UNL     1      21.670  35.422  16.478  1.00  0.00     0.002 A 
HETATM    7  C7  UNL     1      22.096  34.522  15.537  1.00  0.00     0.008 A 
HETATM    8  C8  UNL     1      21.218  33.559  15.023  1.00  0.00    -0.043 A 
HETATM    9  C25 UNL     1      19.930  33.493  15.441  1.00  0.00    -0.033 A 
BRANCH   8  10
HETATM   10  C9  UNL     1      21.791  32.625  14.039  1.00  0.00     0.123 C 
BRANCH  10  11
HETATM   11  C10 UNL     1      22.067  31.324  14.660  1.00  0.00     0.121 C 
BRANCH  11  12
HETATM   12  O1  UNL     1      22.627  31.402  15.836  1.00  0.00    -0.349 OA
ATOM     13  H1  UNL     1      23.445  30.926  15.909  1.00  0.00     0.219 HD
ENDBRANCH  11  12
BRANCH  11  14
HETATM   14  N1  UNL     1      21.847  30.045  14.227  1.00  0.00    -0.320 N 
ATOM     15  H1  UNL     1      22.688  29.498  14.051  1.00  0.00     0.169 HD
BRANCH  14  16
HETATM   16  C11 UNL     1      20.749  29.434  14.011  1.00  0.00     0.166 A 
HETATM   17  N2  UNL     1      20.058  28.493  14.646  1.00  0.00    -0.279 N 
HETATM   18  N3  UNL     1      18.974  28.072  14.157  1.00  0.00    -0.296 N 
ATOM     19  H2  UNL     1      20.405  28.111  15.527  1.00  0.00     0.189 HD
HETATM   20  C12 UNL     1      18.485  28.527  13.033  1.00  0.00     0.069 A 
ATOM     21  H3  UNL     1      18.459  27.348  14.659  1.00  0.00     0.187 HD
HETATM   22  S2  UNL     1      19.707  29.687  12.620  1.00  0.00    -0.038 SA
BRANCH  20  23
HETATM   23  C13 UNL     1      17.256  28.208  12.263  1.00  0.00     0.066 C 
BRANCH  23  24
HETATM   24  C14 UNL     1      16.958  26.787  12.147  1.00  0.00     0.007 C 
BRANCH  24  25
HETATM   25  C15 UNL     1      17.232  26.073  10.900  1.00  0.00     0.007 C 
BRANCH  25  26
HETATM   26  C16 UNL     1      18.387  25.182  10.726  1.00  0.00     0.066 C 
BRANCH  26  27
HETATM   27  C17 UNL     1      19.590  26.091  10.495  1.00  0.00     0.069 A 
HETATM   28  N4  UNL     1      19.705  27.010   9.558  1.00  0.00    -0.296 N 
HETATM   29  N5  UNL     1      20.768  27.699   9.471  1.00  0.00    -0.279 N 
ATOM     30  H4  UNL     1      18.939  27.168   8.903  1.00  0.00     0.187 HD
HETATM   31  C18 UNL     1      21.755  27.474  10.340  1.00  0.00     0.167 A 
ATOM     32  H5  UNL     1      20.865  28.413   8.748  1.00  0.00     0.189 HD
HETATM   33  N6  UNL     1      22.921  28.077  10.409  1.00  0.00    -0.306 N 
HETATM   34  S1  UNL     1      21.083  26.216  11.298  1.00  0.00    -0.038 SA
HETATM   35  C19 UNL     1      23.815  27.641  11.450  1.00  0.00     0.223 C 
ATOM     36  H6  UNL     1      23.180  28.818   9.756  1.00  0.00     0.171 HD
HETATM   37  O2  UNL     1      23.787  28.315  12.513  1.00  0.00    -0.273 OA
BRANCH  35  38
HETATM   38  C20 UNL     1      24.702  26.503  11.331  1.00  0.00     0.103 C 
BRANCH  38  39
HETATM   39  C21 UNL     1      25.510  26.516  10.076  1.00  0.00     0.009 C 
BRANCH  39  40
HETATM   40  C22 UNL     1      24.976  25.793   8.915  1.00  0.00     0.002 C 
BRANCH  40  41
HETATM   41  C23 UNL     1      23.974  24.734   9.097  1.00  0.00     0.027 C 
BRANCH  41  42
HETATM   42  C24 UNL     1      22.940  24.912   7.946  1.00  0.00     0.229 C 
BRANCH  42  43
HETATM   43  N7  UNL     1      23.210  26.203   7.336  1.00  0.00    -0.079 N 
ATOM     44  H73 UNL     1      22.392  26.615   6.888  1.00  0.00     0.274 HD
ATOM     45  H72 UNL     1      23.371  26.944   8.018  1.00  0.00     0.274 HD
ATOM     46  H71 UNL     1      23.993  26.067   6.697  1.00  0.00     0.274 HD
ENDBRANCH  42  43
ENDBRANCH  41  42
ENDBRANCH  40  41
ENDBRANCH  39  40
ENDBRANCH  38  39
ENDBRANCH  35  38
ENDBRANCH  26  27
ENDBRANCH  25  26
ENDBRANCH  24  25
ENDBRANCH  23  24
ENDBRANCH  20  23
ENDBRANCH  14  16
ENDBRANCH  11  14
ENDBRANCH  10  11
ENDBRANCH   8  10
BRANCH   9  47
HETATM   47  C26 UNL     1      18.963  32.540  14.907  1.00  0.00     0.036 C 
HETATM   48  C27 UNL     1      18.163  33.034  13.723  1.00  0.00     0.010 C 
ENDBRANCH   9  47
ENDBRANCH   3   4
TORSDOF 18
ENDMDL
MODEL 5
REMARK VINA RESULT: -7.740460220      1.991      3.103
REMARK  18 active torsions:
REMARK  status: ('A' for Active; 'I' for Inactive)
REMARK    1  A    between atoms: C3_3  and  C4_4 
REMARK    2  A    between atoms: C8_8  and  C9_9 
REMARK    3  A    between atoms: C9_9  and  C10_10 
REMARK    4  A    between atoms: C10_10  and  O1_11 
REMARK    5  A    between atoms: C10_10  and  N1_13 
REMARK    6  A    between atoms: N1_13  and  C11_15 
REMARK    7  A    between atoms: C12_20  and  C13_21 
REMARK    8  A    between atoms: C13_21  and  C14_22 
REMARK    9  A    between atoms: C14_22  and  C15_23 
REMARK   10  A    between atoms: C15_23  and  C16_24 
REMARK   11  A    between atoms: C16_24  and  C17_25 
REMARK       I    between atoms: N6_31  and  C19_33 
REMARK   12  A    between atoms: C19_33  and  C20_35 
REMARK   13  A    between atoms: C20_35  and  C21_36 
REMARK   14  A    between atoms: C21_36  and  C22_37 
REMARK   15  A    between atoms: C22_37  and  C23_38 
REMARK   16  A    between atoms: C23_38  and  C24_39 
REMARK   17  A    between atoms: C24_39  and  N7_40 
REMARK   18  A    between atoms: C25_46  and  C26_47 
ROOT
HETATM    1  C1  UNL     1      17.661  24.896   7.161  1.00  0.00     0.112 C 
HETATM    2  C2  UNL     1      17.672  25.986   8.136  1.00  0.00    -0.105 C 
HETATM    3  C3  UNL     1      17.693  26.886   8.968  1.00  0.00    -0.067 C 
ENDROOT
BRANCH   3   4
HETATM    4  C4  UNL     1      17.749  27.944   9.951  1.00  0.00     0.024 A 
HETATM    5  C5  UNL     1      16.623  28.619  10.365  1.00  0.00     0.021 A 
HETATM    6  C6  UNL     1      16.696  29.636  11.293  1.00  0.00     0.002 A 
HETATM    7  C7  UNL     1      17.922  29.969  11.806  1.00  0.00     0.008 A 
HETATM    8  C8  UNL     1      19.076  29.290  11.394  1.00  0.00    -0.043 A 
HETATM    9  C25 UNL     1      19.010  28.289  10.481  1.00  0.00    -0.033 A 
BRANCH   8  10
HETATM   10  C9  UNL     1      20.334  29.711  12.033  1.00  0.00     0.123 C 
BRANCH  10  11
HETATM   11  C10 UNL     1      20.333  29.364  13.459  1.00  0.00     0.121 C 
BRANCH  11  12
HETATM   12  O1  UNL     1      20.746  28.152  13.713  1.00  0.00    -0.349 OA
ATOM     13  H1  UNL     1      20.829  27.956  14.638  1.00  0.00     0.219 HD
ENDBRANCH  11  12
BRANCH  11  14
HETATM   14  N1  UNL     1      19.976  30.079  14.569  1.00  0.00    -0.320 N 
ATOM     15  H1  UNL     1      18.990  30.020  14.822  1.00  0.00     0.169 HD
BRANCH  14  16
HETATM   16  C11 UNL     1      20.688  30.809  15.334  1.00  0.00     0.166 A 
HETATM   17  N2  UNL     1      20.827  30.931  16.651  1.00  0.00    -0.279 N 
HETATM   18  N3  UNL     1      21.633  31.780  17.121  1.00  0.00    -0.296 N 
ATOM     19  H2  UNL     1      20.284  30.339  17.279  1.00  0.00     0.189 HD
HETATM   20  C12 UNL     1      22.354  32.563  16.360  1.00  0.00     0.069 A 
ATOM     21  H3  UNL     1      21.726  31.859  18.133  1.00  0.00     0.187 HD
HETATM   22  S2  UNL     1      21.826  32.031  14.795  1.00  0.00    -0.038 SA
BRANCH  20  23
HETATM   23  C13 UNL     1      23.355  33.618  16.657  1.00  0.00     0.066 C 
BRANCH  23  24
HETATM   24  C14 UNL     1      22.797  34.865  17.162  1.00  0.00     0.007 C 
BRANCH  24  25
HETATM   25  C15 UNL     1      21.852  34.855  18.279  1.00  0.00     0.007 C 
BRANCH  25  26
HETATM   26  C16 UNL     1      20.547  35.526  18.228  1.00  0.00     0.066 C 
BRANCH  26  27
HETATM   27  C17 UNL     1      19.778  34.869  17.086  1.00  0.00     0.069 A 
HETATM   28  N4  UNL     1      19.913  35.132  15.802  1.00  0.00    -0.296 N 
HETATM   29  N5  UNL     1      19.204  34.514  14.949  1.00  0.00    -0.279 N 
ATOM     30  H4  UNL     1      20.588  35.832  15.494  1.00  0.00     0.187 HD
HETATM   31  C18 UNL     1      18.329  33.603  15.377  1.00  0.00     0.167 A 
ATOM     32  H5  UNL     1      19.302  34.712  13.953  1.00  0.00     0.189 HD
HETATM   33  N6  UNL     1      17.513  32.868  14.655  1.00  0.00    -0.306 N 
HETATM   34  S1  UNL     1      18.572  33.673  17.077  1.00  0.00    -0.038 SA
HETATM   35  C19 UNL     1      16.662  31.952  15.371  1.00  0.00     0.223 C 
ATOM     36  H6  UNL     1      17.484  32.943  13.639  1.00  0.00     0.171 HD
HETATM   37  O2  UNL     1      17.090  30.772  15.470  1.00  0.00    -0.273 OA
BRANCH  35  38
HETATM   38  C20 UNL     1      15.393  32.320  15.961  1.00  0.00     0.103 C 
BRANCH  38  39
HETATM   39  C21 UNL     1      15.104  33.782  15.870  1.00  0.00     0.009 C 
BRANCH  39  40
HETATM   40  C22 UNL     1      14.928  34.520  17.127  1.00  0.00     0.002 C 
BRANCH  40  41
HETATM   41  C23 UNL     1      15.203  35.962  17.187  1.00  0.00     0.027 C 
BRANCH  41  42
HETATM   42  C24 UNL     1      15.938  36.210  18.536  1.00  0.00     0.229 C 
BRANCH  42  43
HETATM   43  N7  UNL     1      15.596  37.557  18.958  1.00  0.00    -0.079 N 
ATOM     44  H73 UNL     1      16.040  38.281  18.393  1.00  0.00     0.274 HD
ATOM     45  H72 UNL     1      14.629  37.810  18.754  1.00  0.00     0.274 HD
ATOM     46  H71 UNL     1      15.828  37.622  19.950  1.00  0.00     0.274 HD
ENDBRANCH  42  43
ENDBRANCH  41  42
ENDBRANCH  40  41
ENDBRANCH  39  40
ENDBRANCH  38  39
ENDBRANCH  35  38
ENDBRANCH  26  27
ENDBRANCH  25  26
ENDBRANCH  24  25
ENDBRANCH  23  24
ENDBRANCH  20  23
ENDBRANCH  14  16
ENDBRANCH  11  14
ENDBRANCH  10  11
ENDBRANCH   8  10
BRANCH   9  47
HETATM   47  C26 UNL     1      20.185  27.581   9.985  1.00  0.00     0.036 C 
HETATM   48  C27 UNL     1      20.569  26.347  10.768  1.00  0.00     0.010 C 
ENDBRANCH   9  47
ENDBRANCH   3   4
TORSDOF 18
ENDMDL
