MODEL 1
REMARK VINA RESULT: -8.645134001      0.000      0.000
REMARK  14 active torsions:
REMARK  status: ('A' for Active; 'I' for Inactive)
REMARK    1  A    between atoms: C5_5  and  C6_6 
REMARK       I    between atoms: C6_6  and  N1_8 
REMARK    2  A    between atoms: N1_8  and  C7_10 
REMARK    3  A    between atoms: C7_10  and  C8_11 
REMARK    4  A    between atoms: C7_10  and  C12_19 
REMARK    5  A    between atoms: C8_11  and  C9_12 
REMARK    6  A    between atoms: C9_12  and  C10_13 
REMARK    7  A    between atoms: C10_13  and  C11_14 
REMARK    8  A    between atoms: C11_14  and  N2_15 
REMARK       I    between atoms: C12_19  and  N3_21 
REMARK    9  A    between atoms: N3_21  and  C13_23 
REMARK   10  A    between atoms: C13_23  and  C14_24 
REMARK   11  A    between atoms: C14_24  and  C15_25 
REMARK   12  A    between atoms: C15_25  and  N4_26 
REMARK   13  A    between atoms: C22_36  and  C23_37 
REMARK   14  A    between atoms: C23_37  and  C24_38 
ROOT
HETATM    1  C6  UNL     1      20.647  30.608  12.059  1.00  0.00     0.269 C 
HETATM    2  O1  UNL     1      20.726  31.584  11.343  1.00  0.00    -0.266 OA
HETATM    3  N1  UNL     1      20.919  30.849  13.474  1.00  0.00    -0.342 N 
ATOM      4  H1  UNL     1      20.859  30.065  14.124  1.00  0.00     0.163 HD
ENDROOT
BRANCH   3   5
HETATM    5  C7  UNL     1      21.265  32.136  13.986  1.00  0.00     0.177 C 
BRANCH   5   6
HETATM    6  C8  UNL     1      22.301  32.052  15.079  1.00  0.00     0.035 C 
BRANCH   6   7
HETATM    7  C9  UNL     1      23.484  32.877  14.630  1.00  0.00     0.004 C 
BRANCH   7   8
HETATM    8  C10 UNL     1      23.827  34.001  15.560  1.00  0.00     0.027 C 
BRANCH   8   9
HETATM    9  C11 UNL     1      23.195  33.771  16.908  1.00  0.00     0.229 C 
BRANCH   9  10
HETATM   10  N2  UNL     1      22.367  34.926  17.253  1.00  0.00    -0.079 N 
ATOM     11  H23 UNL     1      22.824  35.811  17.031  1.00  0.00     0.274 HD
ATOM     12  H22 UNL     1      21.561  35.023  16.636  1.00  0.00     0.274 HD
ATOM     13  H21 UNL     1      22.100  34.864  18.235  1.00  0.00     0.274 HD
ENDBRANCH   9  10
ENDBRANCH   8   9
ENDBRANCH   7   8
ENDBRANCH   6   7
ENDBRANCH   5   6
BRANCH   5  14
HETATM   14  C12 UNL     1      20.057  32.916  14.394  1.00  0.00     0.240 C 
HETATM   15  O2  UNL     1      20.170  33.649  15.404  1.00  0.00    -0.271 OA
HETATM   16  N3  UNL     1      18.819  32.865  13.713  1.00  0.00    -0.359 N 
ATOM     17  H3  UNL     1      18.723  32.275  12.887  1.00  0.00     0.162 HD
BRANCH  16  18
HETATM   18  C13 UNL     1      17.700  33.630  14.168  1.00  0.00     0.124 C 
BRANCH  18  19
HETATM   19  C14 UNL     1      16.642  32.882  14.915  1.00  0.00     0.050 C 
BRANCH  19  20
HETATM   20  C15 UNL     1      16.823  33.228  16.405  1.00  0.00     0.274 C 
BRANCH  20  21
HETATM   21  N4  UNL     1      16.849  34.686  16.484  1.00  0.00     0.092 N 
HETATM   22  C16 UNL     1      15.491  35.218  16.402  1.00  0.00     0.298 C 
HETATM   23  C17 UNL     1      14.699  34.930  17.646  1.00  0.00     0.198 C 
HETATM   24  O3  UNL     1      15.365  35.346  18.796  1.00  0.00    -0.388 OA
HETATM   25  C18 UNL     1      16.527  36.053  18.509  1.00  0.00     0.198 C 
HETATM   26  C19 UNL     1      17.456  35.102  17.754  1.00  0.00     0.298 C 
ENDBRANCH  20  21
ENDBRANCH  19  20
ENDBRANCH  18  19
ENDBRANCH  16  18
ENDBRANCH   5  14
ENDBRANCH   3   5
BRANCH   1  27
HETATM   27  C5  UNL     1      20.312  29.262  11.634  1.00  0.00     0.112 A 
HETATM   28  C4  UNL     1      21.248  28.264  11.490  1.00  0.00     0.011 A 
HETATM   29  C3  UNL     1      22.565  28.480  11.712  1.00  0.00     0.039 A 
HETATM   30  C29 UNL     1      20.806  26.960  11.147  1.00  0.00     0.007 A 
HETATM   31  C2  UNL     1      23.470  27.446  11.614  1.00  0.00     0.006 A 
HETATM   32  C1  UNL     1      24.936  27.674  11.865  1.00  0.00     0.068 C 
HETATM   33  N6  UNL     1      23.026  26.241  11.300  1.00  0.00    -0.363 N 
HETATM   34  C30 UNL     1      21.703  25.927  11.056  1.00  0.00     0.017 A 
ATOM     35  H6  UNL     1      23.711  25.487  11.234  1.00  0.00     0.165 HD
HETATM   36  C31 UNL     1      21.349  24.525  10.903  1.00  0.00     0.069 C 
HETATM   37  C22 UNL     1      19.456  26.749  10.954  1.00  0.00    -0.022 A 
HETATM   38  C20 UNL     1      18.525  27.806  11.121  1.00  0.00     0.013 A 
HETATM   39  N5  UNL     1      19.003  28.987  11.446  1.00  0.00    -0.354 N 
HETATM   40  C21 UNL     1      17.084  27.563  11.056  1.00  0.00     0.068 C 
ATOM     41  H5  UNL     1      18.337  29.751  11.565  1.00  0.00     0.166 HD
BRANCH  37  42
HETATM   42  C23 UNL     1      18.912  25.531  10.393  1.00  0.00     0.046 C 
BRANCH  42  43
HETATM   43  C24 UNL     1      18.656  25.912   8.896  1.00  0.00    -0.010 C 
HETATM   44  C25 UNL     1      17.527  25.038   8.338  1.00  0.00     0.005 C 
HETATM   45  C26 UNL     1      17.587  25.324   6.855  1.00  0.00     0.000 C 
HETATM   46  C27 UNL     1      19.064  25.443   6.586  1.00  0.00     0.000 C 
HETATM   47  C28 UNL     1      19.763  25.474   7.948  1.00  0.00     0.005 C 
ENDBRANCH  42  43
ENDBRANCH  37  42
ENDBRANCH   1  27
TORSDOF 14
ENDMDL
MODEL 2
REMARK VINA RESULT: -8.269379928      0.833      1.018
REMARK  14 active torsions:
REMARK  status: ('A' for Active; 'I' for Inactive)
REMARK    1  A    between atoms: C5_5  and  C6_6 
REMARK       I    between atoms: C6_6  and  N1_8 
REMARK    2  A    between atoms: N1_8  and  C7_10 
REMARK    3  A    between atoms: C7_10  and  C8_11 
REMARK    4  A    between atoms: C7_10  and  C12_19 
REMARK    5  A    between atoms: C8_11  and  C9_12 
REMARK    6  A    between atoms: C9_12  and  C10_13 
REMARK    7  A    between atoms: C10_13  and  C11_14 
REMARK    8  A    between atoms: C11_14  and  N2_15 
REMARK       I    between atoms: C12_19  and  N3_21 
REMARK    9  A    between atoms: N3_21  and  C13_23 
REMARK   10  A    between atoms: C13_23  and  C14_24 
REMARK   11  A    between atoms: C14_24  and  C15_25 
REMARK   12  A    between atoms: C15_25  and  N4_26 
REMARK   13  A    between atoms: C22_36  and  C23_37 
REMARK   14  A    between atoms: C23_37  and  C24_38 
ROOT
HETATM    1  C6  UNL     1      20.321  30.490  12.055  1.00  0.00     0.269 C 
HETATM    2  O1  UNL     1      20.281  31.535  11.442  1.00  0.00    -0.266 OA
HETATM    3  N1  UNL     1      20.703  30.606  13.461  1.00  0.00    -0.342 N 
ATOM      4  H1  UNL     1      20.745  29.758  14.027  1.00  0.00     0.163 HD
ENDROOT
BRANCH   3   5
HETATM    5  C7  UNL     1      21.018  31.855  14.076  1.00  0.00     0.177 C 
BRANCH   5   6
HETATM    6  C8  UNL     1      22.333  31.808  14.815  1.00  0.00     0.035 C 
BRANCH   6   7
HETATM    7  C9  UNL     1      23.203  32.899  14.236  1.00  0.00     0.004 C 
BRANCH   7   8
HETATM    8  C10 UNL     1      23.947  33.691  15.268  1.00  0.00     0.027 C 
BRANCH   8   9
HETATM    9  C11 UNL     1      23.101  33.859  16.503  1.00  0.00     0.229 C 
BRANCH   9  10
HETATM   10  N2  UNL     1      22.299  35.074  16.374  1.00  0.00    -0.079 N 
ATOM     11  H23 UNL     1      22.834  35.854  15.993  1.00  0.00     0.274 HD
ATOM     12  H22 UNL     1      21.603  35.001  15.630  1.00  0.00     0.274 HD
ATOM     13  H21 UNL     1      21.880  35.295  17.276  1.00  0.00     0.274 HD
ENDBRANCH   9  10
ENDBRANCH   8   9
ENDBRANCH   7   8
ENDBRANCH   6   7
ENDBRANCH   5   6
BRANCH   5  14
HETATM   14  C12 UNL     1      19.896  32.356  14.926  1.00  0.00     0.240 C 
HETATM   15  O2  UNL     1      19.883  33.582  15.183  1.00  0.00    -0.271 OA
HETATM   16  N3  UNL     1      18.871  31.531  15.445  1.00  0.00    -0.359 N 
ATOM     17  H3  UNL     1      18.872  30.534  15.234  1.00  0.00     0.162 HD
BRANCH  16  18
HETATM   18  C13 UNL     1      17.833  32.078  16.263  1.00  0.00     0.124 C 
BRANCH  18  19
HETATM   19  C14 UNL     1      16.498  32.257  15.612  1.00  0.00     0.050 C 
BRANCH  19  20
HETATM   20  C15 UNL     1      16.179  33.763  15.663  1.00  0.00     0.274 C 
BRANCH  20  21
HETATM   21  N4  UNL     1      16.562  34.216  16.998  1.00  0.00     0.092 N 
HETATM   22  C16 UNL     1      17.312  35.467  16.906  1.00  0.00     0.298 C 
HETATM   23  C17 UNL     1      16.434  36.620  16.511  1.00  0.00     0.198 C 
HETATM   24  O3  UNL     1      15.315  36.730  17.332  1.00  0.00    -0.388 OA
HETATM   25  C18 UNL     1      15.354  35.842  18.401  1.00  0.00     0.198 C 
HETATM   26  C19 UNL     1      15.360  34.431  17.812  1.00  0.00     0.298 C 
ENDBRANCH  20  21
ENDBRANCH  19  20
ENDBRANCH  18  19
ENDBRANCH  16  18
ENDBRANCH   5  14
ENDBRANCH   3   5
BRANCH   1  27
HETATM   27  C5  UNL     1      20.028  29.174  11.520  1.00  0.00     0.112 A 
HETATM   28  C4  UNL     1      20.987  28.202  11.346  1.00  0.00     0.011 A 
HETATM   29  C3  UNL     1      22.289  28.420  11.642  1.00  0.00     0.039 A 
HETATM   30  C29 UNL     1      20.582  26.920  10.890  1.00  0.00     0.007 A 
HETATM   31  C2  UNL     1      23.214  27.407  11.509  1.00  0.00     0.006 A 
HETATM   32  C1  UNL     1      24.664  27.636  11.841  1.00  0.00     0.068 C 
HETATM   33  N6  UNL     1      22.805  26.223  11.090  1.00  0.00    -0.363 N 
HETATM   34  C30 UNL     1      21.499  25.910  10.765  1.00  0.00     0.017 A 
ATOM     35  H6  UNL     1      23.505  25.486  11.000  1.00  0.00     0.165 HD
HETATM   36  C31 UNL     1      21.176  24.517  10.495  1.00  0.00     0.069 C 
HETATM   37  C22 UNL     1      19.245  26.705  10.623  1.00  0.00    -0.022 A 
HETATM   38  C20 UNL     1      18.290  27.734  10.824  1.00  0.00     0.013 A 
HETATM   39  N5  UNL     1      18.733  28.895  11.255  1.00  0.00    -0.354 N 
HETATM   40  C21 UNL     1      16.857  27.477  10.678  1.00  0.00     0.068 C 
ATOM     41  H5  UNL     1      18.050  29.639  11.398  1.00  0.00     0.166 HD
BRANCH  37  42
HETATM   42  C23 UNL     1      18.746  25.524   9.952  1.00  0.00     0.046 C 
BRANCH  42  43
HETATM   43  C24 UNL     1      18.595  25.996   8.467  1.00  0.00    -0.010 C 
HETATM   44  C25 UNL     1      17.374  25.312   7.841  1.00  0.00     0.005 C 
HETATM   45  C26 UNL     1      17.521  25.645   6.374  1.00  0.00     0.000 C 
HETATM   46  C27 UNL     1      19.008  25.567   6.150  1.00  0.00     0.000 C 
HETATM   47  C28 UNL     1      19.661  25.446   7.530  1.00  0.00     0.005 C 
ENDBRANCH  42  43
ENDBRANCH  37  42
ENDBRANCH   1  27
TORSDOF 14
ENDMDL
MODEL 3
REMARK VINA RESULT: -8.241855994      1.698      2.274
REMARK  14 active torsions:
REMARK  status: ('A' for Active; 'I' for Inactive)
REMARK    1  A    between atoms: C5_5  and  C6_6 
REMARK       I    between atoms: C6_6  and  N1_8 
REMARK    2  A    between atoms: N1_8  and  C7_10 
REMARK    3  A    between atoms: C7_10  and  C8_11 
REMARK    4  A    between atoms: C7_10  and  C12_19 
REMARK    5  A    between atoms: C8_11  and  C9_12 
REMARK    6  A    between atoms: C9_12  and  C10_13 
REMARK    7  A    between atoms: C10_13  and  C11_14 
REMARK    8  A    between atoms: C11_14  and  N2_15 
REMARK       I    between atoms: C12_19  and  N3_21 
REMARK    9  A    between atoms: N3_21  and  C13_23 
REMARK   10  A    between atoms: C13_23  and  C14_24 
REMARK   11  A    between atoms: C14_24  and  C15_25 
REMARK   12  A    between atoms: C15_25  and  N4_26 
REMARK   13  A    between atoms: C22_36  and  C23_37 
REMARK   14  A    between atoms: C23_37  and  C24_38 
ROOT
HETATM    1  C6  UNL     1      20.979  30.576  12.393  1.00  0.00     0.269 C 
HETATM    2  O1  UNL     1      21.206  31.502  11.644  1.00  0.00    -0.266 OA
HETATM    3  N1  UNL     1      21.207  30.850  13.811  1.00  0.00    -0.342 N 
ATOM      4  H1  UNL     1      21.024  30.108  14.486  1.00  0.00     0.163 HD
ENDROOT
BRANCH   3   5
HETATM    5  C7  UNL     1      21.674  32.111  14.289  1.00  0.00     0.177 C 
BRANCH   5   6
HETATM    6  C8  UNL     1      23.174  32.136  14.451  1.00  0.00     0.035 C 
BRANCH   6   7
HETATM    7  C9  UNL     1      23.594  33.587  14.446  1.00  0.00     0.004 C 
BRANCH   7   8
HETATM    8  C10 UNL     1      24.247  34.033  15.719  1.00  0.00     0.027 C 
BRANCH   8   9
HETATM    9  C11 UNL     1      23.335  34.965  16.472  1.00  0.00     0.229 C 
BRANCH   9  10
HETATM   10  N2  UNL     1      22.941  34.337  17.732  1.00  0.00    -0.079 N 
ATOM     11  H23 UNL     1      23.147  33.338  17.748  1.00  0.00     0.274 HD
ATOM     12  H22 UNL     1      23.538  34.619  18.509  1.00  0.00     0.274 HD
ATOM     13  H21 UNL     1      21.956  34.532  17.909  1.00  0.00     0.274 HD
ENDBRANCH   9  10
ENDBRANCH   8   9
ENDBRANCH   7   8
ENDBRANCH   6   7
ENDBRANCH   5   6
BRANCH   5  14
HETATM   14  C12 UNL     1      20.952  32.539  15.525  1.00  0.00     0.240 C 
HETATM   15  O2  UNL     1      21.111  31.832  16.548  1.00  0.00    -0.271 OA
HETATM   16  N3  UNL     1      20.115  33.676  15.596  1.00  0.00    -0.359 N 
ATOM     17  H3  UNL     1      19.987  34.259  14.769  1.00  0.00     0.162 HD
BRANCH  16  18
HETATM   18  C13 UNL     1      19.445  34.019  16.811  1.00  0.00     0.124 C 
BRANCH  18  19
HETATM   19  C14 UNL     1      18.068  33.462  16.992  1.00  0.00     0.050 C 
BRANCH  19  20
HETATM   20  C15 UNL     1      17.241  33.921  15.775  1.00  0.00     0.274 C 
BRANCH  20  21
HETATM   21  N4  UNL     1      16.444  32.768  15.366  1.00  0.00     0.092 N 
HETATM   22  C16 UNL     1      16.500  32.610  13.915  1.00  0.00     0.298 C 
HETATM   23  C17 UNL     1      17.849  32.138  13.452  1.00  0.00     0.198 C 
HETATM   24  O3  UNL     1      18.261  30.993  14.129  1.00  0.00    -0.388 OA
HETATM   25  C18 UNL     1      17.270  30.482  14.959  1.00  0.00     0.198 C 
HETATM   26  C19 UNL     1      16.965  31.554  16.006  1.00  0.00     0.298 C 
ENDBRANCH  20  21
ENDBRANCH  19  20
ENDBRANCH  18  19
ENDBRANCH  16  18
ENDBRANCH   5  14
ENDBRANCH   3   5
BRANCH   1  27
HETATM   27  C5  UNL     1      20.511  29.259  12.005  1.00  0.00     0.112 A 
HETATM   28  C4  UNL     1      21.359  28.212  11.723  1.00  0.00     0.011 A 
HETATM   29  C3  UNL     1      22.704  28.350  11.763  1.00  0.00     0.039 A 
HETATM   30  C29 UNL     1      20.799  26.942  11.430  1.00  0.00     0.007 A 
HETATM   31  C2  UNL     1      23.525  27.268  11.530  1.00  0.00     0.006 A 
HETATM   32  C1  UNL     1      25.022  27.409  11.579  1.00  0.00     0.068 C 
HETATM   33  N6  UNL     1      22.973  26.096  11.269  1.00  0.00    -0.363 N 
HETATM   34  C30 UNL     1      21.614  25.862  11.206  1.00  0.00     0.017 A 
ATOM     35  H6  UNL     1      23.598  25.307  11.101  1.00  0.00     0.165 HD
HETATM   36  C31 UNL     1      21.160  24.485  11.089  1.00  0.00     0.069 C 
HETATM   37  C22 UNL     1      19.425  26.811  11.424  1.00  0.00    -0.022 A 
HETATM   38  C20 UNL     1      18.589  27.915  11.729  1.00  0.00     0.013 A 
HETATM   39  N5  UNL     1      19.175  29.061  11.997  1.00  0.00    -0.354 N 
HETATM   40  C21 UNL     1      17.141  27.754  11.861  1.00  0.00     0.068 C 
ATOM     41  H5  UNL     1      18.577  29.859  12.214  1.00  0.00     0.166 HD
BRANCH  37  42
HETATM   42  C23 UNL     1      18.739  25.636  10.932  1.00  0.00     0.046 C 
BRANCH  42  43
HETATM   43  C24 UNL     1      18.214  26.092   9.529  1.00  0.00    -0.010 C 
HETATM   44  C25 UNL     1      17.460  24.932   8.869  1.00  0.00     0.005 C 
HETATM   45  C26 UNL     1      17.263  25.424   7.454  1.00  0.00     0.000 C 
HETATM   46  C27 UNL     1      18.547  26.153   7.160  1.00  0.00     0.000 C 
HETATM   47  C28 UNL     1      19.308  26.265   8.484  1.00  0.00     0.005 C 
ENDBRANCH  42  43
ENDBRANCH  37  42
ENDBRANCH   1  27
TORSDOF 14
ENDMDL
MODEL 4
REMARK VINA RESULT: -8.223568403      1.725      3.150
REMARK  14 active torsions:
REMARK  status: ('A' for Active; 'I' for Inactive)
REMARK    1  A    between atoms: C5_5  and  C6_6 
REMARK       I    between atoms: C6_6  and  N1_8 
REMARK    2  A    between atoms: N1_8  and  C7_10 
REMARK    3  A    between atoms: C7_10  and  C8_11 
REMARK    4  A    between atoms: C7_10  and  C12_19 
REMARK    5  A    between atoms: C8_11  and  C9_12 
REMARK    6  A    between atoms: C9_12  and  C10_13 
REMARK    7  A    between atoms: C10_13  and  C11_14 
REMARK    8  A    between atoms: C11_14  and  N2_15 
REMARK       I    between atoms: C12_19  and  N3_21 
REMARK    9  A    between atoms: N3_21  and  C13_23 
REMARK   10  A    between atoms: C13_23  and  C14_24 
REMARK   11  A    between atoms: C14_24  and  C15_25 
REMARK   12  A    between atoms: C15_25  and  N4_26 
REMARK   13  A    between atoms: C22_36  and  C23_37 
REMARK   14  A    between atoms: C23_37  and  C24_38 
ROOT
HETATM    1  C6  UNL     1      21.649  30.074  12.178  1.00  0.00     0.269 C 
HETATM    2  O1  UNL     1      21.188  30.986  11.526  1.00  0.00    -0.266 OA
HETATM    3  N1  UNL     1      21.997  30.407  13.558  1.00  0.00    -0.342 N 
ATOM      4  H1  UNL     1      22.383  29.674  14.155  1.00  0.00     0.163 HD
ENDROOT
BRANCH   3   5
HETATM    5  C7  UNL     1      21.821  31.713  14.106  1.00  0.00     0.177 C 
BRANCH   5   6
HETATM    6  C8  UNL     1      22.853  32.031  15.159  1.00  0.00     0.035 C 
BRANCH   6   7
HETATM    7  C9  UNL     1      23.363  33.424  14.871  1.00  0.00     0.004 C 
BRANCH   7   8
HETATM    8  C10 UNL     1      22.989  34.433  15.913  1.00  0.00     0.027 C 
BRANCH   8   9
HETATM    9  C11 UNL     1      22.736  33.749  17.231  1.00  0.00     0.229 C 
BRANCH   9  10
HETATM   10  N2  UNL     1      21.347  33.972  17.628  1.00  0.00    -0.079 N 
ATOM     11  H23 UNL     1      20.773  33.135  17.520  1.00  0.00     0.274 HD
ATOM     12  H22 UNL     1      21.246  34.086  18.637  1.00  0.00     0.274 HD
ATOM     13  H21 UNL     1      20.974  34.766  17.108  1.00  0.00     0.274 HD
ENDBRANCH   9  10
ENDBRANCH   8   9
ENDBRANCH   7   8
ENDBRANCH   6   7
ENDBRANCH   5   6
BRANCH   5  14
HETATM   14  C12 UNL     1      20.422  31.932  14.584  1.00  0.00     0.240 C 
HETATM   15  O2  UNL     1      20.205  31.752  15.805  1.00  0.00    -0.271 OA
HETATM   16  N3  UNL     1      19.353  32.320  13.743  1.00  0.00    -0.359 N 
ATOM     17  H3  UNL     1      19.525  32.475  12.750  1.00  0.00     0.162 HD
BRANCH  16  18
HETATM   18  C13 UNL     1      18.035  32.499  14.268  1.00  0.00     0.124 C 
BRANCH  18  19
HETATM   19  C14 UNL     1      17.554  33.910  14.390  1.00  0.00     0.050 C 
BRANCH  19  20
HETATM   20  C15 UNL     1      17.693  34.299  15.874  1.00  0.00     0.274 C 
BRANCH  20  21
HETATM   21  N4  UNL     1      16.654  35.293  16.133  1.00  0.00     0.092 N 
HETATM   22  C16 UNL     1      15.356  34.637  16.268  1.00  0.00     0.298 C 
HETATM   23  C17 UNL     1      15.252  33.852  17.544  1.00  0.00     0.198 C 
HETATM   24  O3  UNL     1      15.578  34.621  18.658  1.00  0.00    -0.388 OA
HETATM   25  C18 UNL     1      15.777  35.959  18.338  1.00  0.00     0.198 C 
HETATM   26  C19 UNL     1      16.961  36.018  17.372  1.00  0.00     0.298 C 
ENDBRANCH  20  21
ENDBRANCH  19  20
ENDBRANCH  18  19
ENDBRANCH  16  18
ENDBRANCH   5  14
ENDBRANCH   3   5
BRANCH   1  27
HETATM   27  C5  UNL     1      21.874  28.719  11.712  1.00  0.00     0.112 A 
HETATM   28  C4  UNL     1      20.877  27.773  11.639  1.00  0.00     0.011 A 
HETATM   29  C3  UNL     1      19.609  28.039  12.026  1.00  0.00     0.039 A 
HETATM   30  C29 UNL     1      21.185  26.500  11.093  1.00  0.00     0.007 A 
HETATM   31  C2  UNL     1      18.622  27.087  11.888  1.00  0.00     0.006 A 
HETATM   32  C1  UNL     1      17.206  27.374  12.310  1.00  0.00     0.068 C 
HETATM   33  N6  UNL     1      18.938  25.914  11.368  1.00  0.00    -0.363 N 
HETATM   34  C30 UNL     1      20.203  25.555  10.946  1.00  0.00     0.017 A 
ATOM     35  H6  UNL     1      18.193  25.223  11.272  1.00  0.00     0.165 HD
HETATM   36  C31 UNL     1      20.355  24.297  10.230  1.00  0.00     0.069 C 
HETATM   37  C22 UNL     1      22.477  26.255  10.673  1.00  0.00    -0.022 A 
HETATM   38  C20 UNL     1      23.471  27.263  10.759  1.00  0.00     0.013 A 
HETATM   39  N5  UNL     1      23.116  28.422  11.270  1.00  0.00    -0.354 N 
HETATM   40  C21 UNL     1      24.805  27.062  10.191  1.00  0.00     0.068 C 
ATOM     41  H5  UNL     1      23.829  29.148  11.336  1.00  0.00     0.166 HD
BRANCH  37  42
HETATM   42  C23 UNL     1      22.961  24.942  10.307  1.00  0.00     0.046 C 
BRANCH  42  43
HETATM   43  C24 UNL     1      23.557  25.168   8.877  1.00  0.00    -0.010 C 
HETATM   44  C25 UNL     1      22.418  25.482   7.899  1.00  0.00     0.005 C 
HETATM   45  C26 UNL     1      23.103  25.403   6.554  1.00  0.00     0.000 C 
HETATM   46  C27 UNL     1      24.066  24.258   6.723  1.00  0.00     0.000 C 
HETATM   47  C28 UNL     1      24.074  23.900   8.213  1.00  0.00     0.005 C 
ENDBRANCH  42  43
ENDBRANCH  37  42
ENDBRANCH   1  27
TORSDOF 14
ENDMDL
MODEL 5
REMARK VINA RESULT: -8.199273158      2.712     10.766
REMARK  14 active torsions:
REMARK  status: ('A' for Active; 'I' for Inactive)
REMARK    1  A    between atoms: C5_5  and  C6_6 
REMARK       I    between atoms: C6_6  and  N1_8 
REMARK    2  A    between atoms: N1_8  and  C7_10 
REMARK    3  A    between atoms: C7_10  and  C8_11 
REMARK    4  A    between atoms: C7_10  and  C12_19 
REMARK    5  A    between atoms: C8_11  and  C9_12 
REMARK    6  A    between atoms: C9_12  and  C10_13 
REMARK    7  A    between atoms: C10_13  and  C11_14 
REMARK    8  A    between atoms: C11_14  and  N2_15 
REMARK       I    between atoms: C12_19  and  N3_21 
REMARK    9  A    between atoms: N3_21  and  C13_23 
REMARK   10  A    between atoms: C13_23  and  C14_24 
REMARK   11  A    between atoms: C14_24  and  C15_25 
REMARK   12  A    between atoms: C15_25  and  N4_26 
REMARK   13  A    between atoms: C22_36  and  C23_37 
REMARK   14  A    between atoms: C23_37  and  C24_38 
ROOT
HETATM    1  C6  UNL     1      20.014  32.123  12.873  1.00  0.00     0.269 C 
HETATM    2  O1  UNL     1      19.794  32.583  11.773  1.00  0.00    -0.266 OA
HETATM    3  N1  UNL     1      20.127  30.667  12.930  1.00  0.00    -0.342 N 
ATOM      4  H1  UNL     1      20.319  30.227  13.830  1.00  0.00     0.163 HD
ENDROOT
BRANCH   3   5
HETATM    5  C7  UNL     1      19.980  29.835  11.779  1.00  0.00     0.177 C 
BRANCH   5   6
HETATM    6  C8  UNL     1      18.568  29.329  11.621  1.00  0.00     0.035 C 
BRANCH   6   7
HETATM    7  C9  UNL     1      17.998  29.170  13.011  1.00  0.00     0.004 C 
BRANCH   7   8
HETATM    8  C10 UNL     1      17.715  27.748  13.390  1.00  0.00     0.027 C 
BRANCH   8   9
HETATM    9  C11 UNL     1      17.319  26.956  12.172  1.00  0.00     0.229 C 
BRANCH   9  10
HETATM   10  N2  UNL     1      18.299  25.893  11.952  1.00  0.00    -0.079 N 
ATOM     11  H23 UNL     1      19.236  26.161  12.253  1.00  0.00     0.274 HD
ATOM     12  H22 UNL     1      18.164  25.105  12.587  1.00  0.00     0.274 HD
ATOM     13  H21 UNL     1      18.272  25.611  10.973  1.00  0.00     0.274 HD
ENDBRANCH   9  10
ENDBRANCH   8   9
ENDBRANCH   7   8
ENDBRANCH   6   7
ENDBRANCH   5   6
BRANCH   5  14
HETATM   14  C12 UNL     1      20.993  28.737  11.753  1.00  0.00     0.240 C 
HETATM   15  O2  UNL     1      20.629  27.640  11.269  1.00  0.00    -0.271 OA
HETATM   16  N3  UNL     1      22.314  28.871  12.241  1.00  0.00    -0.359 N 
ATOM     17  H3  UNL     1      22.619  29.763  12.630  1.00  0.00     0.162 HD
BRANCH  16  18
HETATM   18  C13 UNL     1      23.227  27.772  12.196  1.00  0.00     0.124 C 
BRANCH  18  19
HETATM   19  C14 UNL     1      24.246  27.799  11.101  1.00  0.00     0.050 C 
BRANCH  19  20
HETATM   20  C15 UNL     1      24.921  26.414  11.090  1.00  0.00     0.274 C 
BRANCH  20  21
HETATM   21  N4  UNL     1      24.895  25.959   9.702  1.00  0.00     0.092 N 
HETATM   22  C16 UNL     1      24.249  24.651   9.615  1.00  0.00     0.298 C 
HETATM   23  C17 UNL     1      22.770  24.737   9.862  1.00  0.00     0.198 C 
HETATM   24  O3  UNL     1      22.159  25.687   9.047  1.00  0.00    -0.388 OA
HETATM   25  C18 UNL     1      23.034  26.219   8.107  1.00  0.00     0.198 C 
HETATM   26  C19 UNL     1      24.151  26.921   8.880  1.00  0.00     0.298 C 
ENDBRANCH  20  21
ENDBRANCH  19  20
ENDBRANCH  18  19
ENDBRANCH  16  18
ENDBRANCH   5  14
ENDBRANCH   3   5
BRANCH   1  27
HETATM   27  C5  UNL     1      20.170  32.881  14.100  1.00  0.00     0.112 A 
HETATM   28  C4  UNL     1      19.127  33.149  14.957  1.00  0.00     0.011 A 
HETATM   29  C3  UNL     1      17.864  32.741  14.696  1.00  0.00     0.039 A 
HETATM   30  C29 UNL     1      19.401  33.831  16.171  1.00  0.00     0.007 A 
HETATM   31  C2  UNL     1      16.852  32.977  15.602  1.00  0.00     0.006 A 
HETATM   32  C1  UNL     1      15.445  32.521  15.326  1.00  0.00     0.068 C 
HETATM   33  N6  UNL     1      17.140  33.607  16.727  1.00  0.00    -0.363 N 
HETATM   34  C30 UNL     1      18.398  34.059  17.077  1.00  0.00     0.017 A 
ATOM     35  H6  UNL     1      16.379  33.770  17.386  1.00  0.00     0.165 HD
HETATM   36  C31 UNL     1      18.591  34.571  18.425  1.00  0.00     0.069 C 
HETATM   37  C22 UNL     1      20.700  34.214  16.436  1.00  0.00    -0.022 A 
HETATM   38  C20 UNL     1      21.746  33.909  15.527  1.00  0.00     0.013 A 
HETATM   39  N5  UNL     1      21.422  33.269  14.424  1.00  0.00    -0.354 N 
HETATM   40  C21 UNL     1      23.144  34.185  15.861  1.00  0.00     0.068 C 
ATOM     41  H5  UNL     1      22.171  33.051  13.767  1.00  0.00     0.166 HD
BRANCH  37  42
HETATM   42  C23 UNL     1      21.065  35.096  17.522  1.00  0.00     0.046 C 
BRANCH  42  43
HETATM   43  C24 UNL     1      21.085  36.507  16.843  1.00  0.00    -0.010 C 
HETATM   44  C25 UNL     1      22.289  37.301  17.363  1.00  0.00     0.005 C 
HETATM   45  C26 UNL     1      22.020  38.694  16.841  1.00  0.00     0.000 C 
HETATM   46  C27 UNL     1      20.526  38.829  16.973  1.00  0.00     0.000 C 
HETATM   47  C28 UNL     1      19.982  37.440  17.320  1.00  0.00     0.005 C 
ENDBRANCH  42  43
ENDBRANCH  37  42
ENDBRANCH   1  27
TORSDOF 14
ENDMDL
