MODEL 1
REMARK VINA RESULT: -8.946067491      0.000      0.000
REMARK  15 active torsions:
REMARK  status: ('A' for Active; 'I' for Inactive)
REMARK    1  A    between atoms: C2_2  and  C3_3 
REMARK    2  A    between atoms: C2_2  and  C29_34 
REMARK    3  A    between atoms: C3_3  and  C4_4 
REMARK    4  A    between atoms: C4_4  and  C5_5 
REMARK    5  A    between atoms: C5_5  and  C6_6 
REMARK    6  A    between atoms: C6_6  and  O2_27 
REMARK    7  A    between atoms: C7_7  and  C8_8 
REMARK    8  A    between atoms: C8_8  and  C9_9 
REMARK    9  A    between atoms: C9_9  and  C10_10 
REMARK   10  A    between atoms: O2_27  and  C26_28 
REMARK   11  A    between atoms: C26_28  and  C27_29 
REMARK   12  A    between atoms: C27_29  and  O3_30 
REMARK   13  A    between atoms: O3_30  and  C28_31 
REMARK       I    between atoms: C29_34  and  N2_36 
REMARK   14  A    between atoms: C30_38  and  O6_39 
REMARK   15  A    between atoms: C30_38  and  C31_41 
ROOT
HETATM    1  C6  UNL     1      18.172  29.930  13.283  1.00  0.00     0.106 C 
HETATM    2  C7  UNL     1      17.771  31.209  13.600  1.00  0.00     0.019 C 
ENDROOT
BRANCH   1   3
HETATM    3  C5  UNL     1      17.660  29.383  12.146  1.00  0.00    -0.120 C 
BRANCH   3   4
HETATM    4  C4  UNL     1      17.188  28.877  11.096  1.00  0.00     0.088 C 
BRANCH   4   5
HETATM    5  C3  UNL     1      17.561  27.400  10.810  1.00  0.00     0.025 C 
BRANCH   5   6
HETATM    6  C2  UNL     1      18.757  27.467   9.904  1.00  0.00     0.075 C 
HETATM    7  C1  UNL     1      18.344  27.478   8.457  1.00  0.00     0.020 C 
BRANCH   6   8
HETATM    8  C29 UNL     1      19.827  26.545  10.234  1.00  0.00     0.227 C 
HETATM    9  O5  UNL     1      19.560  25.305  10.340  1.00  0.00    -0.273 OA
HETATM   10  N2  UNL     1      21.182  26.893  10.455  1.00  0.00    -0.302 N 
HETATM   11  C30 UNL     1      21.869  26.194  11.333  1.00  0.00     0.221 C 
ATOM     12  H2  UNL     1      21.615  27.665   9.946  1.00  0.00     0.171 HD
BRANCH  11  13
HETATM   13  O6  UNL     1      21.256  25.171  11.987  1.00  0.00    -0.341 OA
ATOM     14  H6  UNL     1      21.350  25.104  12.930  1.00  0.00     0.219 HD
ENDBRANCH  11  13
BRANCH  11  15
HETATM   15  C31 UNL     1      23.241  26.536  11.565  1.00  0.00     0.252 C 
HETATM   16  O7  UNL     1      24.122  25.649  11.597  1.00  0.00    -0.641 OA
HETATM   17  O8  UNL     1      23.675  27.853  11.768  1.00  0.00    -0.641 OA
ENDBRANCH  11  15
ENDBRANCH   6   8
ENDBRANCH   5   6
ENDBRANCH   4   5
ENDBRANCH   3   4
ENDBRANCH   1   3
BRANCH   1  18
HETATM   18  O2  UNL     1      19.059  29.364  14.194  1.00  0.00    -0.342 OA
BRANCH  18  19
HETATM   19  C26 UNL     1      20.270  28.735  13.877  1.00  0.00     0.203 C 
BRANCH  19  20
HETATM   20  C27 UNL     1      21.496  29.564  14.064  1.00  0.00     0.207 C 
BRANCH  20  21
HETATM   21  O3  UNL     1      21.694  30.411  12.975  1.00  0.00    -0.304 OA
BRANCH  21  22
HETATM   22  C28 UNL     1      21.330  31.710  12.818  1.00  0.00     0.372 C 
HETATM   23  N1  UNL     1      21.827  32.686  13.746  1.00  0.00    -0.032 NA
HETATM   24  O4  UNL     1      20.586  32.066  11.902  1.00  0.00    -0.242 OA
ENDBRANCH  21  22
ENDBRANCH  20  21
ENDBRANCH  19  20
ENDBRANCH  18  19
ENDBRANCH   1  18
BRANCH   2  25
HETATM   25  C8  UNL     1      18.270  31.869  14.813  1.00  0.00     0.034 C 
BRANCH  25  26
HETATM   26  C9  UNL     1      18.201  33.388  14.609  1.00  0.00     0.031 C 
BRANCH  26  27
HETATM   27  C10 UNL     1      17.467  34.029  15.692  1.00  0.00    -0.019 C 
HETATM   28  C11 UNL     1      17.844  34.719  16.731  1.00  0.00    -0.055 C 
HETATM   29  C12 UNL     1      16.780  35.258  17.661  1.00  0.00     0.039 C 
HETATM   30  C17 UNL     1      19.228  34.957  17.118  1.00  0.00    -0.047 C 
HETATM   31  C13 UNL     1      17.273  35.899  18.885  1.00  0.00     0.006 C 
HETATM   32  C14 UNL     1      18.708  36.158  19.082  1.00  0.00     0.015 C 
HETATM   33  C15 UNL     1      19.506  36.270  17.787  1.00  0.00    -0.009 C 
HETATM   34  C16 UNL     1      18.901  37.435  17.027  1.00  0.00     0.021 C 
HETATM   35  C24 UNL     1      20.943  36.526  17.985  1.00  0.00    -0.024 C 
HETATM   36  C20 UNL     1      21.848  35.361  18.162  1.00  0.00     0.030 C 
HETATM   37  C23 UNL     1      21.258  37.341  19.215  1.00  0.00     0.045 C 
HETATM   38  C25 UNL     1      21.470  37.298  16.768  1.00  0.00     0.017 C 
HETATM   39  C19 UNL     1      21.560  34.181  17.288  1.00  0.00     0.035 C 
HETATM   40  C21 UNL     1      21.791  35.067  19.618  1.00  0.00     0.156 A 
HETATM   41  C18 UNL     1      20.134  34.048  16.939  1.00  0.00    -0.018 C 
HETATM   42  O1  UNL     1      22.718  35.733  20.447  1.00  0.00    -0.375 OA
HETATM   43  C22 UNL     1      21.493  36.361  20.328  1.00  0.00     0.152 A 
ENDBRANCH  26  27
ENDBRANCH  25  26
ENDBRANCH   2  25
TORSDOF 15
ENDMDL
MODEL 2
REMARK VINA RESULT: -8.767656571      3.146      5.250
REMARK  15 active torsions:
REMARK  status: ('A' for Active; 'I' for Inactive)
REMARK    1  A    between atoms: C2_2  and  C3_3 
REMARK    2  A    between atoms: C2_2  and  C29_34 
REMARK    3  A    between atoms: C3_3  and  C4_4 
REMARK    4  A    between atoms: C4_4  and  C5_5 
REMARK    5  A    between atoms: C5_5  and  C6_6 
REMARK    6  A    between atoms: C6_6  and  O2_27 
REMARK    7  A    between atoms: C7_7  and  C8_8 
REMARK    8  A    between atoms: C8_8  and  C9_9 
REMARK    9  A    between atoms: C9_9  and  C10_10 
REMARK   10  A    between atoms: O2_27  and  C26_28 
REMARK   11  A    between atoms: C26_28  and  C27_29 
REMARK   12  A    between atoms: C27_29  and  O3_30 
REMARK   13  A    between atoms: O3_30  and  C28_31 
REMARK       I    between atoms: C29_34  and  N2_36 
REMARK   14  A    between atoms: C30_38  and  O6_39 
REMARK   15  A    between atoms: C30_38  and  C31_41 
ROOT
HETATM    1  C6  UNL     1      19.704  27.030  11.426  1.00  0.00     0.106 C 
HETATM    2  C7  UNL     1      19.828  28.185  12.167  1.00  0.00     0.019 C 
ENDROOT
BRANCH   1   3
HETATM    3  C5  UNL     1      18.587  26.902  10.658  1.00  0.00    -0.120 C 
BRANCH   3   4
HETATM    4  C4  UNL     1      17.557  26.782   9.948  1.00  0.00     0.088 C 
BRANCH   4   5
HETATM    5  C3  UNL     1      17.661  25.833   8.727  1.00  0.00     0.025 C 
BRANCH   5   6
HETATM    6  C2  UNL     1      18.768  26.399   7.885  1.00  0.00     0.075 C 
HETATM    7  C1  UNL     1      18.245  27.427   6.918  1.00  0.00     0.020 C 
BRANCH   6   8
HETATM    8  C29 UNL     1      19.667  25.415   7.313  1.00  0.00     0.227 C 
HETATM    9  O5  UNL     1      19.295  24.199   7.259  1.00  0.00    -0.273 OA
HETATM   10  N2  UNL     1      20.957  25.676   6.790  1.00  0.00    -0.302 N 
HETATM   11  C30 UNL     1      21.881  24.748   6.921  1.00  0.00     0.221 C 
ATOM     12  H2  UNL     1      21.165  26.560   6.323  1.00  0.00     0.171 HD
BRANCH  11  13
HETATM   13  O6  UNL     1      21.563  23.584   7.546  1.00  0.00    -0.341 OA
ATOM     14  H6  UNL     1      21.004  22.958   7.101  1.00  0.00     0.219 HD
ENDBRANCH  11  13
BRANCH  11  15
HETATM   15  C31 UNL     1      23.190  25.001   6.395  1.00  0.00     0.252 C 
HETATM   16  O7  UNL     1      24.199  24.916   7.130  1.00  0.00    -0.641 OA
HETATM   17  O8  UNL     1      23.421  25.353   5.059  1.00  0.00    -0.641 OA
ENDBRANCH  11  15
ENDBRANCH   6   8
ENDBRANCH   5   6
ENDBRANCH   4   5
ENDBRANCH   3   4
ENDBRANCH   1   3
BRANCH   1  18
HETATM   18  O2  UNL     1      20.759  26.135  11.578  1.00  0.00    -0.342 OA
BRANCH  18  19
HETATM   19  C26 UNL     1      21.282  25.307  10.576  1.00  0.00     0.203 C 
BRANCH  19  20
HETATM   20  C27 UNL     1      22.768  25.311  10.446  1.00  0.00     0.207 C 
BRANCH  20  21
HETATM   21  O3  UNL     1      23.355  26.047  11.473  1.00  0.00    -0.304 OA
BRANCH  21  22
HETATM   22  C28 UNL     1      24.284  27.035  11.403  1.00  0.00     0.372 C 
HETATM   23  N1  UNL     1      25.399  27.004  12.308  1.00  0.00    -0.032 NA
HETATM   24  O4  UNL     1      24.190  27.952  10.586  1.00  0.00    -0.242 OA
ENDBRANCH  21  22
ENDBRANCH  20  21
ENDBRANCH  19  20
ENDBRANCH  18  19
ENDBRANCH   1  18
BRANCH   2  25
HETATM   25  C8  UNL     1      20.997  28.399  13.028  1.00  0.00     0.034 C 
BRANCH  25  26
HETATM   26  C9  UNL     1      21.757  29.633  12.527  1.00  0.00     0.031 C 
BRANCH  26  27
HETATM   27  C10 UNL     1      22.278  30.415  13.640  1.00  0.00    -0.019 C 
HETATM   28  C11 UNL     1      21.716  31.214  14.503  1.00  0.00    -0.055 C 
HETATM   29  C12 UNL     1      22.586  31.861  15.558  1.00  0.00     0.039 C 
HETATM   30  C17 UNL     1      20.312  31.601  14.491  1.00  0.00    -0.047 C 
HETATM   31  C13 UNL     1      21.921  32.858  16.403  1.00  0.00     0.006 C 
HETATM   32  C14 UNL     1      20.465  33.061  16.338  1.00  0.00     0.015 C 
HETATM   33  C15 UNL     1      19.688  31.851  15.831  1.00  0.00    -0.009 C 
HETATM   34  C16 UNL     1      19.980  30.731  16.811  1.00  0.00     0.021 C 
HETATM   35  C24 UNL     1      18.231  32.056  15.762  1.00  0.00    -0.024 C 
HETATM   36  C20 UNL     1      17.660  32.643  14.522  1.00  0.00     0.030 C 
HETATM   37  C23 UNL     1      17.692  32.994  16.814  1.00  0.00     0.045 C 
HETATM   38  C25 UNL     1      17.541  30.698  15.952  1.00  0.00     0.017 C 
HETATM   39  C19 UNL     1      18.262  32.156  13.241  1.00  0.00     0.035 C 
HETATM   40  C21 UNL     1      17.768  34.111  14.725  1.00  0.00     0.156 A 
HETATM   41  C18 UNL     1      19.679  31.771  13.372  1.00  0.00    -0.018 C 
HETATM   42  O1  UNL     1      16.684  34.756  15.359  1.00  0.00    -0.375 OA
HETATM   43  C22 UNL     1      17.703  34.367  16.207  1.00  0.00     0.152 A 
ENDBRANCH  26  27
ENDBRANCH  25  26
ENDBRANCH   2  25
TORSDOF 15
ENDMDL
MODEL 3
REMARK VINA RESULT: -8.730589500      1.319      2.466
REMARK  15 active torsions:
REMARK  status: ('A' for Active; 'I' for Inactive)
REMARK    1  A    between atoms: C2_2  and  C3_3 
REMARK    2  A    between atoms: C2_2  and  C29_34 
REMARK    3  A    between atoms: C3_3  and  C4_4 
REMARK    4  A    between atoms: C4_4  and  C5_5 
REMARK    5  A    between atoms: C5_5  and  C6_6 
REMARK    6  A    between atoms: C6_6  and  O2_27 
REMARK    7  A    between atoms: C7_7  and  C8_8 
REMARK    8  A    between atoms: C8_8  and  C9_9 
REMARK    9  A    between atoms: C9_9  and  C10_10 
REMARK   10  A    between atoms: O2_27  and  C26_28 
REMARK   11  A    between atoms: C26_28  and  C27_29 
REMARK   12  A    between atoms: C27_29  and  O3_30 
REMARK   13  A    between atoms: O3_30  and  C28_31 
REMARK       I    between atoms: C29_34  and  N2_36 
REMARK   14  A    between atoms: C30_38  and  O6_39 
REMARK   15  A    between atoms: C30_38  and  C31_41 
ROOT
HETATM    1  C6  UNL     1      18.338  30.004  14.449  1.00  0.00     0.106 C 
HETATM    2  C7  UNL     1      17.579  30.992  15.037  1.00  0.00     0.019 C 
ENDROOT
BRANCH   1   3
HETATM    3  C5  UNL     1      18.028  29.662  13.168  1.00  0.00    -0.120 C 
BRANCH   3   4
HETATM    4  C4  UNL     1      17.744  29.345  11.985  1.00  0.00     0.088 C 
BRANCH   4   5
HETATM    5  C3  UNL     1      17.871  27.844  11.619  1.00  0.00     0.025 C 
BRANCH   5   6
HETATM    6  C2  UNL     1      18.803  27.807  10.442  1.00  0.00     0.075 C 
HETATM    7  C1  UNL     1      18.040  27.748   9.146  1.00  0.00     0.020 C 
BRANCH   6   8
HETATM    8  C29 UNL     1      19.898  26.863  10.557  1.00  0.00     0.227 C 
HETATM    9  O5  UNL     1      19.652  25.619  10.439  1.00  0.00    -0.273 OA
HETATM   10  N2  UNL     1      21.254  27.192  10.794  1.00  0.00    -0.302 N 
HETATM   11  C30 UNL     1      21.982  26.356  11.503  1.00  0.00     0.221 C 
ATOM     12  H2  UNL     1      21.657  28.054  10.425  1.00  0.00     0.171 HD
BRANCH  11  13
HETATM   13  O6  UNL     1      21.409  25.217  11.974  1.00  0.00    -0.341 OA
ATOM     14  H6  UNL     1      21.058  24.587  11.355  1.00  0.00     0.219 HD
ENDBRANCH  11  13
BRANCH  11  15
HETATM   15  C31 UNL     1      23.357  26.678  11.749  1.00  0.00     0.252 C 
HETATM   16  O7  UNL     1      23.691  27.839  12.074  1.00  0.00    -0.641 OA
HETATM   17  O8  UNL     1      24.392  25.740  11.643  1.00  0.00    -0.641 OA
ENDBRANCH  11  15
ENDBRANCH   6   8
ENDBRANCH   5   6
ENDBRANCH   4   5
ENDBRANCH   3   4
ENDBRANCH   1   3
BRANCH   1  18
HETATM   18  O2  UNL     1      19.333  29.480  15.270  1.00  0.00    -0.342 OA
BRANCH  18  19
HETATM   19  C26 UNL     1      20.684  29.332  14.929  1.00  0.00     0.203 C 
BRANCH  19  20
HETATM   20  C27 UNL     1      21.470  30.597  14.847  1.00  0.00     0.207 C 
BRANCH  20  21
HETATM   21  O3  UNL     1      21.971  30.788  13.560  1.00  0.00    -0.304 OA
BRANCH  21  22
HETATM   22  C28 UNL     1      21.302  30.901  12.384  1.00  0.00     0.372 C 
HETATM   23  N1  UNL     1      20.474  32.054  12.166  1.00  0.00    -0.032 NA
HETATM   24  O4  UNL     1      21.389  30.040  11.507  1.00  0.00    -0.242 OA
ENDBRANCH  21  22
ENDBRANCH  20  21
ENDBRANCH  19  20
ENDBRANCH  18  19
ENDBRANCH   1  18
BRANCH   2  25
HETATM   25  C8  UNL     1      17.842  31.414  16.418  1.00  0.00     0.034 C 
BRANCH  25  26
HETATM   26  C9  UNL     1      18.064  32.931  16.433  1.00  0.00     0.031 C 
BRANCH  26  27
HETATM   27  C10 UNL     1      19.390  33.271  15.933  1.00  0.00    -0.019 C 
HETATM   28  C11 UNL     1      20.299  34.115  16.334  1.00  0.00    -0.055 C 
HETATM   29  C12 UNL     1      21.597  34.194  15.562  1.00  0.00     0.039 C 
HETATM   30  C17 UNL     1      20.140  35.052  17.437  1.00  0.00    -0.047 C 
HETATM   31  C13 UNL     1      22.516  35.261  15.974  1.00  0.00     0.006 C 
HETATM   32  C14 UNL     1      22.257  36.062  17.180  1.00  0.00     0.015 C 
HETATM   33  C15 UNL     1      21.381  35.366  18.217  1.00  0.00    -0.009 C 
HETATM   34  C16 UNL     1      22.132  34.110  18.619  1.00  0.00     0.021 C 
HETATM   35  C24 UNL     1      21.120  36.170  19.423  1.00  0.00    -0.024 C 
HETATM   36  C20 UNL     1      19.958  37.097  19.413  1.00  0.00     0.030 C 
HETATM   37  C23 UNL     1      22.246  37.103  19.796  1.00  0.00     0.045 C 
HETATM   38  C25 UNL     1      20.898  35.215  20.604  1.00  0.00     0.017 C 
HETATM   39  C19 UNL     1      18.720  36.572  18.757  1.00  0.00     0.035 C 
HETATM   40  C21 UNL     1      20.487  38.345  18.804  1.00  0.00     0.156 A 
HETATM   41  C18 UNL     1      18.996  35.615  17.671  1.00  0.00    -0.018 C 
HETATM   42  O1  UNL     1      21.058  39.297  19.675  1.00  0.00    -0.375 OA
HETATM   43  C22 UNL     1      21.959  38.411  19.116  1.00  0.00     0.152 A 
ENDBRANCH  26  27
ENDBRANCH  25  26
ENDBRANCH   2  25
TORSDOF 15
ENDMDL
MODEL 4
REMARK VINA RESULT: -8.630002744      1.583      2.979
REMARK  15 active torsions:
REMARK  status: ('A' for Active; 'I' for Inactive)
REMARK    1  A    between atoms: C2_2  and  C3_3 
REMARK    2  A    between atoms: C2_2  and  C29_34 
REMARK    3  A    between atoms: C3_3  and  C4_4 
REMARK    4  A    between atoms: C4_4  and  C5_5 
REMARK    5  A    between atoms: C5_5  and  C6_6 
REMARK    6  A    between atoms: C6_6  and  O2_27 
REMARK    7  A    between atoms: C7_7  and  C8_8 
REMARK    8  A    between atoms: C8_8  and  C9_9 
REMARK    9  A    between atoms: C9_9  and  C10_10 
REMARK   10  A    between atoms: O2_27  and  C26_28 
REMARK   11  A    between atoms: C26_28  and  C27_29 
REMARK   12  A    between atoms: C27_29  and  O3_30 
REMARK   13  A    between atoms: O3_30  and  C28_31 
REMARK       I    between atoms: C29_34  and  N2_36 
REMARK   14  A    between atoms: C30_38  and  O6_39 
REMARK   15  A    between atoms: C30_38  and  C31_41 
ROOT
HETATM    1  C6  UNL     1      17.954  30.987  13.550  1.00  0.00     0.106 C 
HETATM    2  C7  UNL     1      17.404  30.962  14.813  1.00  0.00     0.019 C 
ENDROOT
BRANCH   1   3
HETATM    3  C5  UNL     1      17.575  30.004  12.688  1.00  0.00    -0.120 C 
BRANCH   3   4
HETATM    4  C4  UNL     1      17.226  29.094  11.894  1.00  0.00     0.088 C 
BRANCH   4   5
HETATM    5  C3  UNL     1      17.948  27.731  12.038  1.00  0.00     0.025 C 
BRANCH   5   6
HETATM    6  C2  UNL     1      18.821  27.620  10.821  1.00  0.00     0.075 C 
HETATM    7  C1  UNL     1      18.035  27.873   9.563  1.00  0.00     0.020 C 
BRANCH   6   8
HETATM    8  C29 UNL     1      19.680  26.451  10.788  1.00  0.00     0.227 C 
HETATM    9  O5  UNL     1      19.200  25.325  11.138  1.00  0.00    -0.273 OA
HETATM   10  N2  UNL     1      21.039  26.433  10.391  1.00  0.00    -0.302 N 
HETATM   11  C30 UNL     1      21.849  25.583  10.986  1.00  0.00     0.221 C 
ATOM     12  H2  UNL     1      21.382  27.062   9.664  1.00  0.00     0.171 HD
BRANCH  11  13
HETATM   13  O6  UNL     1      21.352  24.760  11.948  1.00  0.00    -0.341 OA
ATOM     14  H6  UNL     1      21.947  24.191  12.421  1.00  0.00     0.219 HD
ENDBRANCH  11  13
BRANCH  11  15
HETATM   15  C31 UNL     1      23.227  25.555  10.593  1.00  0.00     0.252 C 
HETATM   16  O7  UNL     1      23.544  25.498   9.384  1.00  0.00    -0.641 OA
HETATM   17  O8  UNL     1      24.284  25.586  11.513  1.00  0.00    -0.641 OA
ENDBRANCH  11  15
ENDBRANCH   6   8
ENDBRANCH   5   6
ENDBRANCH   4   5
ENDBRANCH   3   4
ENDBRANCH   1   3
BRANCH   1  18
HETATM   18  O2  UNL     1      18.844  32.036  13.332  1.00  0.00    -0.342 OA
BRANCH  18  19
HETATM   19  C26 UNL     1      19.812  32.092  12.320  1.00  0.00     0.203 C 
BRANCH  19  20
HETATM   20  C27 UNL     1      21.114  31.437  12.636  1.00  0.00     0.207 C 
BRANCH  20  21
HETATM   21  O3  UNL     1      21.071  30.076  12.339  1.00  0.00    -0.304 OA
BRANCH  21  22
HETATM   22  C28 UNL     1      21.403  29.015  13.117  1.00  0.00     0.372 C 
HETATM   23  N1  UNL     1      22.638  28.326  12.862  1.00  0.00    -0.032 NA
HETATM   24  O4  UNL     1      20.672  28.631  14.032  1.00  0.00    -0.242 OA
ENDBRANCH  21  22
ENDBRANCH  20  21
ENDBRANCH  19  20
ENDBRANCH  18  19
ENDBRANCH   1  18
BRANCH   2  25
HETATM   25  C8  UNL     1      17.766  31.982  15.806  1.00  0.00     0.034 C 
BRANCH  25  26
HETATM   26  C9  UNL     1      18.787  31.379  16.778  1.00  0.00     0.031 C 
BRANCH  26  27
HETATM   27  C10 UNL     1      20.149  31.612  16.317  1.00  0.00    -0.019 C 
HETATM   28  C11 UNL     1      20.970  32.617  16.446  1.00  0.00    -0.055 C 
HETATM   29  C12 UNL     1      22.348  32.504  15.833  1.00  0.00     0.039 C 
HETATM   30  C17 UNL     1      20.641  33.887  17.078  1.00  0.00    -0.047 C 
HETATM   31  C13 UNL     1      23.168  33.719  15.888  1.00  0.00     0.006 C 
HETATM   32  C14 UNL     1      22.733  34.894  16.658  1.00  0.00     0.015 C 
HETATM   33  C15 UNL     1      21.765  34.575  17.793  1.00  0.00    -0.009 C 
HETATM   34  C16 UNL     1      22.510  33.633  18.720  1.00  0.00     0.021 C 
HETATM   35  C24 UNL     1      21.328  35.753  18.562  1.00  0.00    -0.024 C 
HETATM   36  C20 UNL     1      20.141  36.507  18.081  1.00  0.00     0.030 C 
HETATM   37  C23 UNL     1      22.363  36.847  18.652  1.00  0.00     0.045 C 
HETATM   38  C25 UNL     1      21.001  35.303  19.993  1.00  0.00     0.017 C 
HETATM   39  C19 UNL     1      19.013  35.671  17.563  1.00  0.00     0.035 C 
HETATM   40  C21 UNL     1      20.691  37.468  17.090  1.00  0.00     0.156 A 
HETATM   41  C18 UNL     1      19.456  34.399  16.964  1.00  0.00    -0.018 C 
HETATM   42  O1  UNL     1      21.114  38.724  17.576  1.00  0.00    -0.375 OA
HETATM   43  C22 UNL     1      22.110  37.769  17.494  1.00  0.00     0.152 A 
ENDBRANCH  26  27
ENDBRANCH  25  26
ENDBRANCH   2  25
TORSDOF 15
ENDMDL
MODEL 5
REMARK VINA RESULT: -8.512500199      2.756      5.173
REMARK  15 active torsions:
REMARK  status: ('A' for Active; 'I' for Inactive)
REMARK    1  A    between atoms: C2_2  and  C3_3 
REMARK    2  A    between atoms: C2_2  and  C29_34 
REMARK    3  A    between atoms: C3_3  and  C4_4 
REMARK    4  A    between atoms: C4_4  and  C5_5 
REMARK    5  A    between atoms: C5_5  and  C6_6 
REMARK    6  A    between atoms: C6_6  and  O2_27 
REMARK    7  A    between atoms: C7_7  and  C8_8 
REMARK    8  A    between atoms: C8_8  and  C9_9 
REMARK    9  A    between atoms: C9_9  and  C10_10 
REMARK   10  A    between atoms: O2_27  and  C26_28 
REMARK   11  A    between atoms: C26_28  and  C27_29 
REMARK   12  A    between atoms: C27_29  and  O3_30 
REMARK   13  A    between atoms: O3_30  and  C28_31 
REMARK       I    between atoms: C29_34  and  N2_36 
REMARK   14  A    between atoms: C30_38  and  O6_39 
REMARK   15  A    between atoms: C30_38  and  C31_41 
ROOT
HETATM    1  C6  UNL     1      20.436  28.585  13.127  1.00  0.00     0.106 C 
HETATM    2  C7  UNL     1      21.251  28.960  14.172  1.00  0.00     0.019 C 
ENDROOT
BRANCH   1   3
HETATM    3  C5  UNL     1      19.139  28.295  13.424  1.00  0.00    -0.120 C 
BRANCH   3   4
HETATM    4  C4  UNL     1      17.942  28.028  13.697  1.00  0.00     0.088 C 
BRANCH   4   5
HETATM    5  C3  UNL     1      17.130  27.284  12.606  1.00  0.00     0.025 C 
BRANCH   5   6
HETATM    6  C2  UNL     1      17.580  27.885  11.306  1.00  0.00     0.075 C 
HETATM    7  C1  UNL     1      16.768  29.103  10.959  1.00  0.00     0.020 C 
BRANCH   6   8
HETATM    8  C29 UNL     1      17.763  26.936  10.224  1.00  0.00     0.227 C 
HETATM    9  O5  UNL     1      17.809  25.693  10.496  1.00  0.00    -0.273 OA
HETATM   10  N2  UNL     1      17.899  27.260   8.852  1.00  0.00    -0.302 N 
HETATM   11  C30 UNL     1      18.673  26.499   8.107  1.00  0.00     0.221 C 
ATOM     12  H2  UNL     1      17.410  28.061   8.451  1.00  0.00     0.171 HD
BRANCH  11  13
HETATM   13  O6  UNL     1      19.304  25.440   8.679  1.00  0.00    -0.341 OA
ATOM     14  H6  UNL     1      20.252  25.393   8.641  1.00  0.00     0.219 HD
ENDBRANCH  11  13
BRANCH  11  15
HETATM   15  C31 UNL     1      18.818  26.817   6.717  1.00  0.00     0.252 C 
HETATM   16  O7  UNL     1      19.632  26.192   6.002  1.00  0.00    -0.641 OA
HETATM   17  O8  UNL     1      18.078  27.824   6.083  1.00  0.00    -0.641 OA
ENDBRANCH  11  15
ENDBRANCH   6   8
ENDBRANCH   5   6
ENDBRANCH   4   5
ENDBRANCH   3   4
ENDBRANCH   1   3
BRANCH   1  18
HETATM   18  O2  UNL     1      21.071  28.549  11.888  1.00  0.00    -0.342 OA
BRANCH  18  19
HETATM   19  C26 UNL     1      21.223  27.416  11.078  1.00  0.00     0.203 C 
BRANCH  19  20
HETATM   20  C27 UNL     1      21.706  26.187  11.771  1.00  0.00     0.207 C 
BRANCH  20  21
HETATM   21  O3  UNL     1      22.908  25.745  11.221  1.00  0.00    -0.304 OA
BRANCH  21  22
HETATM   22  C28 UNL     1      24.127  26.341  11.225  1.00  0.00     0.372 C 
HETATM   23  N1  UNL     1      24.503  27.158  10.104  1.00  0.00    -0.032 NA
HETATM   24  O4  UNL     1      24.913  26.198  12.163  1.00  0.00    -0.242 OA
ENDBRANCH  21  22
ENDBRANCH  20  21
ENDBRANCH  19  20
ENDBRANCH  18  19
ENDBRANCH   1  18
BRANCH   2  25
HETATM   25  C8  UNL     1      22.664  29.282  13.939  1.00  0.00     0.034 C 
BRANCH  25  26
HETATM   26  C9  UNL     1      22.778  30.771  13.591  1.00  0.00     0.031 C 
BRANCH  26  27
HETATM   27  C10 UNL     1      22.823  31.588  14.796  1.00  0.00    -0.019 C 
HETATM   28  C11 UNL     1      21.908  32.228  15.469  1.00  0.00    -0.055 C 
HETATM   29  C12 UNL     1      22.323  32.981  16.713  1.00  0.00     0.039 C 
HETATM   30  C17 UNL     1      20.509  32.340  15.077  1.00  0.00    -0.047 C 
HETATM   31  C13 UNL     1      21.276  33.796  17.339  1.00  0.00     0.006 C 
HETATM   32  C14 UNL     1      19.880  33.721  16.884  1.00  0.00     0.015 C 
HETATM   33  C15 UNL     1      19.516  32.407  16.198  1.00  0.00    -0.009 C 
HETATM   34  C16 UNL     1      19.751  31.322  17.231  1.00  0.00     0.021 C 
HETATM   35  C24 UNL     1      18.118  32.333  15.739  1.00  0.00    -0.024 C 
HETATM   36  C20 UNL     1      17.793  32.855  14.386  1.00  0.00     0.030 C 
HETATM   37  C23 UNL     1      17.147  33.105  16.600  1.00  0.00     0.045 C 
HETATM   38  C25 UNL     1      17.682  30.862  15.750  1.00  0.00     0.017 C 
HETATM   39  C19 UNL     1      18.796  32.548  13.319  1.00  0.00     0.035 C 
HETATM   40  C21 UNL     1      17.554  34.306  14.597  1.00  0.00     0.156 A 
HETATM   41  C18 UNL     1      20.174  32.435  13.828  1.00  0.00    -0.018 C 
HETATM   42  O1  UNL     1      16.237  34.704  14.911  1.00  0.00    -0.375 OA
HETATM   43  C22 UNL     1      17.051  34.480  16.006  1.00  0.00     0.152 A 
ENDBRANCH  26  27
ENDBRANCH  25  26
ENDBRANCH   2  25
TORSDOF 15
ENDMDL
