MODEL 1
REMARK VINA RESULT: -9.485481901      0.000      0.000
REMARK  13 active torsions:
REMARK  status: ('A' for Active; 'I' for Inactive)
REMARK    1  A    between atoms: C7_7  and  O1_8 
REMARK    2  A    between atoms: C8_10  and  N1_11 
REMARK    3  A    between atoms: C10_13  and  C11_14 
REMARK       I    between atoms: C11_14  and  N2_16 
REMARK    4  A    between atoms: N2_16  and  C12_18 
REMARK    5  A    between atoms: C12_18  and  C13_19 
REMARK    6  A    between atoms: C13_19  and  C14_20 
REMARK    7  A    between atoms: C14_20  and  C15_21 
REMARK    8  A    between atoms: C15_21  and  C16_22 
REMARK    9  A    between atoms: C16_22  and  C17_23 
REMARK   10  A    between atoms: C17_23  and  C18_24 
REMARK   11  A    between atoms: C18_24  and  C19_25 
REMARK   12  A    between atoms: C19_25  and  N3_26 
REMARK       I    between atoms: N3_26  and  C20_28 
REMARK   13  A    between atoms: C20_28  and  C21_30 
ROOT
HETATM    1  C11 UNL     1      21.870  33.880  17.230  1.00  0.00     0.271 C 
HETATM    2  O2  UNL     1      22.400  34.786  16.580  1.00  0.00    -0.266 OA
HETATM    3  N2  UNL     1      21.619  34.093  18.638  1.00  0.00    -0.356 N 
ATOM      4  H2  UNL     1      21.181  33.353  19.188  1.00  0.00     0.162 HD
ENDROOT
BRANCH   3   5
HETATM    5  C12 UNL     1      21.972  35.318  19.269  1.00  0.00     0.123 C 
BRANCH   5   6
HETATM    6  C13 UNL     1      20.868  36.090  19.881  1.00  0.00     0.020 C 
BRANCH   6   7
HETATM    7  C14 UNL     1      19.710  36.496  19.081  1.00  0.00     0.002 C 
BRANCH   7   8
HETATM    8  C15 UNL     1      19.797  37.441  17.966  1.00  0.00     0.000 C 
BRANCH   8   9
HETATM    9  C16 UNL     1      19.326  38.850  18.249  1.00  0.00     0.000 C 
BRANCH   9  10
HETATM   10  C17 UNL     1      17.922  39.105  17.816  1.00  0.00     0.002 C 
BRANCH  10  11
HETATM   11  C18 UNL     1      16.943  39.228  18.968  1.00  0.00     0.020 C 
BRANCH  11  12
HETATM   12  C19 UNL     1      15.868  38.207  18.728  1.00  0.00     0.122 C 
BRANCH  12  13
HETATM   13  N3  UNL     1      16.212  37.134  17.865  1.00  0.00    -0.360 N 
HETATM   14  C20 UNL     1      16.003  35.789  18.220  1.00  0.00     0.226 C 
HETATM   15  O3  UNL     1      15.498  35.454  19.319  1.00  0.00    -0.273 OA
ATOM     16  H3  UNL     1      16.624  37.345  16.956  1.00  0.00     0.162 HD
BRANCH  14  17
HETATM   17  C21 UNL     1      16.403  34.727  17.244  1.00  0.00     0.042 C 
HETATM   18  C22 UNL     1      17.757  34.150  17.565  1.00  0.00     0.024 C 
HETATM   19  C23 UNL     1      18.082  33.125  16.519  1.00  0.00    -0.013 C 
HETATM   20  C24 UNL     1      17.050  32.039  16.556  1.00  0.00     0.009 C 
HETATM   21  C28 UNL     1      18.177  33.794  15.172  1.00  0.00     0.009 C 
HETATM   22  C25 UNL     1      15.707  32.614  16.172  1.00  0.00    -0.013 C 
HETATM   23  C26 UNL     1      15.753  33.299  14.828  1.00  0.00     0.009 C 
HETATM   24  C30 UNL     1      15.346  33.653  17.205  1.00  0.00     0.024 C 
HETATM   25  C27 UNL     1      16.815  34.357  14.820  1.00  0.00    -0.013 C 
HETATM   26  C29 UNL     1      16.452  35.377  15.881  1.00  0.00     0.024 C 
ENDBRANCH  14  17
ENDBRANCH  12  13
ENDBRANCH  11  12
ENDBRANCH  10  11
ENDBRANCH   9  10
ENDBRANCH   8   9
ENDBRANCH   7   8
ENDBRANCH   6   7
ENDBRANCH   5   6
ENDBRANCH   3   5
BRANCH   1  27
HETATM   27  C10 UNL     1      21.498  32.627  16.633  1.00  0.00     0.134 A 
HETATM   28  C9  UNL     1      21.681  32.332  15.279  1.00  0.00     0.148 A 
HETATM   29  N1  UNL     1      21.220  31.092  15.107  1.00  0.00    -0.279 N 
HETATM   30  N5  UNL     1      20.782  30.655  16.269  1.00  0.00    -0.240 N 
HETATM   31  N4  UNL     1      20.930  31.541  17.208  1.00  0.00    -0.280 N 
ATOM     32  H5  UNL     1      20.375  29.731  16.415  1.00  0.00     0.208 HD
ATOM     33  H4  UNL     1      20.669  31.438  18.189  1.00  0.00     0.189 HD
BRANCH  29  34
HETATM   34  C8  UNL     1      21.233  30.402  13.813  1.00  0.00     0.140 C 
HETATM   35  C7  UNL     1      19.891  29.736  13.582  1.00  0.00     0.143 C 
HETATM   36  C6  UNL     1      19.637  29.410  12.142  1.00  0.00     0.034 C 
HETATM   37  C5  UNL     1      20.018  27.989  11.795  1.00  0.00     0.010 C 
HETATM   38  C4  UNL     1      21.355  27.587  12.388  1.00  0.00     0.017 C 
HETATM   39  C3  UNL     1      21.995  26.599  11.444  1.00  0.00     0.038 C 
HETATM   40  C32 UNL     1      22.327  28.726  12.411  1.00  0.00     0.128 C 
HETATM   41  C2  UNL     1      23.451  26.925  11.631  1.00  0.00     0.118 C 
HETATM   42  C1  UNL     1      24.251  26.774  10.357  1.00  0.00     0.039 C 
HETATM   43  O4  UNL     1      23.540  28.197  12.098  1.00  0.00    -0.381 OA
HETATM   44  C31 UNL     1      22.286  29.316  13.811  1.00  0.00     0.062 C 
BRANCH  35  45
HETATM   45  O1  UNL     1      18.886  30.587  14.009  1.00  0.00    -0.393 OA
ATOM     46  H1  UNL     1      18.141  30.055  14.263  1.00  0.00     0.210 HD
ENDBRANCH  35  45
ENDBRANCH  29  34
ENDBRANCH   1  27
TORSDOF 13
ENDMDL
MODEL 2
REMARK VINA RESULT: -9.349402705      0.310      1.208
REMARK  13 active torsions:
REMARK  status: ('A' for Active; 'I' for Inactive)
REMARK    1  A    between atoms: C7_7  and  O1_8 
REMARK    2  A    between atoms: C8_10  and  N1_11 
REMARK    3  A    between atoms: C10_13  and  C11_14 
REMARK       I    between atoms: C11_14  and  N2_16 
REMARK    4  A    between atoms: N2_16  and  C12_18 
REMARK    5  A    between atoms: C12_18  and  C13_19 
REMARK    6  A    between atoms: C13_19  and  C14_20 
REMARK    7  A    between atoms: C14_20  and  C15_21 
REMARK    8  A    between atoms: C15_21  and  C16_22 
REMARK    9  A    between atoms: C16_22  and  C17_23 
REMARK   10  A    between atoms: C17_23  and  C18_24 
REMARK   11  A    between atoms: C18_24  and  C19_25 
REMARK   12  A    between atoms: C19_25  and  N3_26 
REMARK       I    between atoms: N3_26  and  C20_28 
REMARK   13  A    between atoms: C20_28  and  C21_30 
ROOT
HETATM    1  C11 UNL     1      21.902  33.802  17.164  1.00  0.00     0.271 C 
HETATM    2  O2  UNL     1      22.744  34.546  16.652  1.00  0.00    -0.266 OA
HETATM    3  N2  UNL     1      21.275  34.211  18.401  1.00  0.00    -0.356 N 
ATOM      4  H2  UNL     1      20.577  33.605  18.834  1.00  0.00     0.162 HD
ENDROOT
BRANCH   3   5
HETATM    5  C12 UNL     1      21.616  35.443  19.023  1.00  0.00     0.123 C 
BRANCH   5   6
HETATM    6  C13 UNL     1      20.493  36.272  19.512  1.00  0.00     0.020 C 
BRANCH   6   7
HETATM    7  C14 UNL     1      19.687  37.059  18.576  1.00  0.00     0.002 C 
BRANCH   7   8
HETATM    8  C15 UNL     1      19.298  38.449  18.824  1.00  0.00     0.000 C 
BRANCH   8   9
HETATM    9  C16 UNL     1      18.905  39.258  17.609  1.00  0.00     0.000 C 
BRANCH   9  10
HETATM   10  C17 UNL     1      17.439  39.247  17.336  1.00  0.00     0.002 C 
BRANCH  10  11
HETATM   11  C18 UNL     1      16.588  39.394  18.584  1.00  0.00     0.020 C 
BRANCH  11  12
HETATM   12  C19 UNL     1      15.652  38.219  18.604  1.00  0.00     0.122 C 
BRANCH  12  13
HETATM   13  N3  UNL     1      15.984  37.145  17.738  1.00  0.00    -0.360 N 
HETATM   14  C20 UNL     1      15.945  35.803  18.157  1.00  0.00     0.226 C 
HETATM   15  O3  UNL     1      15.613  35.471  19.321  1.00  0.00    -0.273 OA
ATOM     16  H3  UNL     1      16.259  37.353  16.778  1.00  0.00     0.162 HD
BRANCH  14  17
HETATM   17  C21 UNL     1      16.317  34.739  17.171  1.00  0.00     0.042 C 
HETATM   18  C22 UNL     1      15.342  33.590  17.190  1.00  0.00     0.024 C 
HETATM   19  C23 UNL     1      15.815  32.568  16.200  1.00  0.00    -0.013 C 
HETATM   20  C24 UNL     1      15.842  33.182  14.833  1.00  0.00     0.009 C 
HETATM   21  C28 UNL     1      17.158  32.036  16.628  1.00  0.00     0.009 C 
HETATM   22  C25 UNL     1      16.867  34.292  14.806  1.00  0.00    -0.013 C 
HETATM   23  C26 UNL     1      18.232  33.807  15.232  1.00  0.00     0.009 C 
HETATM   24  C30 UNL     1      16.425  35.343  15.794  1.00  0.00     0.024 C 
HETATM   25  C27 UNL     1      18.159  33.173  16.588  1.00  0.00    -0.013 C 
HETATM   26  C29 UNL     1      17.686  34.235  17.563  1.00  0.00     0.024 C 
ENDBRANCH  14  17
ENDBRANCH  12  13
ENDBRANCH  11  12
ENDBRANCH  10  11
ENDBRANCH   9  10
ENDBRANCH   8   9
ENDBRANCH   7   8
ENDBRANCH   6   7
ENDBRANCH   5   6
ENDBRANCH   3   5
BRANCH   1  27
HETATM   27  C10 UNL     1      21.528  32.548  16.568  1.00  0.00     0.134 A 
HETATM   28  C9  UNL     1      21.687  32.260  15.210  1.00  0.00     0.148 A 
HETATM   29  N1  UNL     1      21.232  31.017  15.042  1.00  0.00    -0.279 N 
HETATM   30  N5  UNL     1      20.820  30.572  16.210  1.00  0.00    -0.240 N 
HETATM   31  N4  UNL     1      20.980  31.455  17.150  1.00  0.00    -0.280 N 
ATOM     32  H5  UNL     1      20.423  29.645  16.360  1.00  0.00     0.208 HD
ATOM     33  H4  UNL     1      20.739  31.347  18.135  1.00  0.00     0.189 HD
BRANCH  29  34
HETATM   34  C8  UNL     1      21.225  30.333  13.745  1.00  0.00     0.140 C 
HETATM   35  C7  UNL     1      19.889  29.643  13.544  1.00  0.00     0.143 C 
HETATM   36  C6  UNL     1      19.606  29.319  12.110  1.00  0.00     0.034 C 
HETATM   37  C5  UNL     1      20.003  27.906  11.748  1.00  0.00     0.010 C 
HETATM   38  C4  UNL     1      21.362  27.526  12.305  1.00  0.00     0.017 C 
HETATM   39  C3  UNL     1      21.995  26.554  11.341  1.00  0.00     0.038 C 
HETATM   40  C32 UNL     1      22.313  28.682  12.308  1.00  0.00     0.128 C 
HETATM   41  C2  UNL     1      23.450  26.905  11.493  1.00  0.00     0.118 C 
HETATM   42  C1  UNL     1      24.220  26.773  10.198  1.00  0.00     0.039 C 
HETATM   43  O4  UNL     1      23.527  28.177  11.964  1.00  0.00    -0.381 OA
HETATM   44  C31 UNL     1      22.297  29.266  13.711  1.00  0.00     0.062 C 
BRANCH  35  45
HETATM   45  O1  UNL     1      18.881  30.474  14.001  1.00  0.00    -0.393 OA
ATOM     46  H1  UNL     1      19.246  31.344  14.111  1.00  0.00     0.210 HD
ENDBRANCH  35  45
ENDBRANCH  29  34
ENDBRANCH   1  27
TORSDOF 13
ENDMDL
MODEL 3
REMARK VINA RESULT: -9.294732987      2.005      4.078
REMARK  13 active torsions:
REMARK  status: ('A' for Active; 'I' for Inactive)
REMARK    1  A    between atoms: C7_7  and  O1_8 
REMARK    2  A    between atoms: C8_10  and  N1_11 
REMARK    3  A    between atoms: C10_13  and  C11_14 
REMARK       I    between atoms: C11_14  and  N2_16 
REMARK    4  A    between atoms: N2_16  and  C12_18 
REMARK    5  A    between atoms: C12_18  and  C13_19 
REMARK    6  A    between atoms: C13_19  and  C14_20 
REMARK    7  A    between atoms: C14_20  and  C15_21 
REMARK    8  A    between atoms: C15_21  and  C16_22 
REMARK    9  A    between atoms: C16_22  and  C17_23 
REMARK   10  A    between atoms: C17_23  and  C18_24 
REMARK   11  A    between atoms: C18_24  and  C19_25 
REMARK   12  A    between atoms: C19_25  and  N3_26 
REMARK       I    between atoms: N3_26  and  C20_28 
REMARK   13  A    between atoms: C20_28  and  C21_30 
ROOT
HETATM    1  C11 UNL     1      17.279  32.330  14.759  1.00  0.00     0.271 C 
HETATM    2  O2  UNL     1      17.649  33.379  14.223  1.00  0.00    -0.266 OA
HETATM    3  N2  UNL     1      16.210  32.387  15.731  1.00  0.00    -0.356 N 
ATOM      4  H2  UNL     1      15.894  31.527  16.180  1.00  0.00     0.162 HD
ENDROOT
BRANCH   3   5
HETATM    5  C12 UNL     1      15.593  33.622  16.069  1.00  0.00     0.123 C 
BRANCH   5   6
HETATM    6  C13 UNL     1      15.397  33.891  17.511  1.00  0.00     0.020 C 
BRANCH   6   7
HETATM    7  C14 UNL     1      14.529  34.986  17.952  1.00  0.00     0.002 C 
BRANCH   7   8
HETATM    8  C15 UNL     1      14.982  36.373  18.066  1.00  0.00     0.000 C 
BRANCH   8   9
HETATM    9  C16 UNL     1      16.292  36.590  18.790  1.00  0.00     0.000 C 
BRANCH   9  10
HETATM   10  C17 UNL     1      16.791  37.992  18.706  1.00  0.00     0.002 C 
BRANCH  10  11
HETATM   11  C18 UNL     1      17.635  38.265  17.475  1.00  0.00     0.020 C 
BRANCH  11  12
HETATM   12  C19 UNL     1      19.069  38.109  17.895  1.00  0.00     0.122 C 
BRANCH  12  13
HETATM   13  N3  UNL     1      19.765  37.009  17.331  1.00  0.00    -0.360 N 
HETATM   14  C20 UNL     1      20.032  35.836  18.059  1.00  0.00     0.226 C 
HETATM   15  O3  UNL     1      19.669  35.687  19.251  1.00  0.00    -0.273 OA
ATOM     16  H3  UNL     1      20.084  37.071  16.363  1.00  0.00     0.162 HD
BRANCH  14  17
HETATM   17  C21 UNL     1      20.778  34.731  17.378  1.00  0.00     0.042 C 
HETATM   18  C22 UNL     1      21.953  34.259  18.195  1.00  0.00     0.024 C 
HETATM   19  C23 UNL     1      22.652  33.182  17.419  1.00  0.00    -0.013 C 
HETATM   20  C24 UNL     1      21.705  32.042  17.195  1.00  0.00     0.009 C 
HETATM   21  C28 UNL     1      23.190  33.756  16.134  1.00  0.00     0.009 C 
HETATM   22  C25 UNL     1      20.562  32.508  16.323  1.00  0.00    -0.013 C 
HETATM   23  C26 UNL     1      21.052  33.096  15.022  1.00  0.00     0.009 C 
HETATM   24  C30 UNL     1      19.833  33.597  17.072  1.00  0.00     0.024 C 
HETATM   25  C27 UNL     1      22.019  34.211  15.286  1.00  0.00    -0.013 C 
HETATM   26  C29 UNL     1      21.278  35.283  16.063  1.00  0.00     0.024 C 
ENDBRANCH  14  17
ENDBRANCH  12  13
ENDBRANCH  11  12
ENDBRANCH  10  11
ENDBRANCH   9  10
ENDBRANCH   8   9
ENDBRANCH   7   8
ENDBRANCH   6   7
ENDBRANCH   5   6
ENDBRANCH   3   5
BRANCH   1  27
HETATM   27  C10 UNL     1      17.876  31.060  14.446  1.00  0.00     0.134 A 
HETATM   28  C9  UNL     1      18.645  30.829  13.302  1.00  0.00     0.148 A 
HETATM   29  N1  UNL     1      19.019  29.550  13.361  1.00  0.00    -0.279 N 
HETATM   30  N5  UNL     1      18.515  29.029  14.461  1.00  0.00    -0.240 N 
HETATM   31  N4  UNL     1      17.825  29.898  15.138  1.00  0.00    -0.280 N 
ATOM     32  H5  UNL     1      18.649  28.059  14.746  1.00  0.00     0.208 HD
ATOM     33  H4  UNL     1      17.340  29.736  16.020  1.00  0.00     0.189 HD
BRANCH  29  34
HETATM   34  C8  UNL     1      19.850  28.906  12.339  1.00  0.00     0.140 C 
HETATM   35  C7  UNL     1      19.187  27.620  11.884  1.00  0.00     0.143 C 
HETATM   36  C6  UNL     1      19.689  27.138  10.558  1.00  0.00     0.034 C 
HETATM   37  C5  UNL     1      20.795  26.117  10.697  1.00  0.00     0.010 C 
HETATM   38  C4  UNL     1      21.821  26.513  11.742  1.00  0.00     0.017 C 
HETATM   39  C3  UNL     1      23.156  25.966  11.302  1.00  0.00     0.038 C 
HETATM   40  C32 UNL     1      22.046  27.993  11.779  1.00  0.00     0.128 C 
HETATM   41  C2  UNL     1      24.088  27.021  11.833  1.00  0.00     0.118 C 
HETATM   42  C1  UNL     1      25.281  27.251  10.933  1.00  0.00     0.039 C 
HETATM   43  O4  UNL     1      23.378  28.170  11.982  1.00  0.00    -0.381 OA
HETATM   44  C31 UNL     1      21.200  28.542  12.915  1.00  0.00     0.062 C 
BRANCH  35  45
HETATM   45  O1  UNL     1      17.823  27.832  11.771  1.00  0.00    -0.393 OA
ATOM     46  H1  UNL     1      17.602  28.596  12.292  1.00  0.00     0.210 HD
ENDBRANCH  35  45
ENDBRANCH  29  34
ENDBRANCH   1  27
TORSDOF 13
ENDMDL
MODEL 4
REMARK VINA RESULT: -9.286105866      2.215      8.457
REMARK  13 active torsions:
REMARK  status: ('A' for Active; 'I' for Inactive)
REMARK    1  A    between atoms: C7_7  and  O1_8 
REMARK    2  A    between atoms: C8_10  and  N1_11 
REMARK    3  A    between atoms: C10_13  and  C11_14 
REMARK       I    between atoms: C11_14  and  N2_16 
REMARK    4  A    between atoms: N2_16  and  C12_18 
REMARK    5  A    between atoms: C12_18  and  C13_19 
REMARK    6  A    between atoms: C13_19  and  C14_20 
REMARK    7  A    between atoms: C14_20  and  C15_21 
REMARK    8  A    between atoms: C15_21  and  C16_22 
REMARK    9  A    between atoms: C16_22  and  C17_23 
REMARK   10  A    between atoms: C17_23  and  C18_24 
REMARK   11  A    between atoms: C18_24  and  C19_25 
REMARK   12  A    between atoms: C19_25  and  N3_26 
REMARK       I    between atoms: N3_26  and  C20_28 
REMARK   13  A    between atoms: C20_28  and  C21_30 
ROOT
HETATM    1  C11 UNL     1      21.968  31.939  14.507  1.00  0.00     0.271 C 
HETATM    2  O2  UNL     1      21.700  32.475  13.428  1.00  0.00    -0.266 OA
HETATM    3  N2  UNL     1      22.268  30.524  14.524  1.00  0.00    -0.356 N 
ATOM      4  H2  UNL     1      22.492  30.069  15.409  1.00  0.00     0.162 HD
ENDROOT
BRANCH   3   5
HETATM    5  C12 UNL     1      22.256  29.759  13.326  1.00  0.00     0.123 C 
BRANCH   5   6
HETATM    6  C13 UNL     1      21.683  28.398  13.415  1.00  0.00     0.020 C 
BRANCH   6   7
HETATM    7  C14 UNL     1      21.646  27.527  12.238  1.00  0.00     0.002 C 
BRANCH   7   8
HETATM    8  C15 UNL     1      20.546  27.528  11.272  1.00  0.00     0.000 C 
BRANCH   8   9
HETATM    9  C16 UNL     1      19.250  28.151  11.739  1.00  0.00     0.000 C 
BRANCH   9  10
HETATM   10  C17 UNL     1      18.294  27.167  12.322  1.00  0.00     0.002 C 
BRANCH  10  11
HETATM   11  C18 UNL     1      17.557  27.685  13.543  1.00  0.00     0.020 C 
BRANCH  11  12
HETATM   12  C19 UNL     1      18.508  28.601  14.260  1.00  0.00     0.122 C 
BRANCH  12  13
HETATM   13  N3  UNL     1      18.005  29.887  14.587  1.00  0.00    -0.360 N 
HETATM   14  C20 UNL     1      18.595  30.696  15.574  1.00  0.00     0.226 C 
HETATM   15  O3  UNL     1      19.605  30.333  16.226  1.00  0.00    -0.273 OA
ATOM     16  H3  UNL     1      17.187  30.237  14.087  1.00  0.00     0.162 HD
BRANCH  14  17
HETATM   17  C21 UNL     1      17.989  32.037  15.849  1.00  0.00     0.042 C 
HETATM   18  C22 UNL     1      18.538  32.653  17.110  1.00  0.00     0.024 C 
HETATM   19  C23 UNL     1      17.851  33.970  17.318  1.00  0.00    -0.013 C 
HETATM   20  C24 UNL     1      18.140  34.866  16.152  1.00  0.00     0.009 C 
HETATM   21  C28 UNL     1      16.376  33.740  17.526  1.00  0.00     0.009 C 
HETATM   22  C25 UNL     1      17.532  34.271  14.903  1.00  0.00    -0.013 C 
HETATM   23  C26 UNL     1      16.052  34.019  15.064  1.00  0.00     0.009 C 
HETATM   24  C30 UNL     1      18.200  32.940  14.661  1.00  0.00     0.024 C 
HETATM   25  C27 UNL     1      15.800  33.145  16.256  1.00  0.00    -0.013 C 
HETATM   26  C29 UNL     1      16.502  31.823  16.009  1.00  0.00     0.024 C 
ENDBRANCH  14  17
ENDBRANCH  12  13
ENDBRANCH  11  12
ENDBRANCH  10  11
ENDBRANCH   9  10
ENDBRANCH   8   9
ENDBRANCH   7   8
ENDBRANCH   6   7
ENDBRANCH   5   6
ENDBRANCH   3   5
BRANCH   1  27
HETATM   27  C10 UNL     1      21.991  32.676  15.741  1.00  0.00     0.134 A 
HETATM   28  C9  UNL     1      21.820  34.061  15.817  1.00  0.00     0.148 A 
HETATM   29  N1  UNL     1      21.903  34.372  17.111  1.00  0.00    -0.279 N 
HETATM   30  N5  UNL     1      22.112  33.260  17.785  1.00  0.00    -0.240 N 
HETATM   31  N4  UNL     1      22.170  32.223  17.004  1.00  0.00    -0.280 N 
ATOM     32  H5  UNL     1      22.215  33.218  18.799  1.00  0.00     0.208 HD
ATOM     33  H4  UNL     1      22.321  31.255  17.287  1.00  0.00     0.189 HD
BRANCH  29  34
HETATM   34  C8  UNL     1      21.773  35.741  17.620  1.00  0.00     0.140 C 
HETATM   35  C7  UNL     1      20.732  35.775  18.722  1.00  0.00     0.143 C 
HETATM   36  C6  UNL     1      20.849  36.981  19.603  1.00  0.00     0.034 C 
HETATM   37  C5  UNL     1      19.931  38.102  19.171  1.00  0.00     0.010 C 
HETATM   38  C4  UNL     1      19.947  38.317  17.669  1.00  0.00     0.017 C 
HETATM   39  C3  UNL     1      19.708  39.784  17.415  1.00  0.00     0.038 C 
HETATM   40  C32 UNL     1      21.302  38.078  17.080  1.00  0.00     0.128 C 
HETATM   41  C2  UNL     1      20.525  39.997  16.170  1.00  0.00     0.118 C 
HETATM   42  C1  UNL     1      21.170  41.363  16.123  1.00  0.00     0.039 C 
HETATM   43  O4  UNL     1      21.471  39.023  16.118  1.00  0.00    -0.381 OA
HETATM   44  C31 UNL     1      21.300  36.665  16.519  1.00  0.00     0.062 C 
BRANCH  35  45
HETATM   45  O1  UNL     1      20.882  34.651  19.517  1.00  0.00    -0.393 OA
ATOM     46  H1  UNL     1      20.145  34.075  19.350  1.00  0.00     0.210 HD
ENDBRANCH  35  45
ENDBRANCH  29  34
ENDBRANCH   1  27
TORSDOF 13
ENDMDL
MODEL 5
REMARK VINA RESULT: -9.262668277      1.248      1.865
REMARK  13 active torsions:
REMARK  status: ('A' for Active; 'I' for Inactive)
REMARK    1  A    between atoms: C7_7  and  O1_8 
REMARK    2  A    between atoms: C8_10  and  N1_11 
REMARK    3  A    between atoms: C10_13  and  C11_14 
REMARK       I    between atoms: C11_14  and  N2_16 
REMARK    4  A    between atoms: N2_16  and  C12_18 
REMARK    5  A    between atoms: C12_18  and  C13_19 
REMARK    6  A    between atoms: C13_19  and  C14_20 
REMARK    7  A    between atoms: C14_20  and  C15_21 
REMARK    8  A    between atoms: C15_21  and  C16_22 
REMARK    9  A    between atoms: C16_22  and  C17_23 
REMARK   10  A    between atoms: C17_23  and  C18_24 
REMARK   11  A    between atoms: C18_24  and  C19_25 
REMARK   12  A    between atoms: C19_25  and  N3_26 
REMARK       I    between atoms: N3_26  and  C20_28 
REMARK   13  A    between atoms: C20_28  and  C21_30 
ROOT
HETATM    1  C11 UNL     1      21.914  32.854  16.898  1.00  0.00     0.271 C 
HETATM    2  O2  UNL     1      23.053  33.143  16.519  1.00  0.00    -0.266 OA
HETATM    3  N2  UNL     1      21.300  33.662  17.929  1.00  0.00    -0.356 N 
ATOM      4  H2  UNL     1      20.359  33.435  18.251  1.00  0.00     0.162 HD
ENDROOT
BRANCH   3   5
HETATM    5  C12 UNL     1      21.989  34.768  18.499  1.00  0.00     0.123 C 
BRANCH   5   6
HETATM    6  C13 UNL     1      21.797  36.078  17.841  1.00  0.00     0.020 C 
BRANCH   6   7
HETATM    7  C14 UNL     1      20.456  36.653  17.703  1.00  0.00     0.002 C 
BRANCH   7   8
HETATM    8  C15 UNL     1      19.677  37.152  18.837  1.00  0.00     0.000 C 
BRANCH   8   9
HETATM    9  C16 UNL     1      19.441  38.645  18.879  1.00  0.00     0.000 C 
BRANCH   9  10
HETATM   10  C17 UNL     1      18.158  39.062  18.246  1.00  0.00     0.002 C 
BRANCH  10  11
HETATM   11  C18 UNL     1      17.047  39.334  19.243  1.00  0.00     0.020 C 
BRANCH  11  12
HETATM   12  C19 UNL     1      15.861  38.529  18.793  1.00  0.00     0.122 C 
BRANCH  12  13
HETATM   13  N3  UNL     1      16.141  37.438  17.931  1.00  0.00    -0.360 N 
HETATM   14  C20 UNL     1      15.921  36.102  18.314  1.00  0.00     0.226 C 
HETATM   15  O3  UNL     1      15.461  35.792  19.440  1.00  0.00    -0.273 OA
ATOM     16  H3  UNL     1      16.515  37.628  17.001  1.00  0.00     0.162 HD
BRANCH  14  17
HETATM   17  C21 UNL     1      16.252  35.019  17.334  1.00  0.00     0.042 C 
HETATM   18  C22 UNL     1      15.230  33.912  17.355  1.00  0.00     0.024 C 
HETATM   19  C23 UNL     1      15.663  32.866  16.372  1.00  0.00    -0.013 C 
HETATM   20  C24 UNL     1      15.722  33.470  15.002  1.00  0.00     0.009 C 
HETATM   21  C28 UNL     1      16.981  32.279  16.809  1.00  0.00     0.009 C 
HETATM   22  C25 UNL     1      16.793  34.536  14.974  1.00  0.00    -0.013 C 
HETATM   23  C26 UNL     1      18.134  33.996  15.408  1.00  0.00     0.009 C 
HETATM   24  C30 UNL     1      16.391  35.610  15.955  1.00  0.00     0.024 C 
HETATM   25  C27 UNL     1      18.029  33.374  16.767  1.00  0.00    -0.013 C 
HETATM   26  C29 UNL     1      17.597  34.459  17.735  1.00  0.00     0.024 C 
ENDBRANCH  14  17
ENDBRANCH  12  13
ENDBRANCH  11  12
ENDBRANCH  10  11
ENDBRANCH   9  10
ENDBRANCH   8   9
ENDBRANCH   7   8
ENDBRANCH   6   7
ENDBRANCH   5   6
ENDBRANCH   3   5
BRANCH   1  27
HETATM   27  C10 UNL     1      21.183  31.745  16.348  1.00  0.00     0.134 A 
HETATM   28  C9  UNL     1      21.063  31.503  14.977  1.00  0.00     0.148 A 
HETATM   29  N1  UNL     1      20.323  30.399  14.861  1.00  0.00    -0.279 N 
HETATM   30  N5  UNL     1      20.007  29.991  16.073  1.00  0.00    -0.240 N 
HETATM   31  N4  UNL     1      20.502  30.767  16.991  1.00  0.00    -0.280 N 
ATOM     32  H5  UNL     1      19.442  29.165  16.268  1.00  0.00     0.208 HD
ATOM     33  H4  UNL     1      20.398  30.660  18.000  1.00  0.00     0.189 HD
BRANCH  29  34
HETATM   34  C8  UNL     1      19.964  29.803  13.571  1.00  0.00     0.140 C 
HETATM   35  C7  UNL     1      18.457  29.662  13.480  1.00  0.00     0.143 C 
HETATM   36  C6  UNL     1      17.965  29.507  12.074  1.00  0.00     0.034 C 
HETATM   37  C5  UNL     1      17.782  28.058  11.683  1.00  0.00     0.010 C 
HETATM   38  C4  UNL     1      18.941  27.187  12.128  1.00  0.00     0.017 C 
HETATM   39  C3  UNL     1      19.094  26.078  11.118  1.00  0.00     0.038 C 
HETATM   40  C32 UNL     1      20.250  27.909  12.053  1.00  0.00     0.128 C 
HETATM   41  C2  UNL     1      20.582  25.862  11.150  1.00  0.00     0.118 C 
HETATM   42  C1  UNL     1      21.148  25.492   9.798  1.00  0.00     0.039 C 
HETATM   43  O4  UNL     1      21.161  27.002  11.611  1.00  0.00    -0.381 OA
HETATM   44  C31 UNL     1      20.558  28.417  13.452  1.00  0.00     0.062 C 
BRANCH  35  45
HETATM   45  O1  UNL     1      17.866  30.793  14.016  1.00  0.00    -0.393 OA
ATOM     46  H1  UNL     1      17.903  30.722  14.963  1.00  0.00     0.210 HD
ENDBRANCH  35  45
ENDBRANCH  29  34
ENDBRANCH   1  27
TORSDOF 13
ENDMDL
