MODEL 1
REMARK VINA RESULT: -7.668588691      0.000      0.000
REMARK  17 active torsions:
REMARK  status: ('A' for Active; 'I' for Inactive)
REMARK    1  A    between atoms: C2_2  and  C3_3 
REMARK    2  A    between atoms: C3_3  and  C5_5 
REMARK    3  A    between atoms: C5_5  and  N1_6 
REMARK    4  A    between atoms: C5_5  and  C19_27 
REMARK       I    between atoms: N1_6  and  C6_8 
REMARK       I    between atoms: C6_8  and  N2_10 
REMARK       I    between atoms: N3_13  and  C9_14 
REMARK    5  A    between atoms: C9_14  and  C10_16 
REMARK    6  A    between atoms: C17_23  and  C18_24 
REMARK    7  A    between atoms: C19_27  and  C20_29 
REMARK    8  A    between atoms: C20_29  and  C21_30 
REMARK    9  A    between atoms: C20_29  and  C22_32 
REMARK   10  A    between atoms: C22_32  and  C23_33 
REMARK   11  A    between atoms: C22_32  and  C27_40 
REMARK   12  A    between atoms: C23_33  and  C24_34 
REMARK   13  A    between atoms: C24_34  and  S1_35 
REMARK   14  A    between atoms: S1_35  and  C25_36 
REMARK   15  A    between atoms: C25_36  and  C26_37 
REMARK   16  A    between atoms: C26_37  and  O7_38 
REMARK   17  A    between atoms: C27_40  and  C28_41 
ROOT
HETATM    1  C5  UNL     1      19.795  30.062  14.593  1.00  0.00     0.160 C 
ENDROOT
BRANCH   1   2
HETATM    2  C3  UNL     1      18.496  30.133  13.915  1.00  0.00     0.011 C 
HETATM    3  C4  UNL     1      18.334  31.359  13.002  1.00  0.00     0.012 C 
BRANCH   2   4
HETATM    4  C2  UNL     1      17.787  29.002  13.335  1.00  0.00     0.002 C 
HETATM    5  C1  UNL     1      17.378  29.109  11.891  1.00  0.00     0.005 C 
ENDBRANCH   2   4
ENDBRANCH   1   2
BRANCH   1   6
HETATM    6  N1  UNL     1      20.231  31.468  14.884  1.00  0.00    -0.331 N 
HETATM    7  C6  UNL     1      19.628  32.265  15.882  1.00  0.00     0.319 C 
HETATM    8  O1  UNL     1      18.669  31.832  16.601  1.00  0.00    -0.247 OA
HETATM    9  N2  UNL     1      20.057  33.593  16.143  1.00  0.00    -0.316 N 
HETATM   10  C7  UNL     1      19.422  34.347  17.198  1.00  0.00     0.148 C 
HETATM   11  C17 UNL     1      21.107  34.243  15.398  1.00  0.00     0.207 C 
HETATM   12  C8  UNL     1      20.474  35.178  17.932  1.00  0.00     0.145 C 
HETATM   13  N3  UNL     1      21.139  36.081  17.008  1.00  0.00    -0.348 N 
HETATM   14  C9  UNL     1      21.806  37.217  17.533  1.00  0.00     0.224 C 
HETATM   15  C16 UNL     1      21.085  35.744  15.620  1.00  0.00     0.162 C 
HETATM   16  O2  UNL     1      21.863  37.438  18.776  1.00  0.00    -0.273 OA
ATOM     17  H1  UNL     1      20.995  31.866  14.337  1.00  0.00     0.165 HD
BRANCH  14  18
HETATM   18  C10 UNL     1      22.475  38.218  16.640  1.00  0.00     0.078 C 
HETATM   19  C11 UNL     1      23.670  38.791  17.338  1.00  0.00     0.014 C 
HETATM   20  C12 UNL     1      24.183  40.053  16.692  1.00  0.00     0.001 C 
HETATM   21  C13 UNL     1      23.061  41.072  16.905  1.00  0.00     0.000 C 
HETATM   22  C14 UNL     1      21.915  40.634  16.063  1.00  0.00     0.001 C 
HETATM   23  C15 UNL     1      21.475  39.226  16.191  1.00  0.00     0.014 C 
ENDBRANCH  14  18
BRANCH  11  24
HETATM   24  C18 UNL     1      22.440  33.727  15.691  1.00  0.00     0.198 C 
HETATM   25  O3  UNL     1      23.435  34.157  15.071  1.00  0.00    -0.646 OA
HETATM   26  O4  UNL     1      22.620  32.761  16.654  1.00  0.00    -0.646 OA
ENDBRANCH  11  24
ENDBRANCH   1   6
BRANCH   1  27
HETATM   27  C19 UNL     1      20.906  29.312  14.036  1.00  0.00     0.161 C 
HETATM   28  O5  UNL     1      21.376  28.405  14.750  1.00  0.00    -0.295 OA
BRANCH  27  29
HETATM   29  C20 UNL     1      21.516  29.500  12.743  1.00  0.00     0.126 C 
BRANCH  29  30
HETATM   30  C21 UNL     1      22.667  30.426  12.794  1.00  0.00     0.244 C 
HETATM   31  O6  UNL     1      22.626  31.580  13.209  1.00  0.00    -0.306 OA
ENDBRANCH  29  30
BRANCH  29  32
HETATM   32  C22 UNL     1      22.009  28.095  12.125  1.00  0.00     0.027 C 
BRANCH  32  33
HETATM   33  C23 UNL     1      20.781  27.635  11.474  1.00  0.00    -0.014 C 
BRANCH  33  34
HETATM   34  C24 UNL     1      20.422  26.252  11.183  1.00  0.00     0.041 C 
BRANCH  34  35
HETATM   35  S1  UNL     1      18.794  25.625  11.271  1.00  0.00    -0.140 SA
BRANCH  35  36
HETATM   36  C25 UNL     1      17.874  25.530   9.739  1.00  0.00     0.104 C 
BRANCH  36  37
HETATM   37  C26 UNL     1      18.097  26.854   9.002  1.00  0.00     0.174 C 
BRANCH  37  38
HETATM   38  O7  UNL     1      18.941  26.658   7.926  1.00  0.00    -0.400 OA
ATOM     39  H7  UNL     1      19.672  27.263   7.974  1.00  0.00     0.209 HD
ENDBRANCH  37  38
ENDBRANCH  36  37
ENDBRANCH  35  36
ENDBRANCH  34  35
ENDBRANCH  33  34
ENDBRANCH  32  33
BRANCH  32  40
HETATM   40  C27 UNL     1      23.231  28.478  11.436  1.00  0.00     0.013 C 
BRANCH  40  41
HETATM   41  C28 UNL     1      24.455  27.676  11.386  1.00  0.00    -0.022 C 
HETATM   42  C29 UNL     1      24.282  26.192  11.510  1.00  0.00     0.009 C 
HETATM   43  C30 UNL     1      25.278  28.009  12.720  1.00  0.00     0.009 C 
ENDBRANCH  40  41
ENDBRANCH  32  40
ENDBRANCH  29  32
ENDBRANCH  27  29
ENDBRANCH   1  27
TORSDOF 17
ENDMDL
MODEL 2
REMARK VINA RESULT: -7.658603777      0.923      1.116
REMARK  17 active torsions:
REMARK  status: ('A' for Active; 'I' for Inactive)
REMARK    1  A    between atoms: C2_2  and  C3_3 
REMARK    2  A    between atoms: C3_3  and  C5_5 
REMARK    3  A    between atoms: C5_5  and  N1_6 
REMARK    4  A    between atoms: C5_5  and  C19_27 
REMARK       I    between atoms: N1_6  and  C6_8 
REMARK       I    between atoms: C6_8  and  N2_10 
REMARK       I    between atoms: N3_13  and  C9_14 
REMARK    5  A    between atoms: C9_14  and  C10_16 
REMARK    6  A    between atoms: C17_23  and  C18_24 
REMARK    7  A    between atoms: C19_27  and  C20_29 
REMARK    8  A    between atoms: C20_29  and  C21_30 
REMARK    9  A    between atoms: C20_29  and  C22_32 
REMARK   10  A    between atoms: C22_32  and  C23_33 
REMARK   11  A    between atoms: C22_32  and  C27_40 
REMARK   12  A    between atoms: C23_33  and  C24_34 
REMARK   13  A    between atoms: C24_34  and  S1_35 
REMARK   14  A    between atoms: S1_35  and  C25_36 
REMARK   15  A    between atoms: C25_36  and  C26_37 
REMARK   16  A    between atoms: C26_37  and  O7_38 
REMARK   17  A    between atoms: C27_40  and  C28_41 
ROOT
HETATM    1  C5  UNL     1      19.827  30.054  14.574  1.00  0.00     0.160 C 
ENDROOT
BRANCH   1   2
HETATM    2  C3  UNL     1      18.543  30.118  13.867  1.00  0.00     0.011 C 
HETATM    3  C4  UNL     1      18.401  31.336  12.939  1.00  0.00     0.012 C 
BRANCH   2   4
HETATM    4  C2  UNL     1      17.848  28.981  13.283  1.00  0.00     0.002 C 
HETATM    5  C1  UNL     1      17.482  29.069  11.826  1.00  0.00     0.005 C 
ENDBRANCH   2   4
ENDBRANCH   1   2
BRANCH   1   6
HETATM    6  N1  UNL     1      20.252  31.463  14.868  1.00  0.00    -0.331 N 
HETATM    7  C6  UNL     1      19.637  32.256  15.862  1.00  0.00     0.319 C 
HETATM    8  O1  UNL     1      18.674  31.817  16.572  1.00  0.00    -0.247 OA
HETATM    9  N2  UNL     1      20.055  33.586  16.127  1.00  0.00    -0.316 N 
HETATM   10  C7  UNL     1      19.407  34.336  17.177  1.00  0.00     0.148 C 
HETATM   11  C17 UNL     1      21.107  34.244  15.390  1.00  0.00     0.207 C 
HETATM   12  C8  UNL     1      20.448  35.174  17.920  1.00  0.00     0.145 C 
HETATM   13  N3  UNL     1      21.114  36.081  17.002  1.00  0.00    -0.348 N 
HETATM   14  C9  UNL     1      21.770  37.221  17.532  1.00  0.00     0.224 C 
HETATM   15  C16 UNL     1      21.074  35.744  15.613  1.00  0.00     0.162 C 
HETATM   16  O2  UNL     1      21.816  37.441  18.775  1.00  0.00    -0.273 OA
ATOM     17  H1  UNL     1      21.018  31.866  14.328  1.00  0.00     0.165 HD
BRANCH  14  18
HETATM   18  C10 UNL     1      22.440  38.226  16.645  1.00  0.00     0.078 C 
HETATM   19  C11 UNL     1      23.642  38.785  17.341  1.00  0.00     0.014 C 
HETATM   20  C12 UNL     1      24.159  40.051  16.704  1.00  0.00     0.001 C 
HETATM   21  C13 UNL     1      23.045  41.074  16.934  1.00  0.00     0.000 C 
HETATM   22  C14 UNL     1      21.891  40.651  16.094  1.00  0.00     0.001 C 
HETATM   23  C15 UNL     1      21.443  39.245  16.212  1.00  0.00     0.014 C 
ENDBRANCH  14  18
BRANCH  11  24
HETATM   24  C18 UNL     1      22.440  33.736  15.694  1.00  0.00     0.198 C 
HETATM   25  O3  UNL     1      22.599  32.863  16.573  1.00  0.00    -0.646 OA
HETATM   26  O4  UNL     1      23.541  34.211  15.019  1.00  0.00    -0.646 OA
ENDBRANCH  11  24
ENDBRANCH   1   6
BRANCH   1  27
HETATM   27  C19 UNL     1      20.953  29.306  14.044  1.00  0.00     0.161 C 
HETATM   28  O5  UNL     1      21.419  28.413  14.777  1.00  0.00    -0.295 OA
BRANCH  27  29
HETATM   29  C20 UNL     1      21.580  29.481  12.757  1.00  0.00     0.126 C 
BRANCH  29  30
HETATM   30  C21 UNL     1      22.702  30.443  12.805  1.00  0.00     0.244 C 
HETATM   31  O6  UNL     1      22.625  31.596  13.218  1.00  0.00    -0.306 OA
ENDBRANCH  29  30
BRANCH  29  32
HETATM   32  C22 UNL     1      22.127  28.077  12.184  1.00  0.00     0.027 C 
BRANCH  32  33
HETATM   33  C23 UNL     1      20.919  27.552  11.544  1.00  0.00    -0.014 C 
BRANCH  33  34
HETATM   34  C24 UNL     1      20.788  26.269  10.865  1.00  0.00     0.041 C 
BRANCH  34  35
HETATM   35  S1  UNL     1      19.494  25.875   9.759  1.00  0.00    -0.140 SA
BRANCH  35  36
HETATM   36  C25 UNL     1      17.900  25.488  10.475  1.00  0.00     0.104 C 
BRANCH  36  37
HETATM   37  C26 UNL     1      18.104  25.391  11.990  1.00  0.00     0.174 C 
BRANCH  37  38
HETATM   38  O7  UNL     1      18.563  24.132  12.324  1.00  0.00    -0.400 OA
ATOM     39  H7  UNL     1      19.476  24.179  12.585  1.00  0.00     0.209 HD
ENDBRANCH  37  38
ENDBRANCH  36  37
ENDBRANCH  35  36
ENDBRANCH  34  35
ENDBRANCH  33  34
ENDBRANCH  32  33
BRANCH  32  40
HETATM   40  C27 UNL     1      23.336  28.484  11.486  1.00  0.00     0.013 C 
BRANCH  40  41
HETATM   41  C28 UNL     1      24.603  27.748  11.499  1.00  0.00    -0.022 C 
HETATM   42  C29 UNL     1      24.503  26.257  11.615  1.00  0.00     0.009 C 
HETATM   43  C30 UNL     1      25.337  28.124  12.872  1.00  0.00     0.009 C 
ENDBRANCH  40  41
ENDBRANCH  32  40
ENDBRANCH  29  32
ENDBRANCH  27  29
ENDBRANCH   1  27
TORSDOF 17
ENDMDL
MODEL 3
REMARK VINA RESULT: -7.464137491      3.330      5.536
REMARK  17 active torsions:
REMARK  status: ('A' for Active; 'I' for Inactive)
REMARK    1  A    between atoms: C2_2  and  C3_3 
REMARK    2  A    between atoms: C3_3  and  C5_5 
REMARK    3  A    between atoms: C5_5  and  N1_6 
REMARK    4  A    between atoms: C5_5  and  C19_27 
REMARK       I    between atoms: N1_6  and  C6_8 
REMARK       I    between atoms: C6_8  and  N2_10 
REMARK       I    between atoms: N3_13  and  C9_14 
REMARK    5  A    between atoms: C9_14  and  C10_16 
REMARK    6  A    between atoms: C17_23  and  C18_24 
REMARK    7  A    between atoms: C19_27  and  C20_29 
REMARK    8  A    between atoms: C20_29  and  C21_30 
REMARK    9  A    between atoms: C20_29  and  C22_32 
REMARK   10  A    between atoms: C22_32  and  C23_33 
REMARK   11  A    between atoms: C22_32  and  C27_40 
REMARK   12  A    between atoms: C23_33  and  C24_34 
REMARK   13  A    between atoms: C24_34  and  S1_35 
REMARK   14  A    between atoms: S1_35  and  C25_36 
REMARK   15  A    between atoms: C25_36  and  C26_37 
REMARK   16  A    between atoms: C26_37  and  O7_38 
REMARK   17  A    between atoms: C27_40  and  C28_41 
ROOT
HETATM    1  C5  UNL     1      18.708  27.515  11.953  1.00  0.00     0.160 C 
ENDROOT
BRANCH   1   2
HETATM    2  C3  UNL     1      17.644  27.291  10.969  1.00  0.00     0.011 C 
HETATM    3  C4  UNL     1      16.899  28.570  10.552  1.00  0.00     0.012 C 
BRANCH   2   4
HETATM    4  C2  UNL     1      17.728  26.388   9.830  1.00  0.00     0.002 C 
HETATM    5  C1  UNL     1      18.059  26.992   8.493  1.00  0.00     0.005 C 
ENDBRANCH   2   4
ENDBRANCH   1   2
BRANCH   1   6
HETATM    6  N1  UNL     1      18.365  28.762  12.715  1.00  0.00    -0.331 N 
HETATM    7  C6  UNL     1      18.715  28.952  14.070  1.00  0.00     0.319 C 
HETATM    8  O1  UNL     1      19.348  28.066  14.731  1.00  0.00    -0.247 OA
HETATM    9  N2  UNL     1      18.383  30.140  14.772  1.00  0.00    -0.316 N 
HETATM   10  C7  UNL     1      18.795  30.288  16.147  1.00  0.00     0.148 C 
HETATM   11  C17 UNL     1      17.640  31.225  14.178  1.00  0.00     0.207 C 
HETATM   12  C8  UNL     1      19.229  31.733  16.395  1.00  0.00     0.145 C 
HETATM   13  N3  UNL     1      18.137  32.645  16.104  1.00  0.00    -0.348 N 
HETATM   14  C9  UNL     1      18.169  33.944  16.672  1.00  0.00     0.224 C 
HETATM   15  C16 UNL     1      17.103  32.165  15.242  1.00  0.00     0.162 C 
HETATM   16  O2  UNL     1      19.136  34.331  17.388  1.00  0.00    -0.273 OA
ATOM     17  H1  UNL     1      17.857  29.504  12.234  1.00  0.00     0.165 HD
BRANCH  14  18
HETATM   18  C10 UNL     1      17.057  34.924  16.455  1.00  0.00     0.078 C 
HETATM   19  C11 UNL     1      17.502  36.288  16.885  1.00  0.00     0.014 C 
HETATM   20  C12 UNL     1      16.358  37.256  17.059  1.00  0.00     0.001 C 
HETATM   21  C13 UNL     1      15.564  36.696  18.242  1.00  0.00     0.000 C 
HETATM   22  C14 UNL     1      14.941  35.426  17.782  1.00  0.00     0.001 C 
HETATM   23  C15 UNL     1      15.824  34.431  17.132  1.00  0.00     0.014 C 
ENDBRANCH  14  18
BRANCH  11  24
HETATM   24  C18 UNL     1      18.402  31.988  13.195  1.00  0.00     0.198 C 
HETATM   25  O3  UNL     1      18.970  31.407  12.246  1.00  0.00    -0.646 OA
HETATM   26  O4  UNL     1      18.506  33.356  13.298  1.00  0.00    -0.646 OA
ENDBRANCH  11  24
ENDBRANCH   1   6
BRANCH   1  27
HETATM   27  C19 UNL     1      20.108  27.548  11.569  1.00  0.00     0.161 C 
HETATM   28  O5  UNL     1      20.469  28.516  10.874  1.00  0.00    -0.295 OA
BRANCH  27  29
HETATM   29  C20 UNL     1      21.124  26.585  11.916  1.00  0.00     0.126 C 
BRANCH  29  30
HETATM   30  C21 UNL     1      21.094  25.396  11.037  1.00  0.00     0.244 C 
HETATM   31  O6  UNL     1      20.341  24.437  11.172  1.00  0.00    -0.306 OA
ENDBRANCH  29  30
BRANCH  29  32
HETATM   32  C22 UNL     1      22.593  27.242  11.847  1.00  0.00     0.027 C 
BRANCH  32  33
HETATM   33  C23 UNL     1      22.599  28.033  13.079  1.00  0.00    -0.014 C 
BRANCH  33  34
HETATM   34  C24 UNL     1      22.958  29.441  13.202  1.00  0.00     0.041 C 
BRANCH  34  35
HETATM   35  S1  UNL     1      22.060  30.600  14.152  1.00  0.00    -0.140 SA
BRANCH  35  36
HETATM   36  C25 UNL     1      22.173  32.317  13.660  1.00  0.00     0.104 C 
BRANCH  36  37
HETATM   37  C26 UNL     1      22.096  33.154  14.940  1.00  0.00     0.174 C 
BRANCH  37  38
HETATM   38  O7  UNL     1      21.109  34.112  14.820  1.00  0.00    -0.400 OA
ATOM     39  H7  UNL     1      21.016  34.370  13.910  1.00  0.00     0.209 HD
ENDBRANCH  37  38
ENDBRANCH  36  37
ENDBRANCH  35  36
ENDBRANCH  34  35
ENDBRANCH  33  34
ENDBRANCH  32  33
BRANCH  32  40
HETATM   40  C27 UNL     1      23.434  26.083  11.591  1.00  0.00     0.013 C 
BRANCH  40  41
HETATM   41  C28 UNL     1      24.813  26.136  11.102  1.00  0.00    -0.022 C 
HETATM   42  C29 UNL     1      25.571  27.398  11.387  1.00  0.00     0.009 C 
HETATM   43  C30 UNL     1      24.733  26.170   9.503  1.00  0.00     0.009 C 
ENDBRANCH  40  41
ENDBRANCH  32  40
ENDBRANCH  29  32
ENDBRANCH  27  29
ENDBRANCH   1  27
TORSDOF 17
ENDMDL
MODEL 4
REMARK VINA RESULT: -7.411583619      3.458     11.127
REMARK  17 active torsions:
REMARK  status: ('A' for Active; 'I' for Inactive)
REMARK    1  A    between atoms: C2_2  and  C3_3 
REMARK    2  A    between atoms: C3_3  and  C5_5 
REMARK    3  A    between atoms: C5_5  and  N1_6 
REMARK    4  A    between atoms: C5_5  and  C19_27 
REMARK       I    between atoms: N1_6  and  C6_8 
REMARK       I    between atoms: C6_8  and  N2_10 
REMARK       I    between atoms: N3_13  and  C9_14 
REMARK    5  A    between atoms: C9_14  and  C10_16 
REMARK    6  A    between atoms: C17_23  and  C18_24 
REMARK    7  A    between atoms: C19_27  and  C20_29 
REMARK    8  A    between atoms: C20_29  and  C21_30 
REMARK    9  A    between atoms: C20_29  and  C22_32 
REMARK   10  A    between atoms: C22_32  and  C23_33 
REMARK   11  A    between atoms: C22_32  and  C27_40 
REMARK   12  A    between atoms: C23_33  and  C24_34 
REMARK   13  A    between atoms: C24_34  and  S1_35 
REMARK   14  A    between atoms: S1_35  and  C25_36 
REMARK   15  A    between atoms: C25_36  and  C26_37 
REMARK   16  A    between atoms: C26_37  and  O7_38 
REMARK   17  A    between atoms: C27_40  and  C28_41 
ROOT
HETATM    1  C5  UNL     1      20.452  31.374  15.579  1.00  0.00     0.160 C 
ENDROOT
BRANCH   1   2
HETATM    2  C3  UNL     1      21.648  32.176  15.301  1.00  0.00     0.011 C 
HETATM    3  C4  UNL     1      21.701  32.747  13.875  1.00  0.00     0.012 C 
BRANCH   2   4
HETATM    4  C2  UNL     1      22.259  33.122  16.223  1.00  0.00     0.002 C 
HETATM    5  C1  UNL     1      22.586  34.491  15.692  1.00  0.00     0.005 C 
ENDBRANCH   2   4
ENDBRANCH   1   2
BRANCH   1   6
HETATM    6  N1  UNL     1      20.225  30.476  14.397  1.00  0.00    -0.331 N 
HETATM    7  C6  UNL     1      21.185  29.542  13.952  1.00  0.00     0.319 C 
HETATM    8  O1  UNL     1      22.312  29.406  14.531  1.00  0.00    -0.247 OA
HETATM    9  N2  UNL     1      20.951  28.700  12.833  1.00  0.00    -0.316 N 
HETATM   10  C7  UNL     1      21.959  27.743  12.443  1.00  0.00     0.148 C 
HETATM   11  C17 UNL     1      19.742  28.752  12.047  1.00  0.00     0.207 C 
HETATM   12  C8  UNL     1      21.283  26.445  12.001  1.00  0.00     0.145 C 
HETATM   13  N3  UNL     1      20.385  26.698  10.888  1.00  0.00    -0.348 N 
HETATM   14  C9  UNL     1      20.010  25.611  10.058  1.00  0.00     0.224 C 
HETATM   15  C16 UNL     1      19.924  28.040  10.719  1.00  0.00     0.162 C 
HETATM   16  O2  UNL     1      20.410  24.434  10.286  1.00  0.00    -0.273 OA
ATOM     17  H1  UNL     1      19.340  30.544  13.895  1.00  0.00     0.165 HD
BRANCH  14  18
HETATM   18  C10 UNL     1      19.124  25.801   8.865  1.00  0.00     0.078 C 
HETATM   19  C11 UNL     1      17.732  25.361   9.201  1.00  0.00     0.014 C 
HETATM   20  C12 UNL     1      16.865  25.161   7.983  1.00  0.00     0.001 C 
HETATM   21  C13 UNL     1      17.502  23.975   7.254  1.00  0.00     0.000 C 
HETATM   22  C14 UNL     1      18.815  24.443   6.733  1.00  0.00     0.001 C 
HETATM   23  C15 UNL     1      19.726  25.115   7.687  1.00  0.00     0.014 C 
ENDBRANCH  14  18
BRANCH  11  24
HETATM   24  C18 UNL     1      18.574  28.209  12.733  1.00  0.00     0.198 C 
HETATM   25  O3  UNL     1      18.652  27.852  13.927  1.00  0.00    -0.646 OA
HETATM   26  O4  UNL     1      17.372  28.083  12.076  1.00  0.00    -0.646 OA
ENDBRANCH  11  24
ENDBRANCH   1   6
BRANCH   1  27
HETATM   27  C19 UNL     1      19.197  31.988  15.973  1.00  0.00     0.161 C 
HETATM   28  O5  UNL     1      18.501  31.353  16.789  1.00  0.00    -0.295 OA
BRANCH  27  29
HETATM   29  C20 UNL     1      18.676  33.257  15.527  1.00  0.00     0.126 C 
BRANCH  29  30
HETATM   30  C21 UNL     1      17.790  33.119  14.352  1.00  0.00     0.244 C 
HETATM   31  O6  UNL     1      17.796  32.173  13.571  1.00  0.00    -0.306 OA
ENDBRANCH  29  30
BRANCH  29  32
HETATM   32  C22 UNL     1      17.861  33.995  16.706  1.00  0.00     0.027 C 
BRANCH  32  33
HETATM   33  C23 UNL     1      18.953  34.658  17.422  1.00  0.00    -0.014 C 
BRANCH  33  34
HETATM   34  C24 UNL     1      19.163  36.095  17.540  1.00  0.00     0.041 C 
BRANCH  34  35
HETATM   35  S1  UNL     1      20.239  36.835  18.700  1.00  0.00    -0.140 SA
BRANCH  35  36
HETATM   36  C25 UNL     1      21.941  36.282  18.700  1.00  0.00     0.104 C 
BRANCH  36  37
HETATM   37  C26 UNL     1      22.026  35.101  19.672  1.00  0.00     0.174 C 
BRANCH  37  38
HETATM   38  O7  UNL     1      20.858  35.006  20.402  1.00  0.00    -0.400 OA
ATOM     39  H7  UNL     1      20.181  35.540  20.002  1.00  0.00     0.209 HD
ENDBRANCH  37  38
ENDBRANCH  36  37
ENDBRANCH  35  36
ENDBRANCH  34  35
ENDBRANCH  33  34
ENDBRANCH  32  33
BRANCH  32  40
HETATM   40  C27 UNL     1      16.808  34.674  15.968  1.00  0.00     0.013 C 
BRANCH  40  41
HETATM   41  C28 UNL     1      15.493  35.024  16.510  1.00  0.00    -0.022 C 
HETATM   42  C29 UNL     1      15.420  36.288  17.312  1.00  0.00     0.009 C 
HETATM   43  C30 UNL     1      15.148  33.924  17.623  1.00  0.00     0.009 C 
ENDBRANCH  40  41
ENDBRANCH  32  40
ENDBRANCH  29  32
ENDBRANCH  27  29
ENDBRANCH   1  27
TORSDOF 17
ENDMDL
MODEL 5
REMARK VINA RESULT: -7.397216795      2.206      4.323
REMARK  17 active torsions:
REMARK  status: ('A' for Active; 'I' for Inactive)
REMARK    1  A    between atoms: C2_2  and  C3_3 
REMARK    2  A    between atoms: C3_3  and  C5_5 
REMARK    3  A    between atoms: C5_5  and  N1_6 
REMARK    4  A    between atoms: C5_5  and  C19_27 
REMARK       I    between atoms: N1_6  and  C6_8 
REMARK       I    between atoms: C6_8  and  N2_10 
REMARK       I    between atoms: N3_13  and  C9_14 
REMARK    5  A    between atoms: C9_14  and  C10_16 
REMARK    6  A    between atoms: C17_23  and  C18_24 
REMARK    7  A    between atoms: C19_27  and  C20_29 
REMARK    8  A    between atoms: C20_29  and  C21_30 
REMARK    9  A    between atoms: C20_29  and  C22_32 
REMARK   10  A    between atoms: C22_32  and  C23_33 
REMARK   11  A    between atoms: C22_32  and  C27_40 
REMARK   12  A    between atoms: C23_33  and  C24_34 
REMARK   13  A    between atoms: C24_34  and  S1_35 
REMARK   14  A    between atoms: S1_35  and  C25_36 
REMARK   15  A    between atoms: C25_36  and  C26_37 
REMARK   16  A    between atoms: C26_37  and  O7_38 
REMARK   17  A    between atoms: C27_40  and  C28_41 
ROOT
HETATM    1  C5  UNL     1      20.797  29.729  12.223  1.00  0.00     0.160 C 
ENDROOT
BRANCH   1   2
HETATM    2  C3  UNL     1      22.177  29.732  11.726  1.00  0.00     0.011 C 
HETATM    3  C4  UNL     1      23.226  30.076  12.797  1.00  0.00     0.012 C 
BRANCH   2   4
HETATM    4  C2  UNL     1      22.738  28.766  10.793  1.00  0.00     0.002 C 
HETATM    5  C1  UNL     1      24.035  28.108  11.176  1.00  0.00     0.005 C 
ENDBRANCH   2   4
ENDBRANCH   1   2
BRANCH   1   6
HETATM    6  N1  UNL     1      20.680  30.827  13.240  1.00  0.00    -0.331 N 
HETATM    7  C6  UNL     1      19.490  31.562  13.437  1.00  0.00     0.319 C 
HETATM    8  O1  UNL     1      18.438  31.336  12.755  1.00  0.00    -0.247 OA
HETATM    9  N2  UNL     1      19.399  32.596  14.405  1.00  0.00    -0.316 N 
HETATM   10  C7  UNL     1      18.147  33.293  14.581  1.00  0.00     0.148 C 
HETATM   11  C17 UNL     1      20.508  32.999  15.236  1.00  0.00     0.207 C 
HETATM   12  C8  UNL     1      17.924  33.569  16.068  1.00  0.00     0.145 C 
HETATM   13  N3  UNL     1      19.014  34.366  16.602  1.00  0.00    -0.348 N 
HETATM   14  C9  UNL     1      18.798  35.092  17.802  1.00  0.00     0.224 C 
HETATM   15  C16 UNL     1      20.246  34.348  15.880  1.00  0.00     0.162 C 
HETATM   16  O2  UNL     1      17.701  35.031  18.426  1.00  0.00    -0.273 OA
ATOM     17  H1  UNL     1      21.493  31.051  13.813  1.00  0.00     0.165 HD
BRANCH  14  18
HETATM   18  C10 UNL     1      19.859  35.973  18.389  1.00  0.00     0.078 C 
HETATM   19  C11 UNL     1      20.184  37.073  17.426  1.00  0.00     0.014 C 
HETATM   20  C12 UNL     1      21.477  37.779  17.750  1.00  0.00     0.001 C 
HETATM   21  C13 UNL     1      22.555  36.715  17.531  1.00  0.00     0.000 C 
HETATM   22  C14 UNL     1      22.381  35.697  18.602  1.00  0.00     0.001 C 
HETATM   23  C15 UNL     1      21.024  35.139  18.797  1.00  0.00     0.014 C 
ENDBRANCH  14  18
BRANCH  11  24
HETATM   24  C18 UNL     1      20.851  32.026  16.267  1.00  0.00     0.198 C 
HETATM   25  O3  UNL     1      20.140  31.015  16.444  1.00  0.00    -0.646 OA
HETATM   26  O4  UNL     1      21.961  32.208  17.061  1.00  0.00    -0.646 OA
ENDBRANCH  11  24
ENDBRANCH   1   6
BRANCH   1  27
HETATM   27  C19 UNL     1      20.174  28.522  12.734  1.00  0.00     0.161 C 
HETATM   28  O5  UNL     1      20.506  28.170  13.882  1.00  0.00    -0.295 OA
BRANCH  27  29
HETATM   29  C20 UNL     1      19.204  27.694  12.059  1.00  0.00     0.126 C 
BRANCH  29  30
HETATM   30  C21 UNL     1      18.018  28.462  11.624  1.00  0.00     0.244 C 
HETATM   31  O6  UNL     1      16.943  28.495  12.214  1.00  0.00    -0.306 OA
ENDBRANCH  29  30
BRANCH  29  32
HETATM   32  C22 UNL     1      19.855  26.973  10.773  1.00  0.00     0.027 C 
BRANCH  32  33
HETATM   33  C23 UNL     1      20.243  25.684  11.348  1.00  0.00    -0.014 C 
BRANCH  33  34
HETATM   34  C24 UNL     1      21.491  24.970  11.106  1.00  0.00     0.041 C 
BRANCH  34  35
HETATM   35  S1  UNL     1      22.416  25.089   9.630  1.00  0.00    -0.140 SA
BRANCH  35  36
HETATM   36  C25 UNL     1      21.653  24.462   8.137  1.00  0.00     0.104 C 
BRANCH  36  37
HETATM   37  C26 UNL     1      22.597  24.797   6.979  1.00  0.00     0.174 C 
BRANCH  37  38
HETATM   38  O7  UNL     1      23.402  25.866   7.320  1.00  0.00    -0.400 OA
ATOM     39  H7  UNL     1      22.910  26.677   7.254  1.00  0.00     0.209 HD
ENDBRANCH  37  38
ENDBRANCH  36  37
ENDBRANCH  35  36
ENDBRANCH  34  35
ENDBRANCH  33  34
ENDBRANCH  32  33
BRANCH  32  40
HETATM   40  C27 UNL     1      18.825  27.166   9.763  1.00  0.00     0.013 C 
BRANCH  40  41
HETATM   41  C28 UNL     1      18.526  26.229   8.678  1.00  0.00    -0.022 C 
HETATM   42  C29 UNL     1      18.255  26.835   7.334  1.00  0.00     0.009 C 
HETATM   43  C30 UNL     1      17.107  25.570   9.019  1.00  0.00     0.009 C 
ENDBRANCH  40  41
ENDBRANCH  32  40
ENDBRANCH  29  32
ENDBRANCH  27  29
ENDBRANCH   1  27
TORSDOF 17
ENDMDL
