MODEL 1
REMARK VINA RESULT: -8.763175966      0.000      0.000
REMARK  12 active torsions:
REMARK  status: ('A' for Active; 'I' for Inactive)
REMARK    1  A    between atoms: C2_2  and  C3_3 
REMARK    2  A    between atoms: C3_3  and  N1_4 
REMARK       I    between atoms: N1_4  and  C4_6 
REMARK    3  A    between atoms: C4_6  and  C5_8 
REMARK    4  A    between atoms: C5_8  and  C6_9 
REMARK    5  A    between atoms: C5_8  and  N2_31 
REMARK    6  A    between atoms: C6_9  and  S1_10 
REMARK    7  A    between atoms: S1_10  and  S2_11 
REMARK    8  A    between atoms: S2_11  and  C7_12 
REMARK    9  A    between atoms: C7_12  and  C8_13 
REMARK       I    between atoms: N2_31  and  C23_33 
REMARK   10  A    between atoms: C23_33  and  C24_35 
REMARK   11  A    between atoms: C24_35  and  C25_36 
REMARK   12  A    between atoms: C25_36  and  C26_37 
ROOT
HETATM    1  S2  UNL     1      17.756  29.084  11.674  1.00  0.00    -0.097 SA
ENDROOT
BRANCH   1   2
HETATM    2  S1  UNL     1      17.729  27.071  12.346  1.00  0.00    -0.095 SA
BRANCH   2   3
HETATM    3  C6  UNL     1      18.926  26.135  11.424  1.00  0.00     0.120 C 
BRANCH   3   4
HETATM    4  C5  UNL     1      19.561  26.888  10.256  1.00  0.00     0.186 C 
BRANCH   4   5
HETATM    5  C4  UNL     1      18.734  26.458   9.072  1.00  0.00     0.241 C 
HETATM    6  N1  UNL     1      18.746  27.339   7.966  1.00  0.00    -0.359 N 
ATOM      7  H1  UNL     1      19.298  28.196   8.013  1.00  0.00     0.162 HD
HETATM    8  O1  UNL     1      18.075  25.413   9.038  1.00  0.00    -0.271 OA
BRANCH   6   9
HETATM    9  C3  UNL     1      17.996  27.047   6.775  1.00  0.00     0.122 C 
BRANCH   9  10
HETATM   10  C2  UNL     1      18.353  28.010   5.676  1.00  0.00     0.015 C 
HETATM   11  C1  UNL     1      17.214  27.994   4.654  1.00  0.00     0.006 C 
ENDBRANCH   9  10
ENDBRANCH   6   9
ENDBRANCH   4   5
BRANCH   4  12
HETATM   12  N2  UNL     1      20.902  26.464  10.034  1.00  0.00    -0.347 N 
HETATM   13  C23 UNL     1      21.847  25.674  10.658  1.00  0.00     0.218 C 
HETATM   14  O5  UNL     1      21.753  25.012  11.724  1.00  0.00    -0.274 OA
ATOM     15  H2  UNL     1      21.270  26.856   9.167  1.00  0.00     0.163 HD
BRANCH  13  16
HETATM   16  C24 UNL     1      23.212  25.569   9.980  1.00  0.00     0.113 C 
BRANCH  16  17
HETATM   17  C25 UNL     1      24.026  26.800  10.154  1.00  0.00     0.122 C 
BRANCH  17  18
HETATM   18  C26 UNL     1      24.388  27.069  11.563  1.00  0.00     0.172 C 
HETATM   19  O6  UNL     1      25.101  26.333  12.277  1.00  0.00    -0.648 OA
HETATM   20  O7  UNL     1      23.909  28.241  12.182  1.00  0.00    -0.648 OA
ENDBRANCH  17  18
ENDBRANCH  16  17
ENDBRANCH  13  16
ENDBRANCH   4  12
ENDBRANCH   3   4
ENDBRANCH   2   3
ENDBRANCH   1   2
BRANCH   1  21
HETATM   21  C7  UNL     1      18.221  30.230  12.939  1.00  0.00     0.101 C 
BRANCH  21  22
HETATM   22  C8  UNL     1      19.688  30.536  13.082  1.00  0.00     0.102 C 
HETATM   23  C9  UNL     1      19.816  32.018  12.933  1.00  0.00     0.135 C 
HETATM   24  O2  UNL     1      20.501  32.361  11.981  1.00  0.00    -0.297 OA
HETATM   25  C10 UNL     1      19.335  33.279  13.629  1.00  0.00     0.086 C 
HETATM   26  C11 UNL     1      20.304  33.720  14.623  1.00  0.00     0.035 C 
HETATM   27  C12 UNL     1      19.872  34.346  15.914  1.00  0.00    -0.003 C 
HETATM   28  C15 UNL     1      21.086  32.586  15.310  1.00  0.00     0.104 C 
HETATM   29  C13 UNL     1      21.292  34.794  16.347  1.00  0.00     0.009 C 
HETATM   30  C21 UNL     1      19.585  33.225  16.926  1.00  0.00    -0.007 C 
HETATM   31  C14 UNL     1      21.990  33.441  16.197  1.00  0.00     0.042 C 
HETATM   32  C20 UNL     1      19.891  32.037  16.051  1.00  0.00     0.028 C 
HETATM   33  C22 UNL     1      18.144  33.320  17.323  1.00  0.00     0.011 C 
HETATM   34  C19 UNL     1      20.023  30.706  16.605  1.00  0.00     0.011 C 
HETATM   35  C18 UNL     1      19.541  29.737  15.494  1.00  0.00     0.042 C 
HETATM   36  C16 UNL     1      20.374  29.933  14.233  1.00  0.00     0.104 C 
HETATM   37  O4  UNL     1      21.536  30.527  14.642  1.00  0.00    -0.228 OA
HETATM   38  C17 UNL     1      20.816  28.511  13.828  1.00  0.00     0.050 C 
HETATM   39  O3  UNL     1      21.739  31.756  14.496  1.00  0.00    -0.228 OA
ENDBRANCH  21  22
ENDBRANCH   1  21
TORSDOF 12
ENDMDL
MODEL 2
REMARK VINA RESULT: -8.590657656      2.534      5.126
REMARK  12 active torsions:
REMARK  status: ('A' for Active; 'I' for Inactive)
REMARK    1  A    between atoms: C2_2  and  C3_3 
REMARK    2  A    between atoms: C3_3  and  N1_4 
REMARK       I    between atoms: N1_4  and  C4_6 
REMARK    3  A    between atoms: C4_6  and  C5_8 
REMARK    4  A    between atoms: C5_8  and  C6_9 
REMARK    5  A    between atoms: C5_8  and  N2_31 
REMARK    6  A    between atoms: C6_9  and  S1_10 
REMARK    7  A    between atoms: S1_10  and  S2_11 
REMARK    8  A    between atoms: S2_11  and  C7_12 
REMARK    9  A    between atoms: C7_12  and  C8_13 
REMARK       I    between atoms: N2_31  and  C23_33 
REMARK   10  A    between atoms: C23_33  and  C24_35 
REMARK   11  A    between atoms: C24_35  and  C25_36 
REMARK   12  A    between atoms: C25_36  and  C26_37 
ROOT
HETATM    1  S2  UNL     1      20.335  29.142  15.305  1.00  0.00    -0.097 SA
ENDROOT
BRANCH   1   2
HETATM    2  S1  UNL     1      21.956  29.340  13.950  1.00  0.00    -0.095 SA
BRANCH   2   3
HETATM    3  C6  UNL     1      21.423  28.843  12.330  1.00  0.00     0.120 C 
BRANCH   3   4
HETATM    4  C5  UNL     1      20.839  27.433  12.256  1.00  0.00     0.186 C 
BRANCH   4   5
HETATM    5  C4  UNL     1      21.910  26.648  11.544  1.00  0.00     0.241 C 
HETATM    6  N1  UNL     1      22.854  27.415  10.823  1.00  0.00    -0.359 N 
ATOM      7  H1  UNL     1      22.775  28.432  10.819  1.00  0.00     0.162 HD
HETATM    8  O1  UNL     1      21.986  25.414  11.567  1.00  0.00    -0.271 OA
BRANCH   6   9
HETATM    9  C3  UNL     1      23.923  26.787  10.097  1.00  0.00     0.122 C 
BRANCH   9  10
HETATM   10  C2  UNL     1      25.256  27.290  10.580  1.00  0.00     0.015 C 
HETATM   11  C1  UNL     1      25.237  27.266  12.110  1.00  0.00     0.006 C 
ENDBRANCH   9  10
ENDBRANCH   6   9
ENDBRANCH   4   5
BRANCH   4  12
HETATM   12  N2  UNL     1      19.662  27.400  11.455  1.00  0.00    -0.347 N 
HETATM   13  C23 UNL     1      18.581  26.566  11.251  1.00  0.00     0.218 C 
HETATM   14  O5  UNL     1      18.301  25.474  11.812  1.00  0.00    -0.274 OA
ATOM     15  H2  UNL     1      19.601  28.227  10.862  1.00  0.00     0.163 HD
BRANCH  13  16
HETATM   16  C24 UNL     1      17.562  27.004  10.202  1.00  0.00     0.113 C 
BRANCH  16  17
HETATM   17  C25 UNL     1      17.643  28.459   9.908  1.00  0.00     0.122 C 
BRANCH  17  18
HETATM   18  C26 UNL     1      17.084  29.306  10.984  1.00  0.00     0.172 C 
HETATM   19  O6  UNL     1      17.749  29.866  11.880  1.00  0.00    -0.648 OA
HETATM   20  O7  UNL     1      15.691  29.523  11.032  1.00  0.00    -0.648 OA
ENDBRANCH  17  18
ENDBRANCH  16  17
ENDBRANCH  13  16
ENDBRANCH   4  12
ENDBRANCH   3   4
ENDBRANCH   2   3
ENDBRANCH   1   2
BRANCH   1  21
HETATM   21  C7  UNL     1      19.731  30.696  15.897  1.00  0.00     0.101 C 
BRANCH  21  22
HETATM   22  C8  UNL     1      18.962  31.548  14.923  1.00  0.00     0.102 C 
HETATM   23  C9  UNL     1      17.578  31.660  15.479  1.00  0.00     0.135 C 
HETATM   24  O2  UNL     1      16.714  31.192  14.752  1.00  0.00    -0.297 OA
HETATM   25  C10 UNL     1      16.889  32.198  16.721  1.00  0.00     0.086 C 
HETATM   26  C11 UNL     1      16.464  33.576  16.519  1.00  0.00     0.035 C 
HETATM   27  C12 UNL     1      16.500  34.577  17.633  1.00  0.00    -0.003 C 
HETATM   28  C15 UNL     1      17.377  34.404  15.598  1.00  0.00     0.104 C 
HETATM   29  C13 UNL     1      15.718  35.679  16.870  1.00  0.00     0.009 C 
HETATM   30  C21 UNL     1      17.909  35.190  17.690  1.00  0.00    -0.007 C 
HETATM   31  C14 UNL     1      16.583  35.710  15.608  1.00  0.00     0.042 C 
HETATM   32  C20 UNL     1      18.543  34.423  16.557  1.00  0.00     0.028 C 
HETATM   33  C22 UNL     1      18.496  34.871  19.030  1.00  0.00     0.011 C 
HETATM   34  C19 UNL     1      19.829  34.806  16.013  1.00  0.00     0.011 C 
HETATM   35  C18 UNL     1      20.491  33.489  15.531  1.00  0.00     0.042 C 
HETATM   36  C16 UNL     1      19.600  32.803  14.503  1.00  0.00     0.104 C 
HETATM   37  O4  UNL     1      18.781  33.780  14.008  1.00  0.00    -0.228 OA
HETATM   38  C17 UNL     1      20.538  32.482  13.320  1.00  0.00     0.050 C 
HETATM   39  O3  UNL     1      17.590  33.898  14.383  1.00  0.00    -0.228 OA
ENDBRANCH  21  22
ENDBRANCH   1  21
TORSDOF 12
ENDMDL
MODEL 3
REMARK VINA RESULT: -8.581816972      2.171      3.819
REMARK  12 active torsions:
REMARK  status: ('A' for Active; 'I' for Inactive)
REMARK    1  A    between atoms: C2_2  and  C3_3 
REMARK    2  A    between atoms: C3_3  and  N1_4 
REMARK       I    between atoms: N1_4  and  C4_6 
REMARK    3  A    between atoms: C4_6  and  C5_8 
REMARK    4  A    between atoms: C5_8  and  C6_9 
REMARK    5  A    between atoms: C5_8  and  N2_31 
REMARK    6  A    between atoms: C6_9  and  S1_10 
REMARK    7  A    between atoms: S1_10  and  S2_11 
REMARK    8  A    between atoms: S2_11  and  C7_12 
REMARK    9  A    between atoms: C7_12  and  C8_13 
REMARK       I    between atoms: N2_31  and  C23_33 
REMARK   10  A    between atoms: C23_33  and  C24_35 
REMARK   11  A    between atoms: C24_35  and  C25_36 
REMARK   12  A    between atoms: C25_36  and  C26_37 
ROOT
HETATM    1  S2  UNL     1      16.934  29.158  10.880  1.00  0.00    -0.097 SA
ENDROOT
BRANCH   1   2
HETATM    2  S1  UNL     1      17.655  27.179  10.621  1.00  0.00    -0.095 SA
BRANCH   2   3
HETATM    3  C6  UNL     1      19.112  27.220   9.605  1.00  0.00     0.120 C 
BRANCH   3   4
HETATM    4  C5  UNL     1      19.724  25.850   9.312  1.00  0.00     0.186 C 
BRANCH   4   5
HETATM    5  C4  UNL     1      20.763  25.693  10.393  1.00  0.00     0.241 C 
HETATM    6  N1  UNL     1      21.870  26.568  10.309  1.00  0.00    -0.359 N 
ATOM      7  H1  UNL     1      21.915  27.248   9.550  1.00  0.00     0.162 HD
HETATM    8  O1  UNL     1      20.684  24.861  11.305  1.00  0.00    -0.271 OA
BRANCH   6   9
HETATM    9  C3  UNL     1      22.932  26.517  11.276  1.00  0.00     0.122 C 
BRANCH   9  10
HETATM   10  C2  UNL     1      23.959  27.578  10.988  1.00  0.00     0.015 C 
HETATM   11  C1  UNL     1      25.176  27.300  11.873  1.00  0.00     0.006 C 
ENDBRANCH   9  10
ENDBRANCH   6   9
ENDBRANCH   4   5
BRANCH   4  12
HETATM   12  N2  UNL     1      20.391  25.838   8.054  1.00  0.00    -0.347 N 
HETATM   13  C23 UNL     1      20.620  24.951   7.021  1.00  0.00     0.218 C 
HETATM   14  O5  UNL     1      20.228  23.762   6.891  1.00  0.00    -0.274 OA
ATOM     15  H2  UNL     1      20.823  26.741   7.862  1.00  0.00     0.163 HD
BRANCH  13  16
HETATM   16  C24 UNL     1      21.466  25.457   5.855  1.00  0.00     0.113 C 
BRANCH  16  17
HETATM   17  C25 UNL     1      22.843  24.897   5.870  1.00  0.00     0.122 C 
BRANCH  17  18
HETATM   18  C26 UNL     1      23.508  25.012   7.186  1.00  0.00     0.172 C 
HETATM   19  O6  UNL     1      23.724  26.082   7.793  1.00  0.00    -0.648 OA
HETATM   20  O7  UNL     1      23.943  23.841   7.839  1.00  0.00    -0.648 OA
ENDBRANCH  17  18
ENDBRANCH  16  17
ENDBRANCH  13  16
ENDBRANCH   4  12
ENDBRANCH   3   4
ENDBRANCH   2   3
ENDBRANCH   1   2
BRANCH   1  21
HETATM   21  C7  UNL     1      17.737  30.022  12.199  1.00  0.00     0.101 C 
BRANCH  21  22
HETATM   22  C8  UNL     1      18.911  29.341  12.850  1.00  0.00     0.102 C 
HETATM   23  C9  UNL     1      20.129  30.046  12.344  1.00  0.00     0.135 C 
HETATM   24  O2  UNL     1      20.890  29.327  11.715  1.00  0.00    -0.297 OA
HETATM   25  C10 UNL     1      20.733  31.439  12.373  1.00  0.00     0.086 C 
HETATM   26  C11 UNL     1      21.636  31.586  13.506  1.00  0.00     0.035 C 
HETATM   27  C12 UNL     1      21.754  32.881  14.250  1.00  0.00    -0.003 C 
HETATM   28  C15 UNL     1      21.241  30.779  14.755  1.00  0.00     0.104 C 
HETATM   29  C13 UNL     1      22.988  32.460  15.090  1.00  0.00     0.009 C 
HETATM   30  C21 UNL     1      20.656  32.925  15.326  1.00  0.00    -0.007 C 
HETATM   31  C14 UNL     1      22.422  31.153  15.649  1.00  0.00     0.042 C 
HETATM   32  C20 UNL     1      20.005  31.594  15.049  1.00  0.00     0.028 C 
HETATM   33  C22 UNL     1      19.771  34.097  15.033  1.00  0.00     0.011 C 
HETATM   34  C19 UNL     1      19.046  31.018  15.968  1.00  0.00     0.011 C 
HETATM   35  C18 UNL     1      18.065  30.195  15.092  1.00  0.00     0.042 C 
HETATM   36  C16 UNL     1      18.829  29.140  14.303  1.00  0.00     0.104 C 
HETATM   37  O4  UNL     1      20.008  28.956  14.971  1.00  0.00    -0.228 OA
HETATM   38  C17 UNL     1      18.060  27.825  14.555  1.00  0.00     0.050 C 
HETATM   39  O3  UNL     1      21.082  29.467  14.572  1.00  0.00    -0.228 OA
ENDBRANCH  21  22
ENDBRANCH   1  21
TORSDOF 12
ENDMDL
MODEL 4
REMARK VINA RESULT: -8.501090864      3.339      6.610
REMARK  12 active torsions:
REMARK  status: ('A' for Active; 'I' for Inactive)
REMARK    1  A    between atoms: C2_2  and  C3_3 
REMARK    2  A    between atoms: C3_3  and  N1_4 
REMARK       I    between atoms: N1_4  and  C4_6 
REMARK    3  A    between atoms: C4_6  and  C5_8 
REMARK    4  A    between atoms: C5_8  and  C6_9 
REMARK    5  A    between atoms: C5_8  and  N2_31 
REMARK    6  A    between atoms: C6_9  and  S1_10 
REMARK    7  A    between atoms: S1_10  and  S2_11 
REMARK    8  A    between atoms: S2_11  and  C7_12 
REMARK    9  A    between atoms: C7_12  and  C8_13 
REMARK       I    between atoms: N2_31  and  C23_33 
REMARK   10  A    between atoms: C23_33  and  C24_35 
REMARK   11  A    between atoms: C24_35  and  C25_36 
REMARK   12  A    between atoms: C25_36  and  C26_37 
ROOT
HETATM    1  S2  UNL     1      17.874  33.932  14.342  1.00  0.00    -0.097 SA
ENDROOT
BRANCH   1   2
HETATM    2  S1  UNL     1      17.454  31.874  14.645  1.00  0.00    -0.095 SA
BRANCH   2   3
HETATM    3  C6  UNL     1      18.167  30.934  13.316  1.00  0.00     0.120 C 
BRANCH   3   4
HETATM    4  C5  UNL     1      19.566  30.389  13.600  1.00  0.00     0.186 C 
BRANCH   4   5
HETATM    5  C4  UNL     1      20.469  31.547  13.259  1.00  0.00     0.241 C 
HETATM    6  N1  UNL     1      21.412  31.900  14.251  1.00  0.00    -0.359 N 
ATOM      7  H1  UNL     1      21.443  31.372  15.123  1.00  0.00     0.162 HD
HETATM    8  O1  UNL     1      20.412  32.169  12.192  1.00  0.00    -0.271 OA
BRANCH   6   9
HETATM    9  C3  UNL     1      22.328  32.989  14.050  1.00  0.00     0.122 C 
BRANCH   9  10
HETATM   10  C2  UNL     1      23.442  32.934  15.060  1.00  0.00     0.015 C 
HETATM   11  C1  UNL     1      22.825  32.587  16.416  1.00  0.00     0.006 C 
ENDBRANCH   9  10
ENDBRANCH   6   9
ENDBRANCH   4   5
BRANCH   4  12
HETATM   12  N2  UNL     1      19.888  29.308  12.731  1.00  0.00    -0.347 N 
HETATM   13  C23 UNL     1      20.945  28.448  12.508  1.00  0.00     0.218 C 
HETATM   14  O5  UNL     1      22.047  28.369  13.111  1.00  0.00    -0.274 OA
ATOM     15  H2  UNL     1      19.119  29.113  12.090  1.00  0.00     0.163 HD
BRANCH  13  16
HETATM   16  C24 UNL     1      20.783  27.438  11.375  1.00  0.00     0.113 C 
BRANCH  16  17
HETATM   17  C25 UNL     1      19.448  27.523  10.728  1.00  0.00     0.122 C 
BRANCH  17  18
HETATM   18  C26 UNL     1      18.697  26.250  10.763  1.00  0.00     0.172 C 
HETATM   19  O6  UNL     1      18.173  25.750  11.780  1.00  0.00    -0.648 OA
HETATM   20  O7  UNL     1      18.537  25.515   9.570  1.00  0.00    -0.648 OA
ENDBRANCH  17  18
ENDBRANCH  16  17
ENDBRANCH  13  16
ENDBRANCH   4  12
ENDBRANCH   3   4
ENDBRANCH   2   3
ENDBRANCH   1   2
BRANCH   1  21
HETATM   21  C7  UNL     1      17.252  34.965  15.637  1.00  0.00     0.101 C 
BRANCH  21  22
HETATM   22  C8  UNL     1      17.572  34.559  17.051  1.00  0.00     0.102 C 
HETATM   23  C9  UNL     1      19.035  34.251  17.069  1.00  0.00     0.135 C 
HETATM   24  O2  UNL     1      19.293  33.095  17.368  1.00  0.00    -0.297 OA
HETATM   25  C10 UNL     1      20.353  34.964  16.819  1.00  0.00     0.086 C 
HETATM   26  C11 UNL     1      20.884  35.515  18.058  1.00  0.00     0.035 C 
HETATM   27  C12 UNL     1      21.623  36.818  18.082  1.00  0.00    -0.003 C 
HETATM   28  C15 UNL     1      19.818  35.977  19.068  1.00  0.00     0.104 C 
HETATM   29  C13 UNL     1      22.111  36.687  19.548  1.00  0.00     0.009 C 
HETATM   30  C21 UNL     1      20.597  37.957  18.203  1.00  0.00    -0.007 C 
HETATM   31  C14 UNL     1      20.751  36.417  20.195  1.00  0.00     0.042 C 
HETATM   32  C20 UNL     1      19.335  37.133  18.225  1.00  0.00     0.028 C 
HETATM   33  C22 UNL     1      20.724  38.823  16.989  1.00  0.00     0.011 C 
HETATM   34  C19 UNL     1      18.060  37.715  18.586  1.00  0.00     0.011 C 
HETATM   35  C18 UNL     1      16.994  36.928  17.780  1.00  0.00     0.042 C 
HETATM   36  C16 UNL     1      17.077  35.444  18.114  1.00  0.00     0.104 C 
HETATM   37  O4  UNL     1      17.708  35.369  19.326  1.00  0.00    -0.228 OA
HETATM   38  C17 UNL     1      15.625  35.030  18.435  1.00  0.00     0.050 C 
HETATM   39  O3  UNL     1      18.919  35.058  19.424  1.00  0.00    -0.228 OA
ENDBRANCH  21  22
ENDBRANCH   1  21
TORSDOF 12
ENDMDL
MODEL 5
REMARK VINA RESULT: -8.493123605      3.313      6.363
REMARK  12 active torsions:
REMARK  status: ('A' for Active; 'I' for Inactive)
REMARK    1  A    between atoms: C2_2  and  C3_3 
REMARK    2  A    between atoms: C3_3  and  N1_4 
REMARK       I    between atoms: N1_4  and  C4_6 
REMARK    3  A    between atoms: C4_6  and  C5_8 
REMARK    4  A    between atoms: C5_8  and  C6_9 
REMARK    5  A    between atoms: C5_8  and  N2_31 
REMARK    6  A    between atoms: C6_9  and  S1_10 
REMARK    7  A    between atoms: S1_10  and  S2_11 
REMARK    8  A    between atoms: S2_11  and  C7_12 
REMARK    9  A    between atoms: C7_12  and  C8_13 
REMARK       I    between atoms: N2_31  and  C23_33 
REMARK   10  A    between atoms: C23_33  and  C24_35 
REMARK   11  A    between atoms: C24_35  and  C25_36 
REMARK   12  A    between atoms: C25_36  and  C26_37 
ROOT
HETATM    1  S2  UNL     1      18.138  33.719  14.355  1.00  0.00    -0.097 SA
ENDROOT
BRANCH   1   2
HETATM    2  S1  UNL     1      17.517  31.693  14.471  1.00  0.00    -0.095 SA
BRANCH   2   3
HETATM    3  C6  UNL     1      18.596  30.697  13.471  1.00  0.00     0.120 C 
BRANCH   3   4
HETATM    4  C5  UNL     1      19.293  29.562  14.221  1.00  0.00     0.186 C 
BRANCH   4   5
HETATM    5  C4  UNL     1      20.182  30.285  15.200  1.00  0.00     0.241 C 
HETATM    6  N1  UNL     1      21.096  31.203  14.633  1.00  0.00    -0.359 N 
ATOM      7  H1  UNL     1      21.112  31.336  13.622  1.00  0.00     0.162 HD
HETATM    8  O1  UNL     1      20.142  30.108  16.423  1.00  0.00    -0.271 OA
BRANCH   6   9
HETATM    9  C3  UNL     1      22.003  31.954  15.458  1.00  0.00     0.122 C 
BRANCH   9  10
HETATM   10  C2  UNL     1      22.734  32.982  14.639  1.00  0.00     0.015 C 
HETATM   11  C1  UNL     1      23.968  33.418  15.433  1.00  0.00     0.006 C 
ENDBRANCH   9  10
ENDBRANCH   6   9
ENDBRANCH   4   5
BRANCH   4  12
HETATM   12  N2  UNL     1      20.124  28.799  13.352  1.00  0.00    -0.347 N 
HETATM   13  C23 UNL     1      21.070  29.027  12.372  1.00  0.00     0.218 C 
HETATM   14  O5  UNL     1      21.525  30.120  11.944  1.00  0.00    -0.274 OA
ATOM     15  H2  UNL     1      19.979  27.800  13.492  1.00  0.00     0.163 HD
BRANCH  13  16
HETATM   16  C24 UNL     1      21.668  27.797  11.693  1.00  0.00     0.113 C 
BRANCH  16  17
HETATM   17  C25 UNL     1      23.153  27.839  11.653  1.00  0.00     0.122 C 
BRANCH  17  18
HETATM   18  C26 UNL     1      23.774  26.501  11.544  1.00  0.00     0.172 C 
HETATM   19  O6  UNL     1      24.905  26.195  11.974  1.00  0.00    -0.648 OA
HETATM   20  O7  UNL     1      23.059  25.463  10.911  1.00  0.00    -0.648 OA
ENDBRANCH  17  18
ENDBRANCH  16  17
ENDBRANCH  13  16
ENDBRANCH   4  12
ENDBRANCH   3   4
ENDBRANCH   2   3
ENDBRANCH   1   2
BRANCH   1  21
HETATM   21  C7  UNL     1      17.345  34.757  15.548  1.00  0.00     0.101 C 
BRANCH  21  22
HETATM   22  C8  UNL     1      17.579  34.435  17.000  1.00  0.00     0.102 C 
HETATM   23  C9  UNL     1      19.029  34.089  17.116  1.00  0.00     0.135 C 
HETATM   24  O2  UNL     1      19.236  32.949  17.501  1.00  0.00    -0.297 OA
HETATM   25  C10 UNL     1      20.379  34.749  16.893  1.00  0.00     0.086 C 
HETATM   26  C11 UNL     1      20.862  35.365  18.121  1.00  0.00     0.035 C 
HETATM   27  C12 UNL     1      21.638  36.646  18.101  1.00  0.00    -0.003 C 
HETATM   28  C15 UNL     1      19.760  35.920  19.041  1.00  0.00     0.104 C 
HETATM   29  C13 UNL     1      22.045  36.598  19.598  1.00  0.00     0.009 C 
HETATM   30  C21 UNL     1      20.642  37.818  18.096  1.00  0.00    -0.007 C 
HETATM   31  C14 UNL     1      20.647  36.406  20.187  1.00  0.00     0.042 C 
HETATM   32  C20 UNL     1      19.356  37.031  18.102  1.00  0.00     0.028 C 
HETATM   33  C22 UNL     1      20.858  38.600  16.838  1.00  0.00     0.011 C 
HETATM   34  C19 UNL     1      18.082  37.669  18.357  1.00  0.00     0.011 C 
HETATM   35  C18 UNL     1      17.036  36.860  17.546  1.00  0.00     0.042 C 
HETATM   36  C16 UNL     1      17.057  35.400  17.977  1.00  0.00     0.104 C 
HETATM   37  O4  UNL     1      17.622  35.387  19.223  1.00  0.00    -0.228 OA
HETATM   38  C17 UNL     1      15.578  35.046  18.245  1.00  0.00     0.050 C 
HETATM   39  O3  UNL     1      18.816  35.050  19.405  1.00  0.00    -0.228 OA
ENDBRANCH  21  22
ENDBRANCH   1  21
TORSDOF 12
ENDMDL
