MODEL 1
REMARK VINA RESULT: -7.376603076      0.000      0.000
REMARK  21 active torsions:
REMARK  status: ('A' for Active; 'I' for Inactive)
REMARK    1  A    between atoms: O1_2  and  C2_3 
REMARK    2  A    between atoms: C2_3  and  C3_4 
REMARK    3  A    between atoms: C3_4  and  O2_5 
REMARK    4  A    between atoms: O2_5  and  C4_6 
REMARK    5  A    between atoms: C4_6  and  C5_7 
REMARK    6  A    between atoms: C5_7  and  N1_8 
REMARK    7  A    between atoms: N1_8  and  C6_9 
REMARK    8  A    between atoms: C6_9  and  C7_10 
REMARK    9  A    between atoms: C7_10  and  O3_11 
REMARK   10  A    between atoms: C18_24  and  C19_25 
REMARK   11  A    between atoms: C19_25  and  O5_26 
REMARK   12  A    between atoms: C19_25  and  N2_28 
REMARK   13  A    between atoms: N2_28  and  C20_30 
REMARK   14  A    between atoms: C20_30  and  C21_31 
REMARK   15  A    between atoms: C21_31  and  C22_32 
REMARK   16  A    between atoms: C22_32  and  C23_33 
REMARK   17  A    between atoms: C23_33  and  C24_34 
REMARK   18  A    between atoms: C24_34  and  C25_35 
REMARK   19  A    between atoms: C25_35  and  C26_36 
REMARK   20  A    between atoms: C26_36  and  O6_37 
REMARK   21  A    between atoms: O6_37  and  C27_38 
ROOT
HETATM    1  N1  UNL     1      18.539  32.710  15.683  1.00  0.00    -0.025 N 
HETATM    2  C8  UNL     1      17.644  31.590  15.548  1.00  0.00     0.244 C 
HETATM    3  C9  UNL     1      17.989  30.427  14.735  1.00  0.00     0.028 C 
HETATM    4  C10 UNL     1      17.301  30.187  13.435  1.00  0.00     0.002 C 
HETATM    5  C11 UNL     1      17.973  28.995  12.757  1.00  0.00     0.000 C 
HETATM    6  C12 UNL     1      19.110  29.416  11.847  1.00  0.00     0.000 C 
HETATM    7  C13 UNL     1      20.472  29.058  12.370  1.00  0.00     0.000 C 
HETATM    8  C14 UNL     1      21.473  30.184  12.217  1.00  0.00     0.000 C 
HETATM    9  C15 UNL     1      22.007  30.521  13.586  1.00  0.00     0.008 C 
HETATM   10  C16 UNL     1      21.899  31.993  13.911  1.00  0.00     0.085 C 
HETATM   11  C17 UNL     1      20.530  32.418  14.252  1.00  0.00     0.188 C 
HETATM   12  O4  UNL     1      19.879  32.714  13.265  1.00  0.00    -0.291 OA
HETATM   13  C18 UNL     1      19.925  32.500  15.626  1.00  0.00     0.232 C 
ENDROOT
BRANCH  13  14
HETATM   14  C19 UNL     1      20.569  31.588  16.554  1.00  0.00     0.175 C 
BRANCH  14  15
HETATM   15  O5  UNL     1      20.220  30.323  16.563  1.00  0.00    -0.345 OA
ATOM     16  H5  UNL     1      19.605  30.012  17.217  1.00  0.00     0.219 HD
ENDBRANCH  14  15
BRANCH  14  17
HETATM   17  N2  UNL     1      21.568  31.782  17.532  1.00  0.00    -0.369 N 
ATOM     18  H2  UNL     1      21.541  31.209  18.375  1.00  0.00     0.161 HD
BRANCH  17  19
HETATM   19  C20 UNL     1      22.639  32.766  17.394  1.00  0.00     0.121 C 
BRANCH  19  20
HETATM   20  C21 UNL     1      22.169  34.080  17.920  1.00  0.00     0.020 C 
BRANCH  20  21
HETATM   21  C22 UNL     1      22.191  35.214  16.953  1.00  0.00     0.002 C 
BRANCH  21  22
HETATM   22  C23 UNL     1      22.248  36.526  17.690  1.00  0.00     0.000 C 
BRANCH  22  23
HETATM   23  C24 UNL     1      21.415  37.615  17.117  1.00  0.00     0.002 C 
BRANCH  23  24
HETATM   24  C25 UNL     1      20.508  38.324  18.068  1.00  0.00     0.027 C 
BRANCH  24  25
HETATM   25  C26 UNL     1      19.850  39.473  17.323  1.00  0.00     0.178 C 
BRANCH  25  26
HETATM   26  O6  UNL     1      18.584  39.817  17.874  1.00  0.00    -0.322 OA
BRANCH  26  27
HETATM   27  C27 UNL     1      17.457  39.803  17.048  1.00  0.00     0.254 C 
HETATM   28  C28 UNL     1      16.785  41.070  16.672  1.00  0.00     0.126 C 
HETATM   29  O7  UNL     1      17.015  38.683  16.625  1.00  0.00    -0.266 OA
ENDBRANCH  26  27
ENDBRANCH  25  26
ENDBRANCH  24  25
ENDBRANCH  23  24
ENDBRANCH  22  23
ENDBRANCH  21  22
ENDBRANCH  20  21
ENDBRANCH  19  20
ENDBRANCH  17  19
ENDBRANCH  14  17
ENDBRANCH  13  14
BRANCH   1  30
HETATM   30  C5  UNL     1      18.181  33.208  17.025  1.00  0.00     0.270 C 
BRANCH  30  31
HETATM   31  C4  UNL     1      18.656  34.494  17.484  1.00  0.00     0.196 C 
BRANCH  31  32
HETATM   32  O2  UNL     1      18.009  34.701  18.745  1.00  0.00    -0.387 OA
BRANCH  32  33
HETATM   33  C3  UNL     1      17.614  36.017  18.874  1.00  0.00     0.193 C 
BRANCH  33  34
HETATM   34  C2  UNL     1      16.104  36.025  18.913  1.00  0.00     0.193 C 
BRANCH  34  35
HETATM   35  O1  UNL     1      15.515  34.791  18.931  1.00  0.00    -0.394 OA
HETATM   36  C1  UNL     1      14.674  34.539  17.884  1.00  0.00     0.201 C 
ENDBRANCH  34  35
ENDBRANCH  33  34
ENDBRANCH  32  33
ENDBRANCH  31  32
ENDBRANCH  30  31
ENDBRANCH   1  30
BRANCH   1  37
HETATM   37  C6  UNL     1      18.011  33.677  14.735  1.00  0.00     0.270 C 
BRANCH  37  38
HETATM   38  C7  UNL     1      16.638  34.115  14.766  1.00  0.00     0.192 C 
BRANCH  38  39
HETATM   39  O3  UNL     1      16.674  35.542  14.756  1.00  0.00    -0.399 OA
ATOM     40  H3  UNL     1      17.407  35.785  14.202  1.00  0.00     0.209 HD
ENDBRANCH  38  39
ENDBRANCH  37  38
ENDBRANCH   1  37
TORSDOF 21
ENDMDL
MODEL 2
REMARK VINA RESULT: -7.348924881      0.865      1.058
REMARK  21 active torsions:
REMARK  status: ('A' for Active; 'I' for Inactive)
REMARK    1  A    between atoms: O1_2  and  C2_3 
REMARK    2  A    between atoms: C2_3  and  C3_4 
REMARK    3  A    between atoms: C3_4  and  O2_5 
REMARK    4  A    between atoms: O2_5  and  C4_6 
REMARK    5  A    between atoms: C4_6  and  C5_7 
REMARK    6  A    between atoms: C5_7  and  N1_8 
REMARK    7  A    between atoms: N1_8  and  C6_9 
REMARK    8  A    between atoms: C6_9  and  C7_10 
REMARK    9  A    between atoms: C7_10  and  O3_11 
REMARK   10  A    between atoms: C18_24  and  C19_25 
REMARK   11  A    between atoms: C19_25  and  O5_26 
REMARK   12  A    between atoms: C19_25  and  N2_28 
REMARK   13  A    between atoms: N2_28  and  C20_30 
REMARK   14  A    between atoms: C20_30  and  C21_31 
REMARK   15  A    between atoms: C21_31  and  C22_32 
REMARK   16  A    between atoms: C22_32  and  C23_33 
REMARK   17  A    between atoms: C23_33  and  C24_34 
REMARK   18  A    between atoms: C24_34  and  C25_35 
REMARK   19  A    between atoms: C25_35  and  C26_36 
REMARK   20  A    between atoms: C26_36  and  O6_37 
REMARK   21  A    between atoms: O6_37  and  C27_38 
ROOT
HETATM    1  N1  UNL     1      18.511  32.726  15.635  1.00  0.00    -0.025 N 
HETATM    2  C8  UNL     1      17.617  31.606  15.492  1.00  0.00     0.244 C 
HETATM    3  C9  UNL     1      17.967  30.446  14.678  1.00  0.00     0.028 C 
HETATM    4  C10 UNL     1      17.284  30.210  13.373  1.00  0.00     0.002 C 
HETATM    5  C11 UNL     1      17.960  29.019  12.695  1.00  0.00     0.000 C 
HETATM    6  C12 UNL     1      19.101  29.443  11.792  1.00  0.00     0.000 C 
HETATM    7  C13 UNL     1      20.461  29.084  12.320  1.00  0.00     0.000 C 
HETATM    8  C14 UNL     1      21.463  30.210  12.176  1.00  0.00     0.000 C 
HETATM    9  C15 UNL     1      21.990  30.544  13.548  1.00  0.00     0.008 C 
HETATM   10  C16 UNL     1      21.880  32.015  13.876  1.00  0.00     0.085 C 
HETATM   11  C17 UNL     1      20.509  32.438  14.212  1.00  0.00     0.188 C 
HETATM   12  O4  UNL     1      19.863  32.737  13.223  1.00  0.00    -0.291 OA
HETATM   13  C18 UNL     1      19.898  32.517  15.583  1.00  0.00     0.232 C 
ENDROOT
BRANCH  13  14
HETATM   14  C19 UNL     1      20.537  31.602  16.512  1.00  0.00     0.175 C 
BRANCH  14  15
HETATM   15  O5  UNL     1      20.249  30.323  16.461  1.00  0.00    -0.345 OA
ATOM     16  H5  UNL     1      20.931  29.683  16.625  1.00  0.00     0.219 HD
ENDBRANCH  14  15
BRANCH  14  17
HETATM   17  N2  UNL     1      21.476  31.807  17.546  1.00  0.00    -0.369 N 
ATOM     18  H2  UNL     1      21.361  31.287  18.416  1.00  0.00     0.161 HD
BRANCH  17  19
HETATM   19  C20 UNL     1      22.604  32.728  17.429  1.00  0.00     0.121 C 
BRANCH  19  20
HETATM   20  C21 UNL     1      22.149  34.106  17.769  1.00  0.00     0.020 C 
BRANCH  20  21
HETATM   21  C22 UNL     1      22.261  35.117  16.678  1.00  0.00     0.002 C 
BRANCH  21  22
HETATM   22  C23 UNL     1      21.733  36.447  17.145  1.00  0.00     0.000 C 
BRANCH  22  23
HETATM   23  C24 UNL     1      22.726  37.326  17.815  1.00  0.00     0.002 C 
BRANCH  23  24
HETATM   24  C25 UNL     1      22.195  38.586  18.417  1.00  0.00     0.027 C 
BRANCH  24  25
HETATM   25  C26 UNL     1      20.688  38.604  18.217  1.00  0.00     0.178 C 
BRANCH  25  26
HETATM   26  O6  UNL     1      20.223  39.863  17.745  1.00  0.00    -0.322 OA
BRANCH  26  27
HETATM   27  C27 UNL     1      19.855  39.993  16.404  1.00  0.00     0.254 C 
HETATM   28  C28 UNL     1      20.889  40.105  15.348  1.00  0.00     0.126 C 
HETATM   29  O7  UNL     1      18.614  40.014  16.103  1.00  0.00    -0.266 OA
ENDBRANCH  26  27
ENDBRANCH  25  26
ENDBRANCH  24  25
ENDBRANCH  23  24
ENDBRANCH  22  23
ENDBRANCH  21  22
ENDBRANCH  20  21
ENDBRANCH  19  20
ENDBRANCH  17  19
ENDBRANCH  14  17
ENDBRANCH  13  14
BRANCH   1  30
HETATM   30  C5  UNL     1      18.147  33.220  16.976  1.00  0.00     0.270 C 
BRANCH  30  31
HETATM   31  C4  UNL     1      18.631  34.499  17.446  1.00  0.00     0.196 C 
BRANCH  31  32
HETATM   32  O2  UNL     1      17.991  34.696  18.713  1.00  0.00    -0.387 OA
BRANCH  32  33
HETATM   33  C3  UNL     1      17.662  36.024  18.886  1.00  0.00     0.193 C 
BRANCH  33  34
HETATM   34  C2  UNL     1      16.155  36.112  18.890  1.00  0.00     0.193 C 
BRANCH  34  35
HETATM   35  O1  UNL     1      15.502  34.911  18.957  1.00  0.00    -0.394 OA
HETATM   36  C1  UNL     1      14.635  34.669  17.929  1.00  0.00     0.201 C 
ENDBRANCH  34  35
ENDBRANCH  33  34
ENDBRANCH  32  33
ENDBRANCH  31  32
ENDBRANCH  30  31
ENDBRANCH   1  30
BRANCH   1  37
HETATM   37  C6  UNL     1      17.988  33.696  14.687  1.00  0.00     0.270 C 
BRANCH  37  38
HETATM   38  C7  UNL     1      16.605  34.106  14.690  1.00  0.00     0.192 C 
BRANCH  38  39
HETATM   39  O3  UNL     1      16.613  35.532  14.619  1.00  0.00    -0.399 OA
ATOM     40  H3  UNL     1      15.703  35.801  14.577  1.00  0.00     0.209 HD
ENDBRANCH  38  39
ENDBRANCH  37  38
ENDBRANCH   1  37
TORSDOF 21
ENDMDL
MODEL 3
REMARK VINA RESULT: -7.322381760      1.033      1.313
REMARK  21 active torsions:
REMARK  status: ('A' for Active; 'I' for Inactive)
REMARK    1  A    between atoms: O1_2  and  C2_3 
REMARK    2  A    between atoms: C2_3  and  C3_4 
REMARK    3  A    between atoms: C3_4  and  O2_5 
REMARK    4  A    between atoms: O2_5  and  C4_6 
REMARK    5  A    between atoms: C4_6  and  C5_7 
REMARK    6  A    between atoms: C5_7  and  N1_8 
REMARK    7  A    between atoms: N1_8  and  C6_9 
REMARK    8  A    between atoms: C6_9  and  C7_10 
REMARK    9  A    between atoms: C7_10  and  O3_11 
REMARK   10  A    between atoms: C18_24  and  C19_25 
REMARK   11  A    between atoms: C19_25  and  O5_26 
REMARK   12  A    between atoms: C19_25  and  N2_28 
REMARK   13  A    between atoms: N2_28  and  C20_30 
REMARK   14  A    between atoms: C20_30  and  C21_31 
REMARK   15  A    between atoms: C21_31  and  C22_32 
REMARK   16  A    between atoms: C22_32  and  C23_33 
REMARK   17  A    between atoms: C23_33  and  C24_34 
REMARK   18  A    between atoms: C24_34  and  C25_35 
REMARK   19  A    between atoms: C25_35  and  C26_36 
REMARK   20  A    between atoms: C26_36  and  O6_37 
REMARK   21  A    between atoms: O6_37  and  C27_38 
ROOT
HETATM    1  N1  UNL     1      18.509  32.583  15.645  1.00  0.00    -0.025 N 
HETATM    2  C8  UNL     1      17.655  31.430  15.523  1.00  0.00     0.244 C 
HETATM    3  C9  UNL     1      18.037  30.275  14.716  1.00  0.00     0.028 C 
HETATM    4  C10 UNL     1      17.349  30.001  13.422  1.00  0.00     0.002 C 
HETATM    5  C11 UNL     1      18.061  28.829  12.748  1.00  0.00     0.000 C 
HETATM    6  C12 UNL     1      19.175  29.285  11.828  1.00  0.00     0.000 C 
HETATM    7  C13 UNL     1      20.553  28.981  12.343  1.00  0.00     0.000 C 
HETATM    8  C14 UNL     1      21.511  30.142  12.176  1.00  0.00     0.000 C 
HETATM    9  C15 UNL     1      22.041  30.508  13.539  1.00  0.00     0.008 C 
HETATM   10  C16 UNL     1      21.881  31.977  13.855  1.00  0.00     0.085 C 
HETATM   11  C17 UNL     1      20.499  32.354  14.202  1.00  0.00     0.188 C 
HETATM   12  O4  UNL     1      19.832  32.619  13.217  1.00  0.00    -0.291 OA
HETATM   13  C18 UNL     1      19.901  32.424  15.579  1.00  0.00     0.232 C 
ENDROOT
BRANCH  13  14
HETATM   14  C19 UNL     1      20.584  31.542  16.510  1.00  0.00     0.175 C 
BRANCH  14  15
HETATM   15  O5  UNL     1      20.337  30.254  16.479  1.00  0.00    -0.345 OA
ATOM     16  H5  UNL     1      20.084  29.845  15.659  1.00  0.00     0.219 HD
ENDBRANCH  14  15
BRANCH  14  17
HETATM   17  N2  UNL     1      21.531  31.791  17.526  1.00  0.00    -0.369 N 
ATOM     18  H2  UNL     1      21.416  31.318  18.422  1.00  0.00     0.161 HD
BRANCH  17  19
HETATM   19  C20 UNL     1      22.667  32.693  17.354  1.00  0.00     0.121 C 
BRANCH  19  20
HETATM   20  C21 UNL     1      22.234  34.089  17.647  1.00  0.00     0.020 C 
BRANCH  20  21
HETATM   21  C22 UNL     1      22.112  34.993  16.468  1.00  0.00     0.002 C 
BRANCH  21  22
HETATM   22  C23 UNL     1      21.826  36.401  16.919  1.00  0.00     0.000 C 
BRANCH  22  23
HETATM   23  C24 UNL     1      22.333  36.751  18.270  1.00  0.00     0.002 C 
BRANCH  23  24
HETATM   24  C25 UNL     1      23.148  37.999  18.368  1.00  0.00     0.027 C 
BRANCH  24  25
HETATM   25  C26 UNL     1      22.208  39.152  18.679  1.00  0.00     0.178 C 
BRANCH  25  26
HETATM   26  O6  UNL     1      21.028  38.720  19.347  1.00  0.00    -0.322 OA
BRANCH  26  27
HETATM   27  C27 UNL     1      19.790  39.211  18.926  1.00  0.00     0.254 C 
HETATM   28  C28 UNL     1      19.448  39.252  17.484  1.00  0.00     0.126 C 
HETATM   29  O7  UNL     1      18.959  39.624  19.803  1.00  0.00    -0.266 OA
ENDBRANCH  26  27
ENDBRANCH  25  26
ENDBRANCH  24  25
ENDBRANCH  23  24
ENDBRANCH  22  23
ENDBRANCH  21  22
ENDBRANCH  20  21
ENDBRANCH  19  20
ENDBRANCH  17  19
ENDBRANCH  14  17
ENDBRANCH  13  14
BRANCH   1  30
HETATM   30  C5  UNL     1      18.141  33.077  16.986  1.00  0.00     0.270 C 
BRANCH  30  31
HETATM   31  C4  UNL     1      18.620  34.358  17.455  1.00  0.00     0.196 C 
BRANCH  31  32
HETATM   32  O2  UNL     1      17.863  34.626  18.641  1.00  0.00    -0.387 OA
BRANCH  32  33
HETATM   33  C3  UNL     1      17.597  35.975  18.749  1.00  0.00     0.193 C 
BRANCH  33  34
HETATM   34  C2  UNL     1      16.113  36.118  18.989  1.00  0.00     0.193 C 
BRANCH  34  35
HETATM   35  O1  UNL     1      15.403  34.948  18.961  1.00  0.00    -0.394 OA
HETATM   36  C1  UNL     1      14.566  34.809  17.891  1.00  0.00     0.201 C 
ENDBRANCH  34  35
ENDBRANCH  33  34
ENDBRANCH  32  33
ENDBRANCH  31  32
ENDBRANCH  30  31
ENDBRANCH   1  30
BRANCH   1  37
HETATM   37  C6  UNL     1      17.939  33.523  14.694  1.00  0.00     0.270 C 
BRANCH  37  38
HETATM   38  C7  UNL     1      16.582  33.999  14.800  1.00  0.00     0.192 C 
BRANCH  38  39
HETATM   39  O3  UNL     1      16.636  35.409  14.580  1.00  0.00    -0.399 OA
ATOM     40  H3  UNL     1      16.475  35.815  15.424  1.00  0.00     0.209 HD
ENDBRANCH  38  39
ENDBRANCH  37  38
ENDBRANCH   1  37
TORSDOF 21
ENDMDL
MODEL 4
REMARK VINA RESULT: -7.145903937      1.294      1.936
REMARK  21 active torsions:
REMARK  status: ('A' for Active; 'I' for Inactive)
REMARK    1  A    between atoms: O1_2  and  C2_3 
REMARK    2  A    between atoms: C2_3  and  C3_4 
REMARK    3  A    between atoms: C3_4  and  O2_5 
REMARK    4  A    between atoms: O2_5  and  C4_6 
REMARK    5  A    between atoms: C4_6  and  C5_7 
REMARK    6  A    between atoms: C5_7  and  N1_8 
REMARK    7  A    between atoms: N1_8  and  C6_9 
REMARK    8  A    between atoms: C6_9  and  C7_10 
REMARK    9  A    between atoms: C7_10  and  O3_11 
REMARK   10  A    between atoms: C18_24  and  C19_25 
REMARK   11  A    between atoms: C19_25  and  O5_26 
REMARK   12  A    between atoms: C19_25  and  N2_28 
REMARK   13  A    between atoms: N2_28  and  C20_30 
REMARK   14  A    between atoms: C20_30  and  C21_31 
REMARK   15  A    between atoms: C21_31  and  C22_32 
REMARK   16  A    between atoms: C22_32  and  C23_33 
REMARK   17  A    between atoms: C23_33  and  C24_34 
REMARK   18  A    between atoms: C24_34  and  C25_35 
REMARK   19  A    between atoms: C25_35  and  C26_36 
REMARK   20  A    between atoms: C26_36  and  O6_37 
REMARK   21  A    between atoms: O6_37  and  C27_38 
ROOT
HETATM    1  N1  UNL     1      18.514  32.667  15.654  1.00  0.00    -0.025 N 
HETATM    2  C8  UNL     1      17.649  31.523  15.526  1.00  0.00     0.244 C 
HETATM    3  C9  UNL     1      18.025  30.366  14.719  1.00  0.00     0.028 C 
HETATM    4  C10 UNL     1      17.342  30.101  13.421  1.00  0.00     0.002 C 
HETATM    5  C11 UNL     1      18.045  28.923  12.749  1.00  0.00     0.000 C 
HETATM    6  C12 UNL     1      19.170  29.369  11.836  1.00  0.00     0.000 C 
HETATM    7  C13 UNL     1      20.542  29.050  12.359  1.00  0.00     0.000 C 
HETATM    8  C14 UNL     1      21.512  30.201  12.200  1.00  0.00     0.000 C 
HETATM    9  C15 UNL     1      22.038  30.560  13.566  1.00  0.00     0.008 C 
HETATM   10  C16 UNL     1      21.891  32.030  13.883  1.00  0.00     0.085 C 
HETATM   11  C17 UNL     1      20.511  32.420  14.223  1.00  0.00     0.188 C 
HETATM   12  O4  UNL     1      19.853  32.693  13.235  1.00  0.00    -0.291 OA
HETATM   13  C18 UNL     1      19.905  32.494  15.597  1.00  0.00     0.232 C 
ENDROOT
BRANCH  13  14
HETATM   14  C19 UNL     1      20.574  31.604  16.530  1.00  0.00     0.175 C 
BRANCH  14  15
HETATM   15  O5  UNL     1      20.285  30.324  16.521  1.00  0.00    -0.345 OA
ATOM     16  H5  UNL     1      20.344  29.825  17.327  1.00  0.00     0.219 HD
ENDBRANCH  14  15
BRANCH  14  17
HETATM   17  N2  UNL     1      21.543  31.836  17.529  1.00  0.00    -0.369 N 
ATOM     18  H2  UNL     1      21.517  31.265  18.373  1.00  0.00     0.161 HD
BRANCH  17  19
HETATM   19  C20 UNL     1      22.582  32.856  17.411  1.00  0.00     0.121 C 
BRANCH  19  20
HETATM   20  C21 UNL     1      22.041  34.164  17.878  1.00  0.00     0.020 C 
BRANCH  20  21
HETATM   21  C22 UNL     1      22.143  35.294  16.910  1.00  0.00     0.002 C 
BRANCH  21  22
HETATM   22  C23 UNL     1      22.430  36.580  17.640  1.00  0.00     0.000 C 
BRANCH  22  23
HETATM   23  C24 UNL     1      21.736  37.781  17.109  1.00  0.00     0.002 C 
BRANCH  23  24
HETATM   24  C25 UNL     1      20.371  38.050  17.652  1.00  0.00     0.027 C 
BRANCH  24  25
HETATM   25  C26 UNL     1      20.445  39.298  18.516  1.00  0.00     0.178 C 
BRANCH  25  26
HETATM   26  O6  UNL     1      21.396  39.170  19.566  1.00  0.00    -0.322 OA
BRANCH  26  27
HETATM   27  C27 UNL     1      22.205  40.262  19.887  1.00  0.00     0.254 C 
HETATM   28  C28 UNL     1      22.877  41.040  18.819  1.00  0.00     0.126 C 
HETATM   29  O7  UNL     1      22.358  40.579  21.114  1.00  0.00    -0.266 OA
ENDBRANCH  26  27
ENDBRANCH  25  26
ENDBRANCH  24  25
ENDBRANCH  23  24
ENDBRANCH  22  23
ENDBRANCH  21  22
ENDBRANCH  20  21
ENDBRANCH  19  20
ENDBRANCH  17  19
ENDBRANCH  14  17
ENDBRANCH  13  14
BRANCH   1  30
HETATM   30  C5  UNL     1      18.144  33.163  16.994  1.00  0.00     0.270 C 
BRANCH  30  31
HETATM   31  C4  UNL     1      18.582  34.465  17.444  1.00  0.00     0.196 C 
BRANCH  31  32
HETATM   32  O2  UNL     1      17.861  34.701  18.659  1.00  0.00    -0.387 OA
BRANCH  32  33
HETATM   33  C3  UNL     1      17.541  36.037  18.779  1.00  0.00     0.193 C 
BRANCH  33  34
HETATM   34  C2  UNL     1      16.053  36.118  19.025  1.00  0.00     0.193 C 
BRANCH  34  35
HETATM   35  O1  UNL     1      15.390  34.922  18.978  1.00  0.00    -0.394 OA
HETATM   36  C1  UNL     1      14.614  34.738  17.869  1.00  0.00     0.201 C 
ENDBRANCH  34  35
ENDBRANCH  33  34
ENDBRANCH  32  33
ENDBRANCH  31  32
ENDBRANCH  30  31
ENDBRANCH   1  30
BRANCH   1  37
HETATM   37  C6  UNL     1      17.961  33.615  14.702  1.00  0.00     0.270 C 
BRANCH  37  38
HETATM   38  C7  UNL     1      16.583  34.040  14.750  1.00  0.00     0.192 C 
BRANCH  38  39
HETATM   39  O3  UNL     1      16.592  35.448  14.515  1.00  0.00    -0.399 OA
ATOM     40  H3  UNL     1      17.485  35.737  14.667  1.00  0.00     0.209 HD
ENDBRANCH  38  39
ENDBRANCH  37  38
ENDBRANCH   1  37
TORSDOF 21
ENDMDL
MODEL 5
REMARK VINA RESULT: -7.105855057      2.256      3.177
REMARK  21 active torsions:
REMARK  status: ('A' for Active; 'I' for Inactive)
REMARK    1  A    between atoms: O1_2  and  C2_3 
REMARK    2  A    between atoms: C2_3  and  C3_4 
REMARK    3  A    between atoms: C3_4  and  O2_5 
REMARK    4  A    between atoms: O2_5  and  C4_6 
REMARK    5  A    between atoms: C4_6  and  C5_7 
REMARK    6  A    between atoms: C5_7  and  N1_8 
REMARK    7  A    between atoms: N1_8  and  C6_9 
REMARK    8  A    between atoms: C6_9  and  C7_10 
REMARK    9  A    between atoms: C7_10  and  O3_11 
REMARK   10  A    between atoms: C18_24  and  C19_25 
REMARK   11  A    between atoms: C19_25  and  O5_26 
REMARK   12  A    between atoms: C19_25  and  N2_28 
REMARK   13  A    between atoms: N2_28  and  C20_30 
REMARK   14  A    between atoms: C20_30  and  C21_31 
REMARK   15  A    between atoms: C21_31  and  C22_32 
REMARK   16  A    between atoms: C22_32  and  C23_33 
REMARK   17  A    between atoms: C23_33  and  C24_34 
REMARK   18  A    between atoms: C24_34  and  C25_35 
REMARK   19  A    between atoms: C25_35  and  C26_36 
REMARK   20  A    between atoms: C26_36  and  O6_37 
REMARK   21  A    between atoms: O6_37  and  C27_38 
ROOT
HETATM    1  N1  UNL     1      18.553  32.727  15.651  1.00  0.00    -0.025 N 
HETATM    2  C8  UNL     1      17.660  31.604  15.533  1.00  0.00     0.244 C 
HETATM    3  C9  UNL     1      18.001  30.434  14.728  1.00  0.00     0.028 C 
HETATM    4  C10 UNL     1      17.303  30.182  13.436  1.00  0.00     0.002 C 
HETATM    5  C11 UNL     1      17.973  28.985  12.763  1.00  0.00     0.000 C 
HETATM    6  C12 UNL     1      19.101  29.400  11.841  1.00  0.00     0.000 C 
HETATM    7  C13 UNL     1      20.468  29.050  12.355  1.00  0.00     0.000 C 
HETATM    8  C14 UNL     1      21.465  30.177  12.185  1.00  0.00     0.000 C 
HETATM    9  C15 UNL     1      22.009  30.528  13.546  1.00  0.00     0.008 C 
HETATM   10  C16 UNL     1      21.901  32.002  13.858  1.00  0.00     0.085 C 
HETATM   11  C17 UNL     1      20.533  32.426  14.207  1.00  0.00     0.188 C 
HETATM   12  O4  UNL     1      19.874  32.712  13.222  1.00  0.00    -0.291 OA
HETATM   13  C18 UNL     1      19.939  32.520  15.585  1.00  0.00     0.232 C 
ENDROOT
BRANCH  13  14
HETATM   14  C19 UNL     1      20.593  31.617  16.516  1.00  0.00     0.175 C 
BRANCH  14  15
HETATM   15  O5  UNL     1      20.265  30.346  16.522  1.00  0.00    -0.345 OA
ATOM     16  H5  UNL     1      19.457  30.073  16.940  1.00  0.00     0.219 HD
ENDBRANCH  14  15
BRANCH  14  17
HETATM   17  N2  UNL     1      21.582  31.827  17.500  1.00  0.00    -0.369 N 
ATOM     18  H2  UNL     1      21.577  31.232  18.328  1.00  0.00     0.161 HD
BRANCH  17  19
HETATM   19  C20 UNL     1      22.612  32.857  17.389  1.00  0.00     0.121 C 
BRANCH  19  20
HETATM   20  C21 UNL     1      22.090  34.136  17.950  1.00  0.00     0.020 C 
BRANCH  20  21
HETATM   21  C22 UNL     1      22.217  35.333  17.071  1.00  0.00     0.002 C 
BRANCH  21  22
HETATM   22  C23 UNL     1      21.913  36.586  17.850  1.00  0.00     0.000 C 
BRANCH  22  23
HETATM   23  C24 UNL     1      22.965  37.634  17.803  1.00  0.00     0.002 C 
BRANCH  23  24
HETATM   24  C25 UNL     1      22.980  38.606  18.936  1.00  0.00     0.027 C 
BRANCH  24  25
HETATM   25  C26 UNL     1      24.370  38.591  19.552  1.00  0.00     0.178 C 
BRANCH  25  26
HETATM   26  O6  UNL     1      24.415  37.841  20.760  1.00  0.00    -0.322 OA
BRANCH  26  27
HETATM   27  C27 UNL     1      24.740  38.491  21.953  1.00  0.00     0.254 C 
HETATM   28  C28 UNL     1      25.280  37.727  23.102  1.00  0.00     0.126 C 
HETATM   29  O7  UNL     1      24.564  39.753  22.036  1.00  0.00    -0.266 OA
ENDBRANCH  26  27
ENDBRANCH  25  26
ENDBRANCH  24  25
ENDBRANCH  23  24
ENDBRANCH  22  23
ENDBRANCH  21  22
ENDBRANCH  20  21
ENDBRANCH  19  20
ENDBRANCH  17  19
ENDBRANCH  14  17
ENDBRANCH  13  14
BRANCH   1  30
HETATM   30  C5  UNL     1      18.205  33.236  16.991  1.00  0.00     0.270 C 
BRANCH  30  31
HETATM   31  C4  UNL     1      18.620  34.557  17.408  1.00  0.00     0.196 C 
BRANCH  31  32
HETATM   32  O2  UNL     1      18.014  34.749  18.692  1.00  0.00    -0.387 OA
BRANCH  32  33
HETATM   33  C3  UNL     1      17.656  36.071  18.863  1.00  0.00     0.193 C 
BRANCH  33  34
HETATM   34  C2  UNL     1      16.148  36.118  18.923  1.00  0.00     0.193 C 
BRANCH  34  35
HETATM   35  O1  UNL     1      15.527  34.900  18.954  1.00  0.00    -0.394 OA
HETATM   36  C1  UNL     1      14.682  34.658  17.908  1.00  0.00     0.201 C 
ENDBRANCH  34  35
ENDBRANCH  33  34
ENDBRANCH  32  33
ENDBRANCH  31  32
ENDBRANCH  30  31
ENDBRANCH   1  30
BRANCH   1  37
HETATM   37  C6  UNL     1      18.016  33.684  14.699  1.00  0.00     0.270 C 
BRANCH  37  38
HETATM   38  C7  UNL     1      16.626  34.072  14.698  1.00  0.00     0.192 C 
BRANCH  38  39
HETATM   39  O3  UNL     1      16.610  35.496  14.602  1.00  0.00    -0.399 OA
ATOM     40  H3  UNL     1      15.946  35.795  15.213  1.00  0.00     0.209 HD
ENDBRANCH  38  39
ENDBRANCH  37  38
ENDBRANCH   1  37
TORSDOF 21
ENDMDL
