MODEL 1
REMARK VINA RESULT: -7.628592712      0.000      0.000
REMARK  20 active torsions:
REMARK  status: ('A' for Active; 'I' for Inactive)
REMARK    1  A    between atoms: C2_2  and  C3_3 
REMARK    2  A    between atoms: C3_3  and  C4_4 
REMARK    3  A    between atoms: C4_4  and  C5_5 
REMARK    4  A    between atoms: C5_5  and  C6_6 
REMARK    5  A    between atoms: C6_6  and  C7_7 
REMARK    6  A    between atoms: C7_7  and  C8_8 
REMARK    7  A    between atoms: C8_8  and  O2_10 
REMARK    8  A    between atoms: O2_10  and  C9_11 
REMARK    9  A    between atoms: N1_13  and  C11_14 
REMARK   10  A    between atoms: C11_14  and  C12_15 
REMARK   11  A    between atoms: C12_15  and  C13_16 
REMARK   12  A    between atoms: C13_16  and  C14_17 
REMARK   13  A    between atoms: C14_17  and  O3_18 
REMARK   14  A    between atoms: O3_18  and  C15_19 
REMARK   15  A    between atoms: C21_25  and  O4_26 
REMARK   16  A    between atoms: C22_28  and  O5_29 
REMARK   17  A    between atoms: C23_31  and  O6_32 
REMARK   18  A    between atoms: O6_32  and  N2_33 
REMARK   19  A    between atoms: N2_33  and  C26_36 
REMARK   20  A    between atoms: C26_36  and  C27_37 
ROOT
HETATM    1  C9  UNL     1      18.610  32.105  14.208  1.00  0.00     0.164 C 
HETATM    2  C10 UNL     1      20.097  32.212  14.307  1.00  0.00     0.270 C 
HETATM    3  N1  UNL     1      20.703  31.477  15.374  1.00  0.00    -0.062 N 
HETATM    4  C18 UNL     1      19.918  31.509  16.596  1.00  0.00     0.238 C 
HETATM    5  C19 UNL     1      18.556  30.888  16.431  1.00  0.00     0.038 C 
HETATM    6  C20 UNL     1      17.991  31.051  15.066  1.00  0.00     0.050 C 
HETATM    7  C21 UNL     1      17.904  29.717  14.376  1.00  0.00     0.156 C 
HETATM    8  C22 UNL     1      19.064  28.825  14.486  1.00  0.00     0.180 C 
HETATM    9  C23 UNL     1      20.378  29.400  14.003  1.00  0.00     0.216 C 
HETATM   10  C30 UNL     1      21.111  30.130  15.083  1.00  0.00     0.274 C 
ENDROOT
BRANCH   1  11
HETATM   11  O2  UNL     1      18.015  33.360  14.224  1.00  0.00    -0.314 OA
BRANCH  11  12
HETATM   12  C8  UNL     1      17.512  34.061  15.274  1.00  0.00     0.259 C 
HETATM   13  O1  UNL     1      18.414  34.583  15.934  1.00  0.00    -0.265 OA
BRANCH  12  14
HETATM   14  C7  UNL     1      16.088  34.129  15.509  1.00  0.00     0.111 C 
BRANCH  14  15
HETATM   15  C6  UNL     1      15.570  33.296  16.676  1.00  0.00     0.010 C 
BRANCH  15  16
HETATM   16  C5  UNL     1      15.266  34.132  17.859  1.00  0.00     0.000 C 
BRANCH  16  17
HETATM   17  C4  UNL     1      14.583  35.430  17.680  1.00  0.00     0.000 C 
BRANCH  17  18
HETATM   18  C3  UNL     1      14.842  36.584  18.543  1.00  0.00    -0.000 C 
BRANCH  18  19
HETATM   19  C2  UNL     1      16.123  37.323  18.476  1.00  0.00    -0.005 C 
HETATM   20  C1  UNL     1      16.675  37.467  17.084  1.00  0.00     0.005 C 
ENDBRANCH  18  19
ENDBRANCH  17  18
ENDBRANCH  16  17
ENDBRANCH  15  16
ENDBRANCH  14  15
ENDBRANCH  12  14
ENDBRANCH  11  12
ENDBRANCH   1  11
BRANCH   3  21
HETATM   21  C11 UNL     1      21.931  32.184  15.707  1.00  0.00     0.237 C 
BRANCH  21  22
HETATM   22  C12 UNL     1      22.045  32.728  17.068  1.00  0.00     0.030 C 
BRANCH  22  23
HETATM   23  C13 UNL     1      22.095  34.266  17.079  1.00  0.00     0.028 C 
BRANCH  23  24
HETATM   24  C14 UNL     1      21.876  34.676  18.518  1.00  0.00     0.168 C 
BRANCH  24  25
HETATM   25  O3  UNL     1      21.549  35.998  18.637  1.00  0.00    -0.387 OA
BRANCH  25  26
HETATM   26  C15 UNL     1      20.251  36.332  18.362  1.00  0.00     0.113 C 
HETATM   27  C16 UNL     1      19.993  37.817  18.649  1.00  0.00     0.039 C 
HETATM   28  C17 UNL     1      19.283  35.531  19.243  1.00  0.00     0.039 C 
ENDBRANCH  25  26
ENDBRANCH  24  25
ENDBRANCH  23  24
ENDBRANCH  22  23
ENDBRANCH  21  22
ENDBRANCH   3  21
BRANCH   7  29
HETATM   29  O4  UNL     1      17.578  29.865  13.012  1.00  0.00    -0.392 OA
ATOM     30  H4  UNL     1      18.162  29.358  12.460  1.00  0.00     0.210 HD
ENDBRANCH   7  29
BRANCH   8  31
HETATM   31  O5  UNL     1      18.721  27.657  13.752  1.00  0.00    -0.390 OA
ATOM     32  H5  UNL     1      18.780  26.938  14.371  1.00  0.00     0.210 HD
ENDBRANCH   8  31
BRANCH   9  33
HETATM   33  O6  UNL     1      21.054  28.440  13.374  1.00  0.00    -0.193 OA
BRANCH  33  34
HETATM   34  N2  UNL     1      21.646  28.410  12.265  1.00  0.00     0.039 N 
HETATM   35  C24 UNL     1      21.208  27.257  11.455  1.00  0.00     0.311 C 
HETATM   36  C25 UNL     1      21.619  29.586  11.423  1.00  0.00     0.311 C 
BRANCH  34  37
HETATM   37  C26 UNL     1      23.055  28.142  12.511  1.00  0.00     0.277 C 
BRANCH  37  38
HETATM   38  C27 UNL     1      23.634  27.074  11.623  1.00  0.00     0.014 A 
HETATM   39  C28 UNL     1      25.111  26.829  11.913  1.00  0.00     0.007 A 
HETATM   40  C29 UNL     1      24.750  27.453  10.638  1.00  0.00     0.007 A 
ENDBRANCH  37  38
ENDBRANCH  34  37
ENDBRANCH  33  34
ENDBRANCH   9  33
TORSDOF 20
ENDMDL
MODEL 2
REMARK VINA RESULT: -7.486208986      2.031      9.570
REMARK  20 active torsions:
REMARK  status: ('A' for Active; 'I' for Inactive)
REMARK    1  A    between atoms: C2_2  and  C3_3 
REMARK    2  A    between atoms: C3_3  and  C4_4 
REMARK    3  A    between atoms: C4_4  and  C5_5 
REMARK    4  A    between atoms: C5_5  and  C6_6 
REMARK    5  A    between atoms: C6_6  and  C7_7 
REMARK    6  A    between atoms: C7_7  and  C8_8 
REMARK    7  A    between atoms: C8_8  and  O2_10 
REMARK    8  A    between atoms: O2_10  and  C9_11 
REMARK    9  A    between atoms: N1_13  and  C11_14 
REMARK   10  A    between atoms: C11_14  and  C12_15 
REMARK   11  A    between atoms: C12_15  and  C13_16 
REMARK   12  A    between atoms: C13_16  and  C14_17 
REMARK   13  A    between atoms: C14_17  and  O3_18 
REMARK   14  A    between atoms: O3_18  and  C15_19 
REMARK   15  A    between atoms: C21_25  and  O4_26 
REMARK   16  A    between atoms: C22_28  and  O5_29 
REMARK   17  A    between atoms: C23_31  and  O6_32 
REMARK   18  A    between atoms: O6_32  and  N2_33 
REMARK   19  A    between atoms: N2_33  and  C26_36 
REMARK   20  A    between atoms: C26_36  and  C27_37 
ROOT
HETATM    1  C9  UNL     1      20.635  33.076  14.648  1.00  0.00     0.164 C 
HETATM    2  C10 UNL     1      19.288  32.430  14.669  1.00  0.00     0.270 C 
HETATM    3  N1  UNL     1      18.939  31.761  15.884  1.00  0.00    -0.062 N 
HETATM    4  C18 UNL     1      20.061  31.056  16.480  1.00  0.00     0.238 C 
HETATM    5  C19 UNL     1      21.191  31.974  16.862  1.00  0.00     0.038 C 
HETATM    6  C20 UNL     1      21.321  33.157  15.972  1.00  0.00     0.050 C 
HETATM    7  C21 UNL     1      20.983  34.415  16.725  1.00  0.00     0.156 C 
HETATM    8  C22 UNL     1      19.791  34.387  17.583  1.00  0.00     0.180 C 
HETATM    9  C23 UNL     1      18.498  34.017  16.891  1.00  0.00     0.216 C 
HETATM   10  C30 UNL     1      18.259  32.540  16.881  1.00  0.00     0.274 C 
ENDROOT
BRANCH   1  11
HETATM   11  O2  UNL     1      21.390  32.624  13.573  1.00  0.00    -0.314 OA
BRANCH  11  12
HETATM   12  C8  UNL     1      21.190  31.542  12.776  1.00  0.00     0.259 C 
HETATM   13  O1  UNL     1      20.472  31.826  11.814  1.00  0.00    -0.265 OA
BRANCH  12  14
HETATM   14  C7  UNL     1      21.783  30.263  13.094  1.00  0.00     0.111 C 
BRANCH  14  15
HETATM   15  C6  UNL     1      21.774  29.232  11.971  1.00  0.00     0.010 C 
BRANCH  15  16
HETATM   16  C5  UNL     1      21.975  27.857  12.483  1.00  0.00     0.000 C 
BRANCH  16  17
HETATM   17  C4  UNL     1      23.010  26.995  11.875  1.00  0.00     0.000 C 
BRANCH  17  18
HETATM   18  C3  UNL     1      24.438  27.307  11.946  1.00  0.00    -0.000 C 
BRANCH  18  19
HETATM   19  C2  UNL     1      25.401  26.735  10.977  1.00  0.00    -0.005 C 
HETATM   20  C1  UNL     1      24.787  26.352   9.658  1.00  0.00     0.005 C 
ENDBRANCH  18  19
ENDBRANCH  17  18
ENDBRANCH  16  17
ENDBRANCH  15  16
ENDBRANCH  14  15
ENDBRANCH  12  14
ENDBRANCH  11  12
ENDBRANCH   1  11
BRANCH   3  21
HETATM   21  C11 UNL     1      18.000  30.712  15.513  1.00  0.00     0.237 C 
BRANCH  21  22
HETATM   22  C12 UNL     1      18.086  30.187  14.143  1.00  0.00     0.030 C 
BRANCH  22  23
HETATM   23  C13 UNL     1      18.553  28.721  14.109  1.00  0.00     0.028 C 
BRANCH  23  24
HETATM   24  C14 UNL     1      17.639  28.018  13.131  1.00  0.00     0.168 C 
BRANCH  24  25
HETATM   25  O3  UNL     1      18.315  27.527  12.049  1.00  0.00    -0.387 OA
BRANCH  25  26
HETATM   26  C15 UNL     1      18.329  28.314  10.930  1.00  0.00     0.113 C 
HETATM   27  C16 UNL     1      16.976  29.007  10.729  1.00  0.00     0.039 C 
HETATM   28  C17 UNL     1      18.592  27.473   9.674  1.00  0.00     0.039 C 
ENDBRANCH  25  26
ENDBRANCH  24  25
ENDBRANCH  23  24
ENDBRANCH  22  23
ENDBRANCH  21  22
ENDBRANCH   3  21
BRANCH   7  29
HETATM   29  O4  UNL     1      20.886  35.523  15.858  1.00  0.00    -0.392 OA
ATOM     30  H4  UNL     1      20.866  36.340  16.342  1.00  0.00     0.210 HD
ENDBRANCH   7  29
BRANCH   8  31
HETATM   31  O5  UNL     1      19.705  35.681  18.163  1.00  0.00    -0.390 OA
ATOM     32  H5  UNL     1      18.835  35.736  18.541  1.00  0.00     0.210 HD
ENDBRANCH   8  31
BRANCH   9  33
HETATM   33  O6  UNL     1      17.520  34.771  17.391  1.00  0.00    -0.193 OA
BRANCH  33  34
HETATM   34  N2  UNL     1      16.412  35.137  16.924  1.00  0.00     0.039 N 
HETATM   35  C24 UNL     1      16.413  35.104  15.449  1.00  0.00     0.311 C 
HETATM   36  C25 UNL     1      15.206  34.486  17.387  1.00  0.00     0.311 C 
BRANCH  34  37
HETATM   37  C26 UNL     1      16.233  36.548  17.235  1.00  0.00     0.277 C 
BRANCH  37  38
HETATM   38  C27 UNL     1      16.399  36.875  18.694  1.00  0.00     0.014 A 
HETATM   39  C28 UNL     1      15.301  37.805  19.200  1.00  0.00     0.007 A 
HETATM   40  C29 UNL     1      16.665  38.331  19.103  1.00  0.00     0.007 A 
ENDBRANCH  37  38
ENDBRANCH  34  37
ENDBRANCH  33  34
ENDBRANCH   9  33
TORSDOF 20
ENDMDL
MODEL 3
REMARK VINA RESULT: -7.343596067      1.369      2.413
REMARK  20 active torsions:
REMARK  status: ('A' for Active; 'I' for Inactive)
REMARK    1  A    between atoms: C2_2  and  C3_3 
REMARK    2  A    between atoms: C3_3  and  C4_4 
REMARK    3  A    between atoms: C4_4  and  C5_5 
REMARK    4  A    between atoms: C5_5  and  C6_6 
REMARK    5  A    between atoms: C6_6  and  C7_7 
REMARK    6  A    between atoms: C7_7  and  C8_8 
REMARK    7  A    between atoms: C8_8  and  O2_10 
REMARK    8  A    between atoms: O2_10  and  C9_11 
REMARK    9  A    between atoms: N1_13  and  C11_14 
REMARK   10  A    between atoms: C11_14  and  C12_15 
REMARK   11  A    between atoms: C12_15  and  C13_16 
REMARK   12  A    between atoms: C13_16  and  C14_17 
REMARK   13  A    between atoms: C14_17  and  O3_18 
REMARK   14  A    between atoms: O3_18  and  C15_19 
REMARK   15  A    between atoms: C21_25  and  O4_26 
REMARK   16  A    between atoms: C22_28  and  O5_29 
REMARK   17  A    between atoms: C23_31  and  O6_32 
REMARK   18  A    between atoms: O6_32  and  N2_33 
REMARK   19  A    between atoms: N2_33  and  C26_36 
REMARK   20  A    between atoms: C26_36  and  C27_37 
ROOT
HETATM    1  C9  UNL     1      18.994  31.833  13.802  1.00  0.00     0.164 C 
HETATM    2  C10 UNL     1      20.476  31.692  13.663  1.00  0.00     0.270 C 
HETATM    3  N1  UNL     1      21.126  30.935  14.687  1.00  0.00    -0.062 N 
HETATM    4  C18 UNL     1      20.569  31.179  16.007  1.00  0.00     0.238 C 
HETATM    5  C19 UNL     1      19.118  30.789  16.109  1.00  0.00     0.038 C 
HETATM    6  C20 UNL     1      18.368  30.958  14.837  1.00  0.00     0.050 C 
HETATM    7  C21 UNL     1      17.959  29.616  14.293  1.00  0.00     0.156 C 
HETATM    8  C22 UNL     1      18.966  28.548  14.305  1.00  0.00     0.180 C 
HETATM    9  C23 UNL     1      20.256  28.859  13.577  1.00  0.00     0.216 C 
HETATM   10  C30 UNL     1      21.263  29.522  14.462  1.00  0.00     0.274 C 
ENDROOT
BRANCH   1  11
HETATM   11  O2  UNL     1      18.616  33.170  13.794  1.00  0.00    -0.314 OA
BRANCH  11  12
HETATM   12  C8  UNL     1      18.170  33.944  14.819  1.00  0.00     0.259 C 
HETATM   13  O1  UNL     1      19.069  34.163  15.634  1.00  0.00    -0.265 OA
BRANCH  12  14
HETATM   14  C7  UNL     1      16.801  34.403  14.862  1.00  0.00     0.111 C 
BRANCH  14  15
HETATM   15  C6  UNL     1      15.793  33.424  15.454  1.00  0.00     0.010 C 
BRANCH  15  16
HETATM   16  C5  UNL     1      16.077  33.135  16.878  1.00  0.00     0.000 C 
BRANCH  16  17
HETATM   17  C4  UNL     1      15.750  34.142  17.909  1.00  0.00     0.000 C 
BRANCH  17  18
HETATM   18  C3  UNL     1      14.550  34.977  17.842  1.00  0.00    -0.000 C 
BRANCH  18  19
HETATM   19  C2  UNL     1      14.600  36.424  18.154  1.00  0.00    -0.005 C 
HETATM   20  C1  UNL     1      15.907  37.081  17.800  1.00  0.00     0.005 C 
ENDBRANCH  18  19
ENDBRANCH  17  18
ENDBRANCH  16  17
ENDBRANCH  15  16
ENDBRANCH  14  15
ENDBRANCH  12  14
ENDBRANCH  11  12
ENDBRANCH   1  11
BRANCH   3  21
HETATM   21  C11 UNL     1      22.488  31.443  14.763  1.00  0.00     0.237 C 
BRANCH  21  22
HETATM   22  C12 UNL     1      22.674  32.893  14.601  1.00  0.00     0.030 C 
BRANCH  22  23
HETATM   23  C13 UNL     1      23.356  33.533  15.823  1.00  0.00     0.028 C 
BRANCH  23  24
HETATM   24  C14 UNL     1      22.360  34.524  16.380  1.00  0.00     0.168 C 
BRANCH  24  25
HETATM   25  O3  UNL     1      21.867  34.137  17.595  1.00  0.00    -0.387 OA
BRANCH  25  26
HETATM   26  C15 UNL     1      21.657  35.131  18.512  1.00  0.00     0.113 C 
HETATM   27  C16 UNL     1      20.158  35.360  18.742  1.00  0.00     0.039 C 
HETATM   28  C17 UNL     1      22.244  36.460  18.021  1.00  0.00     0.039 C 
ENDBRANCH  25  26
ENDBRANCH  24  25
ENDBRANCH  23  24
ENDBRANCH  22  23
ENDBRANCH  21  22
ENDBRANCH   3  21
BRANCH   7  29
HETATM   29  O4  UNL     1      17.439  29.729  12.986  1.00  0.00    -0.392 OA
ATOM     30  H4  UNL     1      16.645  29.217  12.884  1.00  0.00     0.210 HD
ENDBRANCH   7  29
BRANCH   8  31
HETATM   31  O5  UNL     1      18.327  27.411  13.741  1.00  0.00    -0.390 OA
ATOM     32  H5  UNL     1      18.568  26.679  14.298  1.00  0.00     0.210 HD
ENDBRANCH   8  31
BRANCH   9  33
HETATM   33  O6  UNL     1      20.658  27.760  12.942  1.00  0.00    -0.193 OA
BRANCH  33  34
HETATM   34  N2  UNL     1      20.998  27.548  11.750  1.00  0.00     0.039 N 
HETATM   35  C24 UNL     1      22.234  28.277  11.407  1.00  0.00     0.311 C 
HETATM   36  C25 UNL     1      21.140  26.184  11.293  1.00  0.00     0.311 C 
BRANCH  34  37
HETATM   37  C26 UNL     1      19.995  28.145  10.879  1.00  0.00     0.277 C 
BRANCH  37  38
HETATM   38  C27 UNL     1      18.998  27.159  10.336  1.00  0.00     0.014 A 
HETATM   39  C28 UNL     1      18.523  27.539   8.937  1.00  0.00     0.007 A 
HETATM   40  C29 UNL     1      17.568  27.635  10.043  1.00  0.00     0.007 A 
ENDBRANCH  37  38
ENDBRANCH  34  37
ENDBRANCH  33  34
ENDBRANCH   9  33
TORSDOF 20
ENDMDL
MODEL 4
REMARK VINA RESULT: -7.145208847      2.533      6.592
REMARK  20 active torsions:
REMARK  status: ('A' for Active; 'I' for Inactive)
REMARK    1  A    between atoms: C2_2  and  C3_3 
REMARK    2  A    between atoms: C3_3  and  C4_4 
REMARK    3  A    between atoms: C4_4  and  C5_5 
REMARK    4  A    between atoms: C5_5  and  C6_6 
REMARK    5  A    between atoms: C6_6  and  C7_7 
REMARK    6  A    between atoms: C7_7  and  C8_8 
REMARK    7  A    between atoms: C8_8  and  O2_10 
REMARK    8  A    between atoms: O2_10  and  C9_11 
REMARK    9  A    between atoms: N1_13  and  C11_14 
REMARK   10  A    between atoms: C11_14  and  C12_15 
REMARK   11  A    between atoms: C12_15  and  C13_16 
REMARK   12  A    between atoms: C13_16  and  C14_17 
REMARK   13  A    between atoms: C14_17  and  O3_18 
REMARK   14  A    between atoms: O3_18  and  C15_19 
REMARK   15  A    between atoms: C21_25  and  O4_26 
REMARK   16  A    between atoms: C22_28  and  O5_29 
REMARK   17  A    between atoms: C23_31  and  O6_32 
REMARK   18  A    between atoms: O6_32  and  N2_33 
REMARK   19  A    between atoms: N2_33  and  C26_36 
REMARK   20  A    between atoms: C26_36  and  C27_37 
ROOT
HETATM    1  C9  UNL     1      20.108  31.166  13.204  1.00  0.00     0.164 C 
HETATM    2  C10 UNL     1      21.065  30.394  12.354  1.00  0.00     0.270 C 
HETATM    3  N1  UNL     1      21.586  29.196  12.937  1.00  0.00    -0.062 N 
HETATM    4  C18 UNL     1      21.869  29.338  14.355  1.00  0.00     0.238 C 
HETATM    5  C19 UNL     1      20.641  29.653  15.167  1.00  0.00     0.038 C 
HETATM    6  C20 UNL     1      19.632  30.457  14.429  1.00  0.00     0.050 C 
HETATM    7  C21 UNL     1      18.395  29.638  14.182  1.00  0.00     0.156 C 
HETATM    8  C22 UNL     1      18.581  28.259  13.714  1.00  0.00     0.180 C 
HETATM    9  C23 UNL     1      19.381  28.105  12.439  1.00  0.00     0.216 C 
HETATM   10  C30 UNL     1      20.849  27.985  12.699  1.00  0.00     0.274 C 
ENDROOT
BRANCH   1  11
HETATM   11  O2  UNL     1      20.528  32.481  13.360  1.00  0.00    -0.314 OA
BRANCH  11  12
HETATM   12  C8  UNL     1      21.408  33.004  14.254  1.00  0.00     0.259 C 
HETATM   13  O1  UNL     1      22.561  32.961  13.819  1.00  0.00    -0.265 OA
BRANCH  12  14
HETATM   14  C7  UNL     1      20.959  33.519  15.527  1.00  0.00     0.111 C 
BRANCH  14  15
HETATM   15  C6  UNL     1      19.479  33.876  15.611  1.00  0.00     0.010 C 
BRANCH  15  16
HETATM   16  C5  UNL     1      18.897  33.512  16.922  1.00  0.00     0.000 C 
BRANCH  16  17
HETATM   17  C4  UNL     1      17.893  34.397  17.548  1.00  0.00     0.000 C 
BRANCH  17  18
HETATM   18  C3  UNL     1      16.453  34.204  17.373  1.00  0.00    -0.000 C 
BRANCH  18  19
HETATM   19  C2  UNL     1      15.879  33.830  16.061  1.00  0.00    -0.005 C 
HETATM   20  C1  UNL     1      15.628  32.355  15.900  1.00  0.00     0.005 C 
ENDBRANCH  18  19
ENDBRANCH  17  18
ENDBRANCH  16  17
ENDBRANCH  15  16
ENDBRANCH  14  15
ENDBRANCH  12  14
ENDBRANCH  11  12
ENDBRANCH   1  11
BRANCH   3  21
HETATM   21  C11 UNL     1      22.886  28.979  12.322  1.00  0.00     0.237 C 
BRANCH  21  22
HETATM   22  C12 UNL     1      23.319  27.585  12.139  1.00  0.00     0.030 C 
BRANCH  22  23
HETATM   23  C13 UNL     1      24.850  27.441  12.175  1.00  0.00     0.028 C 
BRANCH  23  24
HETATM   24  C14 UNL     1      25.204  26.503  11.043  1.00  0.00     0.168 C 
BRANCH  24  25
HETATM   25  O3  UNL     1      24.505  25.330  11.102  1.00  0.00    -0.387 OA
BRANCH  25  26
HETATM   26  C15 UNL     1      24.056  24.826   9.912  1.00  0.00     0.113 C 
HETATM   27  C16 UNL     1      24.595  25.644   8.731  1.00  0.00     0.039 C 
HETATM   28  C17 UNL     1      22.525  24.886   9.837  1.00  0.00     0.039 C 
ENDBRANCH  25  26
ENDBRANCH  24  25
ENDBRANCH  23  24
ENDBRANCH  22  23
ENDBRANCH  21  22
ENDBRANCH   3  21
BRANCH   7  29
HETATM   29  O4  UNL     1      17.511  30.296  13.301  1.00  0.00    -0.392 OA
ATOM     30  H4  UNL     1      17.510  29.887  12.443  1.00  0.00     0.210 HD
ENDBRANCH   7  29
BRANCH   8  31
HETATM   31  O5  UNL     1      17.273  27.726  13.561  1.00  0.00    -0.390 OA
ATOM     32  H5  UNL     1      16.976  28.015  12.706  1.00  0.00     0.210 HD
ENDBRANCH   8  31
BRANCH   9  33
HETATM   33  O6  UNL     1      18.829  27.139  11.708  1.00  0.00    -0.193 OA
BRANCH  33  34
HETATM   34  N2  UNL     1      18.563  27.052  10.482  1.00  0.00     0.039 N 
HETATM   35  C24 UNL     1      17.576  28.070  10.074  1.00  0.00     0.311 C 
HETATM   36  C25 UNL     1      19.649  27.072   9.526  1.00  0.00     0.311 C 
BRANCH  34  37
HETATM   37  C26 UNL     1      17.871  25.792  10.255  1.00  0.00     0.277 C 
BRANCH  37  38
HETATM   38  C27 UNL     1      17.930  24.848  11.425  1.00  0.00     0.014 A 
HETATM   39  C28 UNL     1      18.952  23.736  11.212  1.00  0.00     0.007 A 
HETATM   40  C29 UNL     1      17.532  23.380  11.214  1.00  0.00     0.007 A 
ENDBRANCH  37  38
ENDBRANCH  34  37
ENDBRANCH  33  34
ENDBRANCH   9  33
TORSDOF 20
ENDMDL
MODEL 5
REMARK VINA RESULT: -7.109706085      1.944      8.043
REMARK  20 active torsions:
REMARK  status: ('A' for Active; 'I' for Inactive)
REMARK    1  A    between atoms: C2_2  and  C3_3 
REMARK    2  A    between atoms: C3_3  and  C4_4 
REMARK    3  A    between atoms: C4_4  and  C5_5 
REMARK    4  A    between atoms: C5_5  and  C6_6 
REMARK    5  A    between atoms: C6_6  and  C7_7 
REMARK    6  A    between atoms: C7_7  and  C8_8 
REMARK    7  A    between atoms: C8_8  and  O2_10 
REMARK    8  A    between atoms: O2_10  and  C9_11 
REMARK    9  A    between atoms: N1_13  and  C11_14 
REMARK   10  A    between atoms: C11_14  and  C12_15 
REMARK   11  A    between atoms: C12_15  and  C13_16 
REMARK   12  A    between atoms: C13_16  and  C14_17 
REMARK   13  A    between atoms: C14_17  and  O3_18 
REMARK   14  A    between atoms: O3_18  and  C15_19 
REMARK   15  A    between atoms: C21_25  and  O4_26 
REMARK   16  A    between atoms: C22_28  and  O5_29 
REMARK   17  A    between atoms: C23_31  and  O6_32 
REMARK   18  A    between atoms: O6_32  and  N2_33 
REMARK   19  A    between atoms: N2_33  and  C26_36 
REMARK   20  A    between atoms: C26_36  and  C27_37 
ROOT
HETATM    1  C9  UNL     1      19.639  31.631  13.736  1.00  0.00     0.164 C 
HETATM    2  C10 UNL     1      18.862  32.868  14.047  1.00  0.00     0.270 C 
HETATM    3  N1  UNL     1      18.018  32.798  15.201  1.00  0.00    -0.062 N 
HETATM    4  C18 UNL     1      17.364  31.509  15.342  1.00  0.00     0.238 C 
HETATM    5  C19 UNL     1      18.340  30.375  15.514  1.00  0.00     0.038 C 
HETATM    6  C20 UNL     1      19.629  30.589  14.805  1.00  0.00     0.050 C 
HETATM    7  C21 UNL     1      20.745  30.764  15.799  1.00  0.00     0.156 C 
HETATM    8  C22 UNL     1      20.493  31.643  16.948  1.00  0.00     0.180 C 
HETATM    9  C23 UNL     1      20.080  33.058  16.609  1.00  0.00     0.216 C 
HETATM   10  C30 UNL     1      18.598  33.198  16.453  1.00  0.00     0.274 C 
ENDROOT
BRANCH   1  11
HETATM   11  O2  UNL     1      19.398  31.202  12.436  1.00  0.00    -0.314 OA
BRANCH  11  12
HETATM   12  C8  UNL     1      19.080  29.961  11.984  1.00  0.00     0.259 C 
HETATM   13  O1  UNL     1      17.862  29.846  11.824  1.00  0.00    -0.265 OA
BRANCH  12  14
HETATM   14  C7  UNL     1      20.103  28.969  11.751  1.00  0.00     0.111 C 
BRANCH  14  15
HETATM   15  C6  UNL     1      21.541  29.468  11.840  1.00  0.00     0.010 C 
BRANCH  15  16
HETATM   16  C5  UNL     1      22.368  28.613  12.721  1.00  0.00     0.000 C 
BRANCH  16  17
HETATM   17  C4  UNL     1      23.175  27.523  12.135  1.00  0.00     0.000 C 
BRANCH  17  18
HETATM   18  C3  UNL     1      24.634  27.585  12.038  1.00  0.00    -0.000 C 
BRANCH  18  19
HETATM   19  C2  UNL     1      25.372  26.810  11.016  1.00  0.00    -0.005 C 
HETATM   20  C1  UNL     1      24.593  26.564   9.753  1.00  0.00     0.005 C 
ENDBRANCH  18  19
ENDBRANCH  17  18
ENDBRANCH  16  17
ENDBRANCH  15  16
ENDBRANCH  14  15
ENDBRANCH  12  14
ENDBRANCH  11  12
ENDBRANCH   1  11
BRANCH   3  21
HETATM   21  C11 UNL     1      16.933  33.738  14.966  1.00  0.00     0.237 C 
BRANCH  21  22
HETATM   22  C12 UNL     1      15.665  33.490  15.669  1.00  0.00     0.030 C 
BRANCH  22  23
HETATM   23  C13 UNL     1      15.294  34.637  16.625  1.00  0.00     0.028 C 
BRANCH  23  24
HETATM   24  C14 UNL     1      15.227  34.022  18.004  1.00  0.00     0.168 C 
BRANCH  24  25
HETATM   25  O3  UNL     1      15.623  34.891  18.982  1.00  0.00    -0.387 OA
BRANCH  25  26
HETATM   26  C15 UNL     1      16.140  36.087  18.561  1.00  0.00     0.113 C 
HETATM   27  C16 UNL     1      17.632  36.189  18.900  1.00  0.00     0.039 C 
HETATM   28  C17 UNL     1      15.440  37.260  19.258  1.00  0.00     0.039 C 
ENDBRANCH  25  26
ENDBRANCH  24  25
ENDBRANCH  23  24
ENDBRANCH  22  23
ENDBRANCH  21  22
ENDBRANCH   3  21
BRANCH   7  29
HETATM   29  O4  UNL     1      21.934  31.183  15.166  1.00  0.00    -0.392 OA
ATOM     30  H4  UNL     1      21.902  32.106  14.945  1.00  0.00     0.210 HD
ENDBRANCH   7  29
BRANCH   8  31
HETATM   31  O5  UNL     1      21.693  31.632  17.709  1.00  0.00    -0.390 OA
ATOM     32  H5  UNL     1      22.378  31.373  17.105  1.00  0.00     0.210 HD
ENDBRANCH   8  31
BRANCH   9  33
HETATM   33  O6  UNL     1      20.665  33.888  17.471  1.00  0.00    -0.193 OA
BRANCH  33  34
HETATM   34  N2  UNL     1      21.511  34.805  17.321  1.00  0.00     0.039 N 
HETATM   35  C24 UNL     1      22.154  35.155  18.602  1.00  0.00     0.311 C 
HETATM   36  C25 UNL     1      22.549  34.648  16.326  1.00  0.00     0.311 C 
BRANCH  34  37
HETATM   37  C26 UNL     1      20.801  36.021  16.950  1.00  0.00     0.277 C 
BRANCH  37  38
HETATM   38  C27 UNL     1      21.276  37.248  17.679  1.00  0.00     0.014 A 
HETATM   39  C28 UNL     1      20.312  38.419  17.515  1.00  0.00     0.007 A 
HETATM   40  C29 UNL     1      21.622  38.505  16.867  1.00  0.00     0.007 A 
ENDBRANCH  37  38
ENDBRANCH  34  37
ENDBRANCH  33  34
ENDBRANCH   9  33
TORSDOF 20
ENDMDL
