MODEL 1
REMARK VINA RESULT: -7.326161047      0.000      0.000
REMARK  18 active torsions:
REMARK  status: ('A' for Active; 'I' for Inactive)
REMARK    1  A    between atoms: N1_2  and  C2_3 
REMARK    2  A    between atoms: N1_2  and  C23_30 
REMARK    3  A    between atoms: C2_3  and  C3_4 
REMARK    4  A    between atoms: C3_4  and  C4_5 
REMARK    5  A    between atoms: C4_5  and  C5_6 
REMARK    6  A    between atoms: C5_6  and  C6_7 
REMARK    7  A    between atoms: C6_7  and  C7_8 
REMARK    8  A    between atoms: C7_8  and  C8_9 
REMARK    9  A    between atoms: C8_9  and  N2_10 
REMARK   10  A    between atoms: N2_10  and  C9_11 
REMARK   11  A    between atoms: N2_10  and  C17_24 
REMARK   12  A    between atoms: C9_11  and  N3_13 
REMARK   13  A    between atoms: N3_13  and  C10_15 
REMARK   14  A    between atoms: C10_15  and  C11_16 
REMARK   15  A    between atoms: C11_16  and  C12_17 
REMARK   16  A    between atoms: C12_17  and  N4_18 
REMARK   17  A    between atoms: C23_30  and  C24_31 
REMARK   18  A    between atoms: C24_31  and  N5_32 
ROOT
HETATM    1  N2  UNL     1      19.452  31.537  14.988  1.00  0.00    -0.353 N 
ENDROOT
BRANCH   1   2
HETATM    2  C8  UNL     1      18.680  31.505  16.229  1.00  0.00     0.125 C 
BRANCH   2   3
HETATM    3  C7  UNL     1      17.230  31.243  16.031  1.00  0.00     0.020 C 
BRANCH   3   4
HETATM    4  C6  UNL     1      16.584  32.402  15.327  1.00  0.00     0.002 C 
BRANCH   4   5
HETATM    5  C5  UNL     1      16.673  33.635  16.153  1.00  0.00     0.000 C 
BRANCH   5   6
HETATM    6  C4  UNL     1      15.338  33.929  16.836  1.00  0.00     0.005 C 
BRANCH   6   7
HETATM    7  C3  UNL     1      15.584  34.350  18.231  1.00  0.00     0.044 C 
BRANCH   7   8
HETATM    8  C2  UNL     1      15.520  35.782  18.601  1.00  0.00     0.057 C 
BRANCH   8   9
HETATM    9  N1  UNL     1      16.630  36.606  18.328  1.00  0.00    -0.396 N 
HETATM   10  C1  UNL     1      16.604  37.372  17.170  1.00  0.00     0.148 C 
BRANCH   9  11
HETATM   11  C23 UNL     1      17.889  36.096  18.755  1.00  0.00     0.151 C 
BRANCH  11  12
HETATM   12  C24 UNL     1      19.070  36.494  17.915  1.00  0.00     0.292 C 
BRANCH  12  13
HETATM   13  N5  UNL     1      20.010  37.311  18.614  1.00  0.00     0.093 N 
HETATM   14  C25 UNL     1      21.352  37.269  18.128  1.00  0.00     0.302 C 
HETATM   15  C26 UNL     1      21.412  37.922  16.773  1.00  0.00     0.302 C 
HETATM   16  N6  UNL     1      21.045  39.316  16.922  1.00  0.00     0.087 N 
HETATM   17  C27 UNL     1      21.011  39.983  15.638  1.00  0.00     0.310 C 
HETATM   18  C28 UNL     1      19.775  39.488  17.562  1.00  0.00     0.302 C 
HETATM   19  C29 UNL     1      19.589  38.662  18.796  1.00  0.00     0.302 C 
ENDBRANCH  12  13
ENDBRANCH  11  12
ENDBRANCH   9  11
ENDBRANCH   8   9
ENDBRANCH   7   8
ENDBRANCH   6   7
ENDBRANCH   5   6
ENDBRANCH   4   5
ENDBRANCH   3   4
ENDBRANCH   2   3
ENDBRANCH   1   2
BRANCH   1  20
HETATM   20  C9  UNL     1      19.457  30.375  14.177  1.00  0.00     0.174 C 
HETATM   21  S1  UNL     1      18.724  30.422  12.730  1.00  0.00    -0.041 SA
BRANCH  20  22
HETATM   22  N3  UNL     1      20.049  29.173  14.577  1.00  0.00    -0.343 N 
ATOM     23  H3  UNL     1      19.397  28.561  15.069  1.00  0.00     0.167 HD
BRANCH  22  24
HETATM   24  C10 UNL     1      21.336  28.607  14.460  1.00  0.00     0.088 C 
BRANCH  24  25
HETATM   25  C11 UNL     1      22.226  28.879  13.341  1.00  0.00     0.020 C 
BRANCH  25  26
HETATM   26  C12 UNL     1      21.963  28.558  11.943  1.00  0.00     0.301 C 
BRANCH  26  27
HETATM   27  N4  UNL     1      22.920  27.664  11.304  1.00  0.00     0.096 N 
HETATM   28  C13 UNL     1      22.409  26.305  11.253  1.00  0.00     0.299 C 
HETATM   29  C14 UNL     1      23.467  25.413  10.634  1.00  0.00     0.198 C 
HETATM   30  O1  UNL     1      24.553  25.406  11.501  1.00  0.00    -0.388 OA
HETATM   31  C15 UNL     1      25.132  26.647  11.585  1.00  0.00     0.198 C 
HETATM   32  C16 UNL     1      24.171  27.723  12.039  1.00  0.00     0.299 C 
ENDBRANCH  26  27
ENDBRANCH  25  26
ENDBRANCH  24  25
ENDBRANCH  22  24
ENDBRANCH  20  22
ENDBRANCH   1  20
BRANCH   1  33
HETATM   33  C17 UNL     1      20.220  32.736  14.729  1.00  0.00     0.086 C 
HETATM   34  C18 UNL     1      21.631  32.432  14.236  1.00  0.00     0.025 C 
HETATM   35  C19 UNL     1      22.566  32.053  15.334  1.00  0.00     0.002 C 
HETATM   36  C20 UNL     1      22.929  33.344  16.067  1.00  0.00     0.000 C 
HETATM   37  C21 UNL     1      21.808  34.322  15.896  1.00  0.00     0.002 C 
HETATM   38  C22 UNL     1      20.437  33.590  15.959  1.00  0.00     0.025 C 
ENDBRANCH   1  33
TORSDOF 18
ENDMDL
MODEL 2
REMARK VINA RESULT: -7.123312405      1.767      3.625
REMARK  18 active torsions:
REMARK  status: ('A' for Active; 'I' for Inactive)
REMARK    1  A    between atoms: N1_2  and  C2_3 
REMARK    2  A    between atoms: N1_2  and  C23_30 
REMARK    3  A    between atoms: C2_3  and  C3_4 
REMARK    4  A    between atoms: C3_4  and  C4_5 
REMARK    5  A    between atoms: C4_5  and  C5_6 
REMARK    6  A    between atoms: C5_6  and  C6_7 
REMARK    7  A    between atoms: C6_7  and  C7_8 
REMARK    8  A    between atoms: C7_8  and  C8_9 
REMARK    9  A    between atoms: C8_9  and  N2_10 
REMARK   10  A    between atoms: N2_10  and  C9_11 
REMARK   11  A    between atoms: N2_10  and  C17_24 
REMARK   12  A    between atoms: C9_11  and  N3_13 
REMARK   13  A    between atoms: N3_13  and  C10_15 
REMARK   14  A    between atoms: C10_15  and  C11_16 
REMARK   15  A    between atoms: C11_16  and  C12_17 
REMARK   16  A    between atoms: C12_17  and  N4_18 
REMARK   17  A    between atoms: C23_30  and  C24_31 
REMARK   18  A    between atoms: C24_31  and  N5_32 
ROOT
HETATM    1  N2  UNL     1      18.450  30.837  13.583  1.00  0.00    -0.353 N 
ENDROOT
BRANCH   1   2
HETATM    2  C8  UNL     1      17.533  31.787  14.209  1.00  0.00     0.125 C 
BRANCH   2   3
HETATM    3  C7  UNL     1      17.212  31.471  15.626  1.00  0.00     0.020 C 
BRANCH   3   4
HETATM    4  C6  UNL     1      15.862  32.020  15.988  1.00  0.00     0.002 C 
BRANCH   4   5
HETATM    5  C5  UNL     1      15.919  33.497  16.145  1.00  0.00     0.000 C 
BRANCH   5   6
HETATM    6  C4  UNL     1      15.267  33.930  17.458  1.00  0.00     0.005 C 
BRANCH   6   7
HETATM    7  C3  UNL     1      15.480  35.378  17.657  1.00  0.00     0.044 C 
BRANCH   7   8
HETATM    8  C2  UNL     1      16.382  35.861  18.728  1.00  0.00     0.057 C 
BRANCH   8   9
HETATM    9  N1  UNL     1      17.142  37.025  18.503  1.00  0.00    -0.396 N 
HETATM   10  C1  UNL     1      16.840  37.796  17.388  1.00  0.00     0.148 C 
BRANCH   9  11
HETATM   11  C23 UNL     1      18.506  36.952  18.906  1.00  0.00     0.151 C 
BRANCH  11  12
HETATM   12  C24 UNL     1      19.225  35.685  18.539  1.00  0.00     0.292 C 
BRANCH  12  13
HETATM   13  N5  UNL     1      19.684  35.669  17.187  1.00  0.00     0.093 N 
HETATM   14  C25 UNL     1      21.061  35.996  16.993  1.00  0.00     0.302 C 
HETATM   15  C26 UNL     1      21.918  34.898  17.562  1.00  0.00     0.302 C 
HETATM   16  N6  UNL     1      21.651  33.681  16.822  1.00  0.00     0.087 N 
HETATM   17  C27 UNL     1      22.393  32.566  17.371  1.00  0.00     0.310 C 
HETATM   18  C28 UNL     1      20.260  33.341  16.801  1.00  0.00     0.302 C 
HETATM   19  C29 UNL     1      19.350  34.481  16.470  1.00  0.00     0.302 C 
ENDBRANCH  12  13
ENDBRANCH  11  12
ENDBRANCH   9  11
ENDBRANCH   8   9
ENDBRANCH   7   8
ENDBRANCH   6   7
ENDBRANCH   5   6
ENDBRANCH   4   5
ENDBRANCH   3   4
ENDBRANCH   2   3
ENDBRANCH   1   2
BRANCH   1  20
HETATM   20  C9  UNL     1      19.798  30.823  14.023  1.00  0.00     0.174 C 
HETATM   21  S1  UNL     1      20.823  31.943  13.452  1.00  0.00    -0.041 SA
BRANCH  20  22
HETATM   22  N3  UNL     1      20.295  29.867  14.915  1.00  0.00    -0.343 N 
ATOM     23  H3  UNL     1      19.977  30.023  15.872  1.00  0.00     0.167 HD
BRANCH  22  24
HETATM   24  C10 UNL     1      21.132  28.737  14.801  1.00  0.00     0.088 C 
BRANCH  24  25
HETATM   25  C11 UNL     1      21.571  28.197  13.524  1.00  0.00     0.020 C 
BRANCH  25  26
HETATM   26  C12 UNL     1      22.698  28.680  12.734  1.00  0.00     0.301 C 
BRANCH  26  27
HETATM   27  N4  UNL     1      23.220  27.755  11.736  1.00  0.00     0.096 N 
HETATM   28  C13 UNL     1      22.474  26.508  11.743  1.00  0.00     0.299 C 
HETATM   29  C14 UNL     1      23.096  25.567  10.731  1.00  0.00     0.198 C 
HETATM   30  O1  UNL     1      24.379  25.275  11.178  1.00  0.00    -0.388 OA
HETATM   31  C15 UNL     1      25.176  26.391  11.170  1.00  0.00     0.198 C 
HETATM   32  C16 UNL     1      24.626  27.522  12.011  1.00  0.00     0.299 C 
ENDBRANCH  26  27
ENDBRANCH  25  26
ENDBRANCH  24  25
ENDBRANCH  22  24
ENDBRANCH  20  22
ENDBRANCH   1  20
BRANCH   1  33
HETATM   33  C17 UNL     1      17.922  30.039  12.497  1.00  0.00     0.086 C 
HETATM   34  C18 UNL     1      17.013  28.916  12.984  1.00  0.00     0.025 C 
HETATM   35  C19 UNL     1      17.765  27.736  13.503  1.00  0.00     0.002 C 
HETATM   36  C20 UNL     1      18.303  26.988  12.285  1.00  0.00     0.000 C 
HETATM   37  C21 UNL     1      18.471  27.963  11.159  1.00  0.00     0.002 C 
HETATM   38  C22 UNL     1      18.992  29.325  11.698  1.00  0.00     0.025 C 
ENDBRANCH   1  33
TORSDOF 18
ENDMDL
MODEL 3
REMARK VINA RESULT: -6.973873836      3.993      9.768
REMARK  18 active torsions:
REMARK  status: ('A' for Active; 'I' for Inactive)
REMARK    1  A    between atoms: N1_2  and  C2_3 
REMARK    2  A    between atoms: N1_2  and  C23_30 
REMARK    3  A    between atoms: C2_3  and  C3_4 
REMARK    4  A    between atoms: C3_4  and  C4_5 
REMARK    5  A    between atoms: C4_5  and  C5_6 
REMARK    6  A    between atoms: C5_6  and  C6_7 
REMARK    7  A    between atoms: C6_7  and  C7_8 
REMARK    8  A    between atoms: C7_8  and  C8_9 
REMARK    9  A    between atoms: C8_9  and  N2_10 
REMARK   10  A    between atoms: N2_10  and  C9_11 
REMARK   11  A    between atoms: N2_10  and  C17_24 
REMARK   12  A    between atoms: C9_11  and  N3_13 
REMARK   13  A    between atoms: N3_13  and  C10_15 
REMARK   14  A    between atoms: C10_15  and  C11_16 
REMARK   15  A    between atoms: C11_16  and  C12_17 
REMARK   16  A    between atoms: C12_17  and  N4_18 
REMARK   17  A    between atoms: C23_30  and  C24_31 
REMARK   18  A    between atoms: C24_31  and  N5_32 
ROOT
HETATM    1  N2  UNL     1      19.183  31.853  14.803  1.00  0.00    -0.353 N 
ENDROOT
BRANCH   1   2
HETATM    2  C8  UNL     1      18.242  31.058  14.016  1.00  0.00     0.125 C 
BRANCH   2   3
HETATM    3  C7  UNL     1      18.703  30.774  12.631  1.00  0.00     0.020 C 
BRANCH   3   4
HETATM    4  C6  UNL     1      18.195  29.436  12.179  1.00  0.00     0.002 C 
BRANCH   4   5
HETATM    5  C5  UNL     1      17.819  28.594  13.345  1.00  0.00     0.000 C 
BRANCH   5   6
HETATM    6  C4  UNL     1      17.800  27.114  12.964  1.00  0.00     0.005 C 
BRANCH   6   7
HETATM    7  C3  UNL     1      18.716  26.888  11.828  1.00  0.00     0.044 C 
BRANCH   7   8
HETATM    8  C2  UNL     1      18.778  25.564  11.169  1.00  0.00     0.057 C 
BRANCH   8   9
HETATM    9  N1  UNL     1      17.842  25.260  10.162  1.00  0.00    -0.396 N 
HETATM   10  C1  UNL     1      17.864  23.985   9.612  1.00  0.00     0.148 C 
BRANCH   9  11
HETATM   11  C23 UNL     1      17.493  26.343   9.305  1.00  0.00     0.151 C 
BRANCH  11  12
HETATM   12  C24 UNL     1      17.566  26.055   7.831  1.00  0.00     0.292 C 
BRANCH  12  13
HETATM   13  N5  UNL     1      18.664  26.698   7.184  1.00  0.00     0.093 N 
HETATM   14  C25 UNL     1      19.615  25.832   6.564  1.00  0.00     0.302 C 
HETATM   15  C26 UNL     1      18.979  25.164   5.374  1.00  0.00     0.302 C 
HETATM   16  N6  UNL     1      18.628  26.189   4.410  1.00  0.00     0.087 N 
HETATM   17  C27 UNL     1      17.943  25.616   3.271  1.00  0.00     0.310 C 
HETATM   18  C28 UNL     1      17.806  27.218   4.972  1.00  0.00     0.302 C 
HETATM   19  C29 UNL     1      18.285  27.742   6.289  1.00  0.00     0.302 C 
ENDBRANCH  12  13
ENDBRANCH  11  12
ENDBRANCH   9  11
ENDBRANCH   8   9
ENDBRANCH   7   8
ENDBRANCH   6   7
ENDBRANCH   5   6
ENDBRANCH   4   5
ENDBRANCH   3   4
ENDBRANCH   2   3
ENDBRANCH   1   2
BRANCH   1  20
HETATM   20  C9  UNL     1      20.505  31.362  14.956  1.00  0.00     0.174 C 
HETATM   21  S1  UNL     1      21.752  32.361  14.668  1.00  0.00    -0.041 SA
BRANCH  20  22
HETATM   22  N3  UNL     1      20.787  30.043  15.322  1.00  0.00    -0.343 N 
ATOM     23  H3  UNL     1      20.687  29.885  16.325  1.00  0.00     0.167 HD
BRANCH  22  24
HETATM   24  C10 UNL     1      21.177  28.877  14.629  1.00  0.00     0.088 C 
BRANCH  24  25
HETATM   25  C11 UNL     1      22.176  28.877  13.571  1.00  0.00     0.020 C 
BRANCH  25  26
HETATM   26  C12 UNL     1      21.922  28.622  12.157  1.00  0.00     0.301 C 
BRANCH  26  27
HETATM   27  N4  UNL     1      22.878  27.751  11.485  1.00  0.00     0.096 N 
HETATM   28  C13 UNL     1      22.371  26.392  11.396  1.00  0.00     0.299 C 
HETATM   29  C14 UNL     1      23.427  25.523  10.744  1.00  0.00     0.198 C 
HETATM   30  O1  UNL     1      24.519  25.493  11.604  1.00  0.00    -0.388 OA
HETATM   31  C15 UNL     1      25.095  26.733  11.722  1.00  0.00     0.198 C 
HETATM   32  C16 UNL     1      24.133  27.791  12.214  1.00  0.00     0.299 C 
ENDBRANCH  26  27
ENDBRANCH  25  26
ENDBRANCH  24  25
ENDBRANCH  22  24
ENDBRANCH  20  22
ENDBRANCH   1  20
BRANCH   1  33
HETATM   33  C17 UNL     1      18.661  33.044  15.437  1.00  0.00     0.086 C 
HETATM   34  C18 UNL     1      17.784  32.728  16.644  1.00  0.00     0.025 C 
HETATM   35  C19 UNL     1      16.403  32.305  16.272  1.00  0.00     0.002 C 
HETATM   36  C20 UNL     1      15.653  33.569  15.857  1.00  0.00     0.000 C 
HETATM   37  C21 UNL     1      16.646  34.571  15.352  1.00  0.00     0.002 C 
HETATM   38  C22 UNL     1      17.762  33.862  14.535  1.00  0.00     0.025 C 
ENDBRANCH   1  33
TORSDOF 18
ENDMDL
MODEL 4
REMARK VINA RESULT: -6.947179130      3.556     11.066
REMARK  18 active torsions:
REMARK  status: ('A' for Active; 'I' for Inactive)
REMARK    1  A    between atoms: N1_2  and  C2_3 
REMARK    2  A    between atoms: N1_2  and  C23_30 
REMARK    3  A    between atoms: C2_3  and  C3_4 
REMARK    4  A    between atoms: C3_4  and  C4_5 
REMARK    5  A    between atoms: C4_5  and  C5_6 
REMARK    6  A    between atoms: C5_6  and  C6_7 
REMARK    7  A    between atoms: C6_7  and  C7_8 
REMARK    8  A    between atoms: C7_8  and  C8_9 
REMARK    9  A    between atoms: C8_9  and  N2_10 
REMARK   10  A    between atoms: N2_10  and  C9_11 
REMARK   11  A    between atoms: N2_10  and  C17_24 
REMARK   12  A    between atoms: C9_11  and  N3_13 
REMARK   13  A    between atoms: N3_13  and  C10_15 
REMARK   14  A    between atoms: C10_15  and  C11_16 
REMARK   15  A    between atoms: C11_16  and  C12_17 
REMARK   16  A    between atoms: C12_17  and  N4_18 
REMARK   17  A    between atoms: C23_30  and  C24_31 
REMARK   18  A    between atoms: C24_31  and  N5_32 
ROOT
HETATM    1  N2  UNL     1      20.986  30.667  13.867  1.00  0.00    -0.353 N 
ENDROOT
BRANCH   1   2
HETATM    2  C8  UNL     1      21.551  30.668  12.519  1.00  0.00     0.125 C 
BRANCH   2   3
HETATM    3  C7  UNL     1      21.670  29.314  11.914  1.00  0.00     0.020 C 
BRANCH   3   4
HETATM    4  C6  UNL     1      22.735  28.523  12.617  1.00  0.00     0.002 C 
BRANCH   4   5
HETATM    5  C5  UNL     1      22.993  27.242  11.908  1.00  0.00     0.000 C 
BRANCH   5   6
HETATM    6  C4  UNL     1      24.489  26.933  11.869  1.00  0.00     0.005 C 
BRANCH   6   7
HETATM    7  C3  UNL     1      24.789  26.108  10.682  1.00  0.00     0.044 C 
BRANCH   7   8
HETATM    8  C2  UNL     1      23.828  26.039   9.557  1.00  0.00     0.057 C 
BRANCH   8   9
HETATM    9  N1  UNL     1      23.266  24.793   9.218  1.00  0.00    -0.396 N 
HETATM   10  C1  UNL     1      24.056  23.889   8.520  1.00  0.00     0.148 C 
BRANCH   9  11
HETATM   11  C23 UNL     1      21.871  24.808   8.933  1.00  0.00     0.151 C 
BRANCH  11  12
HETATM   12  C24 UNL     1      20.963  24.850  10.131  1.00  0.00     0.292 C 
BRANCH  12  13
HETATM   13  N5  UNL     1      19.582  24.707   9.797  1.00  0.00     0.093 N 
HETATM   14  C25 UNL     1      18.672  24.719  10.897  1.00  0.00     0.302 C 
HETATM   15  C26 UNL     1      18.642  26.096  11.504  1.00  0.00     0.302 C 
HETATM   16  N6  UNL     1      18.137  27.022  10.510  1.00  0.00     0.087 N 
HETATM   17  C27 UNL     1      18.154  28.380  11.011  1.00  0.00     0.310 C 
HETATM   18  C28 UNL     1      18.876  26.974   9.285  1.00  0.00     0.302 C 
HETATM   19  C29 UNL     1      19.134  25.593   8.772  1.00  0.00     0.302 C 
ENDBRANCH  12  13
ENDBRANCH  11  12
ENDBRANCH   9  11
ENDBRANCH   8   9
ENDBRANCH   7   8
ENDBRANCH   6   7
ENDBRANCH   5   6
ENDBRANCH   4   5
ENDBRANCH   3   4
ENDBRANCH   2   3
ENDBRANCH   1   2
BRANCH   1  20
HETATM   20  C9  UNL     1      19.625  30.298  14.019  1.00  0.00     0.174 C 
HETATM   21  S1  UNL     1      19.270  28.864  14.691  1.00  0.00    -0.041 SA
BRANCH  20  22
HETATM   22  N3  UNL     1      18.567  31.106  13.592  1.00  0.00    -0.343 N 
ATOM     23  H3  UNL     1      18.712  31.476  12.652  1.00  0.00     0.167 HD
BRANCH  22  24
HETATM   24  C10 UNL     1      17.346  31.530  14.156  1.00  0.00     0.088 C 
BRANCH  24  25
HETATM   25  C11 UNL     1      17.263  32.484  15.251  1.00  0.00     0.020 C 
BRANCH  25  26
HETATM   26  C12 UNL     1      17.231  33.937  15.118  1.00  0.00     0.301 C 
BRANCH  26  27
HETATM   27  N4  UNL     1      16.645  34.666  16.235  1.00  0.00     0.096 N 
HETATM   28  C13 UNL     1      17.570  34.735  17.354  1.00  0.00     0.299 C 
HETATM   29  C14 UNL     1      16.888  35.450  18.503  1.00  0.00     0.198 C 
HETATM   30  O1  UNL     1      15.823  34.652  18.905  1.00  0.00    -0.388 OA
HETATM   31  C15 UNL     1      14.870  34.559  17.922  1.00  0.00     0.198 C 
HETATM   32  C16 UNL     1      15.410  34.008  16.621  1.00  0.00     0.299 C 
ENDBRANCH  26  27
ENDBRANCH  25  26
ENDBRANCH  24  25
ENDBRANCH  22  24
ENDBRANCH  20  22
ENDBRANCH   1  20
BRANCH   1  33
HETATM   33  C17 UNL     1      21.846  31.127  14.935  1.00  0.00     0.086 C 
HETATM   34  C18 UNL     1      21.088  31.909  16.002  1.00  0.00     0.025 C 
HETATM   35  C19 UNL     1      20.805  33.319  15.605  1.00  0.00     0.002 C 
HETATM   36  C20 UNL     1      22.117  34.088  15.747  1.00  0.00     0.000 C 
HETATM   37  C21 UNL     1      23.255  33.128  15.577  1.00  0.00     0.002 C 
HETATM   38  C22 UNL     1      22.922  32.086  14.472  1.00  0.00     0.025 C 
ENDBRANCH   1  33
TORSDOF 18
ENDMDL
MODEL 5
REMARK VINA RESULT: -6.937554708      3.645     10.523
REMARK  18 active torsions:
REMARK  status: ('A' for Active; 'I' for Inactive)
REMARK    1  A    between atoms: N1_2  and  C2_3 
REMARK    2  A    between atoms: N1_2  and  C23_30 
REMARK    3  A    between atoms: C2_3  and  C3_4 
REMARK    4  A    between atoms: C3_4  and  C4_5 
REMARK    5  A    between atoms: C4_5  and  C5_6 
REMARK    6  A    between atoms: C5_6  and  C6_7 
REMARK    7  A    between atoms: C6_7  and  C7_8 
REMARK    8  A    between atoms: C7_8  and  C8_9 
REMARK    9  A    between atoms: C8_9  and  N2_10 
REMARK   10  A    between atoms: N2_10  and  C9_11 
REMARK   11  A    between atoms: N2_10  and  C17_24 
REMARK   12  A    between atoms: C9_11  and  N3_13 
REMARK   13  A    between atoms: N3_13  and  C10_15 
REMARK   14  A    between atoms: C10_15  and  C11_16 
REMARK   15  A    between atoms: C11_16  and  C12_17 
REMARK   16  A    between atoms: C12_17  and  N4_18 
REMARK   17  A    between atoms: C23_30  and  C24_31 
REMARK   18  A    between atoms: C24_31  and  N5_32 
ROOT
HETATM    1  N2  UNL     1      19.513  30.903  13.901  1.00  0.00    -0.353 N 
ENDROOT
BRANCH   1   2
HETATM    2  C8  UNL     1      19.005  30.496  12.592  1.00  0.00     0.125 C 
BRANCH   2   3
HETATM    3  C7  UNL     1      17.530  30.315  12.547  1.00  0.00     0.020 C 
BRANCH   3   4
HETATM    4  C6  UNL     1      17.179  29.112  11.719  1.00  0.00     0.002 C 
BRANCH   4   5
HETATM    5  C5  UNL     1      18.403  28.492  11.147  1.00  0.00     0.000 C 
BRANCH   5   6
HETATM    6  C4  UNL     1      18.101  27.836   9.800  1.00  0.00     0.005 C 
BRANCH   6   7
HETATM    7  C3  UNL     1      18.021  26.372   9.975  1.00  0.00     0.044 C 
BRANCH   7   8
HETATM    8  C2  UNL     1      18.253  25.468   8.825  1.00  0.00     0.057 C 
BRANCH   8   9
HETATM    9  N1  UNL     1      19.484  25.536   8.144  1.00  0.00    -0.396 N 
HETATM   10  C1  UNL     1      19.468  25.887   6.801  1.00  0.00     0.148 C 
BRANCH   9  11
HETATM   11  C23 UNL     1      20.472  24.604   8.572  1.00  0.00     0.151 C 
BRANCH  11  12
HETATM   12  C24 UNL     1      21.825  25.184   8.876  1.00  0.00     0.292 C 
BRANCH  12  13
HETATM   13  N5  UNL     1      22.320  24.815  10.163  1.00  0.00     0.093 N 
HETATM   14  C25 UNL     1      23.605  25.334  10.508  1.00  0.00     0.302 C 
HETATM   15  C26 UNL     1      23.507  26.824  10.694  1.00  0.00     0.302 C 
HETATM   16  N6  UNL     1      22.618  27.087  11.808  1.00  0.00     0.087 N 
HETATM   17  C27 UNL     1      22.423  28.509  11.992  1.00  0.00     0.310 C 
HETATM   18  C28 UNL     1      21.338  26.464  11.652  1.00  0.00     0.302 C 
HETATM   19  C29 UNL     1      21.395  25.030  11.229  1.00  0.00     0.302 C 
ENDBRANCH  12  13
ENDBRANCH  11  12
ENDBRANCH   9  11
ENDBRANCH   8   9
ENDBRANCH   7   8
ENDBRANCH   6   7
ENDBRANCH   5   6
ENDBRANCH   4   5
ENDBRANCH   3   4
ENDBRANCH   2   3
ENDBRANCH   1   2
BRANCH   1  20
HETATM   20  C9  UNL     1      19.201  30.089  15.019  1.00  0.00     0.174 C 
HETATM   21  S1  UNL     1      20.174  28.841  15.379  1.00  0.00    -0.041 SA
BRANCH  20  22
HETATM   22  N3  UNL     1      18.073  30.298  15.818  1.00  0.00    -0.343 N 
ATOM     23  H3  UNL     1      17.610  29.426  16.077  1.00  0.00     0.167 HD
BRANCH  22  24
HETATM   24  C10 UNL     1      17.424  31.432  16.350  1.00  0.00     0.088 C 
BRANCH  24  25
HETATM   25  C11 UNL     1      16.710  32.399  15.530  1.00  0.00     0.020 C 
BRANCH  25  26
HETATM   26  C12 UNL     1      17.041  33.814  15.394  1.00  0.00     0.301 C 
BRANCH  26  27
HETATM   27  N4  UNL     1      16.503  34.695  16.422  1.00  0.00     0.096 N 
HETATM   28  C13 UNL     1      17.402  34.775  17.562  1.00  0.00     0.299 C 
HETATM   29  C14 UNL     1      16.766  35.655  18.619  1.00  0.00     0.198 C 
HETATM   30  O1  UNL     1      15.616  35.005  19.054  1.00  0.00    -0.388 OA
HETATM   31  C15 UNL     1      14.685  34.916  18.051  1.00  0.00     0.198 C 
HETATM   32  C16 UNL     1      15.199  34.198  16.823  1.00  0.00     0.299 C 
ENDBRANCH  26  27
ENDBRANCH  25  26
ENDBRANCH  24  25
ENDBRANCH  22  24
ENDBRANCH  20  22
ENDBRANCH   1  20
BRANCH   1  33
HETATM   33  C17 UNL     1      20.229  32.159  13.961  1.00  0.00     0.086 C 
HETATM   34  C18 UNL     1      21.616  32.073  13.333  1.00  0.00     0.025 C 
HETATM   35  C19 UNL     1      22.627  31.438  14.228  1.00  0.00     0.002 C 
HETATM   36  C20 UNL     1      22.995  32.480  15.284  1.00  0.00     0.000 C 
HETATM   37  C21 UNL     1      21.837  33.415  15.457  1.00  0.00     0.002 C 
HETATM   38  C22 UNL     1      20.495  32.634  15.373  1.00  0.00     0.025 C 
ENDBRANCH   1  33
TORSDOF 18
ENDMDL
