MODEL 1
REMARK VINA RESULT: -7.999168374      0.000      0.000
REMARK  17 active torsions:
REMARK  status: ('A' for Active; 'I' for Inactive)
REMARK    1  A    between atoms: O1_2  and  C2_3 
REMARK    2  A    between atoms: C2_3  and  C3_4 
REMARK    3  A    between atoms: C3_4  and  C4_5 
REMARK    4  A    between atoms: C4_5  and  C5_6 
REMARK    5  A    between atoms: C5_6  and  N1_7 
REMARK    6  A    between atoms: N1_7  and  C6_8 
REMARK       I    between atoms: N1_7  and  C23_30 
REMARK    7  A    between atoms: C6_8  and  C7_9 
REMARK    8  A    between atoms: C7_9  and  O2_10 
REMARK    9  A    between atoms: O2_10  and  C8_11 
REMARK   10  A    between atoms: C8_11  and  C9_12 
REMARK   11  A    between atoms: C9_12  and  O3_13 
REMARK   12  A    between atoms: O3_13  and  C10_14 
REMARK   13  A    between atoms: C10_14  and  C11_15 
REMARK   14  A    between atoms: C11_15  and  N2_16 
REMARK   15  A    between atoms: N2_16  and  C12_18 
REMARK   16  A    between atoms: C12_18  and  C13_20 
REMARK   17  A    between atoms: C23_30  and  C24_32 
ROOT
HETATM    1  O2  UNL     1      21.800  32.273  13.300  1.00  0.00    -0.387 OA
ENDROOT
BRANCH   1   2
HETATM    2  C7  UNL     1      20.586  31.639  13.057  1.00  0.00     0.187 C 
BRANCH   2   3
HETATM    3  C6  UNL     1      20.524  30.308  13.721  1.00  0.00     0.152 C 
BRANCH   3   4
HETATM    4  N1  UNL     1      20.333  29.197  12.770  1.00  0.00    -0.345 N 
HETATM    5  C23 UNL     1      19.104  28.542  12.829  1.00  0.00     0.271 C 
HETATM    6  O4  UNL     1      18.220  28.937  13.692  1.00  0.00    -0.266 OA
BRANCH   4   7
HETATM    7  C5  UNL     1      21.382  28.849  11.865  1.00  0.00     0.126 C 
BRANCH   7   8
HETATM    8  C4  UNL     1      22.601  28.246  12.530  1.00  0.00     0.022 C 
BRANCH   8   9
HETATM    9  C3  UNL     1      23.553  27.787  11.438  1.00  0.00     0.028 C 
BRANCH   9  10
HETATM   10  C2  UNL     1      24.737  27.069  12.012  1.00  0.00     0.167 C 
BRANCH  10  11
HETATM   11  O1  UNL     1      24.682  25.715  11.797  1.00  0.00    -0.396 OA
HETATM   12  C1  UNL     1      24.314  25.349  10.521  1.00  0.00     0.201 C 
ENDBRANCH  10  11
ENDBRANCH   9  10
ENDBRANCH   8   9
ENDBRANCH   7   8
ENDBRANCH   4   7
BRANCH   5  13
HETATM   13  C24 UNL     1      18.717  27.438  11.994  1.00  0.00     0.117 A 
HETATM   14  C25 UNL     1      18.208  27.549  10.686  1.00  0.00     0.062 A 
HETATM   15  C26 UNL     1      17.949  26.301  10.199  1.00  0.00     0.024 A 
HETATM   16  C27 UNL     1      17.397  25.986   8.844  1.00  0.00     0.070 C 
HETATM   17  N3  UNL     1      18.287  25.445  11.173  1.00  0.00    -0.305 N 
HETATM   18  N4  UNL     1      18.730  26.122  12.207  1.00  0.00    -0.295 N 
ATOM     19  H3  UNL     1      18.211  24.429  11.119  1.00  0.00     0.186 HD
ATOM     20  H4  UNL     1      19.049  25.690  13.074  1.00  0.00     0.187 HD
ENDBRANCH   5  13
ENDBRANCH   3   4
ENDBRANCH   2   3
ENDBRANCH   1   2
BRANCH   1  21
HETATM   21  C8  UNL     1      22.393  31.796  14.469  1.00  0.00     0.193 C 
BRANCH  21  22
HETATM   22  C9  UNL     1      23.539  32.714  14.815  1.00  0.00     0.193 C 
BRANCH  22  23
HETATM   23  O3  UNL     1      23.377  33.423  15.970  1.00  0.00    -0.387 OA
BRANCH  23  24
HETATM   24  C10 UNL     1      22.286  34.251  16.003  1.00  0.00     0.187 C 
BRANCH  24  25
HETATM   25  C11 UNL     1      21.936  34.463  17.474  1.00  0.00     0.146 C 
BRANCH  25  26
HETATM   26  N2  UNL     1      20.718  33.824  17.838  1.00  0.00    -0.382 N 
ATOM     27  H2  UNL     1      20.830  32.901  18.255  1.00  0.00     0.160 HD
BRANCH  26  28
HETATM   28  C12 UNL     1      19.399  34.251  17.718  1.00  0.00     0.082 C 
HETATM   29  S1  UNL     1      18.897  35.374  18.855  1.00  0.00    -0.065 SA
BRANCH  28  30
HETATM   30  C13 UNL     1      18.376  33.868  16.742  1.00  0.00     0.014 C 
HETATM   31  C14 UNL     1      18.713  34.106  15.310  1.00  0.00     0.021 C 
HETATM   32  C15 UNL     1      17.535  33.711  14.437  1.00  0.00    -0.013 C 
HETATM   33  C16 UNL     1      16.336  34.551  14.836  1.00  0.00     0.009 C 
HETATM   34  C20 UNL     1      17.255  32.232  14.526  1.00  0.00     0.009 C 
HETATM   35  C17 UNL     1      15.923  34.148  16.216  1.00  0.00    -0.013 C 
HETATM   36  C18 UNL     1      15.692  32.649  16.339  1.00  0.00     0.009 C 
HETATM   37  C22 UNL     1      17.051  34.469  17.176  1.00  0.00     0.021 C 
HETATM   38  C19 UNL     1      16.969  31.955  16.001  1.00  0.00    -0.013 C 
HETATM   39  C21 UNL     1      18.136  32.341  16.844  1.00  0.00     0.021 C 
ENDBRANCH  28  30
ENDBRANCH  26  28
ENDBRANCH  25  26
ENDBRANCH  24  25
ENDBRANCH  23  24
ENDBRANCH  22  23
ENDBRANCH  21  22
ENDBRANCH   1  21
TORSDOF 17
ENDMDL
MODEL 2
REMARK VINA RESULT: -7.990641177      1.239      1.828
REMARK  17 active torsions:
REMARK  status: ('A' for Active; 'I' for Inactive)
REMARK    1  A    between atoms: O1_2  and  C2_3 
REMARK    2  A    between atoms: C2_3  and  C3_4 
REMARK    3  A    between atoms: C3_4  and  C4_5 
REMARK    4  A    between atoms: C4_5  and  C5_6 
REMARK    5  A    between atoms: C5_6  and  N1_7 
REMARK    6  A    between atoms: N1_7  and  C6_8 
REMARK       I    between atoms: N1_7  and  C23_30 
REMARK    7  A    between atoms: C6_8  and  C7_9 
REMARK    8  A    between atoms: C7_9  and  O2_10 
REMARK    9  A    between atoms: O2_10  and  C8_11 
REMARK   10  A    between atoms: C8_11  and  C9_12 
REMARK   11  A    between atoms: C9_12  and  O3_13 
REMARK   12  A    between atoms: O3_13  and  C10_14 
REMARK   13  A    between atoms: C10_14  and  C11_15 
REMARK   14  A    between atoms: C11_15  and  N2_16 
REMARK   15  A    between atoms: N2_16  and  C12_18 
REMARK   16  A    between atoms: C12_18  and  C13_20 
REMARK   17  A    between atoms: C23_30  and  C24_32 
ROOT
HETATM    1  O2  UNL     1      21.068  30.991  14.770  1.00  0.00    -0.387 OA
ENDROOT
BRANCH   1   2
HETATM    2  C7  UNL     1      20.172  29.983  14.428  1.00  0.00     0.187 C 
BRANCH   2   3
HETATM    3  C6  UNL     1      19.752  30.090  13.003  1.00  0.00     0.152 C 
BRANCH   3   4
HETATM    4  N1  UNL     1      19.919  28.829  12.257  1.00  0.00    -0.345 N 
HETATM    5  C23 UNL     1      18.919  28.524  11.334  1.00  0.00     0.271 C 
HETATM    6  O4  UNL     1      17.926  29.346  11.186  1.00  0.00    -0.266 OA
BRANCH   4   7
HETATM    7  C5  UNL     1      21.055  27.999  12.507  1.00  0.00     0.126 C 
BRANCH   7   8
HETATM    8  C4  UNL     1      22.331  28.480  11.850  1.00  0.00     0.022 C 
BRANCH   8   9
HETATM    9  C3  UNL     1      22.986  27.288  11.172  1.00  0.00     0.028 C 
BRANCH   9  10
HETATM   10  C2  UNL     1      24.248  26.886  11.874  1.00  0.00     0.167 C 
BRANCH  10  11
HETATM   11  O1  UNL     1      24.594  25.582  11.624  1.00  0.00    -0.396 OA
HETATM   12  C1  UNL     1      24.438  25.188  10.312  1.00  0.00     0.201 C 
ENDBRANCH  10  11
ENDBRANCH   9  10
ENDBRANCH   8   9
ENDBRANCH   7   8
ENDBRANCH   4   7
BRANCH   5  13
HETATM   13  C24 UNL     1      18.890  27.349  10.507  1.00  0.00     0.117 A 
HETATM   14  C25 UNL     1      18.262  26.134  10.845  1.00  0.00     0.062 A 
HETATM   15  C26 UNL     1      18.438  25.242   9.827  1.00  0.00     0.024 A 
HETATM   16  C27 UNL     1      17.925  23.837   9.796  1.00  0.00     0.070 C 
HETATM   17  N3  UNL     1      19.150  25.882   8.890  1.00  0.00    -0.305 N 
HETATM   18  N4  UNL     1      19.404  27.104   9.302  1.00  0.00    -0.295 N 
ATOM     19  H3  UNL     1      19.448  25.485   8.000  1.00  0.00     0.186 HD
ATOM     20  H4  UNL     1      19.933  27.787   8.761  1.00  0.00     0.187 HD
ENDBRANCH   5  13
ENDBRANCH   3   4
ENDBRANCH   2   3
ENDBRANCH   1   2
BRANCH   1  21
HETATM   21  C8  UNL     1      21.393  31.774  13.664  1.00  0.00     0.193 C 
BRANCH  21  22
HETATM   22  C9  UNL     1      22.529  32.686  14.059  1.00  0.00     0.193 C 
BRANCH  22  23
HETATM   23  O3  UNL     1      23.091  32.408  15.272  1.00  0.00    -0.387 OA
BRANCH  23  24
HETATM   24  C10 UNL     1      23.115  33.450  16.161  1.00  0.00     0.187 C 
BRANCH  24  25
HETATM   25  C11 UNL     1      22.507  32.934  17.464  1.00  0.00     0.146 C 
BRANCH  25  26
HETATM   26  N2  UNL     1      21.112  32.682  17.346  1.00  0.00    -0.382 N 
ATOM     27  H2  UNL     1      20.852  31.697  17.389  1.00  0.00     0.160 HD
BRANCH  26  28
HETATM   28  C12 UNL     1      20.043  33.558  17.183  1.00  0.00     0.082 C 
HETATM   29  S1  UNL     1      20.272  35.100  17.796  1.00  0.00    -0.065 SA
BRANCH  28  30
HETATM   30  C13 UNL     1      18.740  33.337  16.551  1.00  0.00     0.014 C 
HETATM   31  C14 UNL     1      18.173  31.964  16.679  1.00  0.00     0.021 C 
HETATM   32  C15 UNL     1      16.856  31.885  15.926  1.00  0.00    -0.013 C 
HETATM   33  C16 UNL     1      17.114  32.209  14.467  1.00  0.00     0.009 C 
HETATM   34  C20 UNL     1      15.817  32.790  16.540  1.00  0.00     0.009 C 
HETATM   35  C17 UNL     1      17.506  33.649  14.371  1.00  0.00    -0.013 C 
HETATM   36  C18 UNL     1      16.497  34.573  15.036  1.00  0.00     0.009 C 
HETATM   37  C22 UNL     1      18.806  33.851  15.124  1.00  0.00     0.021 C 
HETATM   38  C19 UNL     1      16.406  34.198  16.478  1.00  0.00    -0.013 C 
HETATM   39  C21 UNL     1      17.695  34.261  17.225  1.00  0.00     0.021 C 
ENDBRANCH  28  30
ENDBRANCH  26  28
ENDBRANCH  25  26
ENDBRANCH  24  25
ENDBRANCH  23  24
ENDBRANCH  22  23
ENDBRANCH  21  22
ENDBRANCH   1  21
TORSDOF 17
ENDMDL
MODEL 3
REMARK VINA RESULT: -7.818353385      1.317      1.511
REMARK  17 active torsions:
REMARK  status: ('A' for Active; 'I' for Inactive)
REMARK    1  A    between atoms: O1_2  and  C2_3 
REMARK    2  A    between atoms: C2_3  and  C3_4 
REMARK    3  A    between atoms: C3_4  and  C4_5 
REMARK    4  A    between atoms: C4_5  and  C5_6 
REMARK    5  A    between atoms: C5_6  and  N1_7 
REMARK    6  A    between atoms: N1_7  and  C6_8 
REMARK       I    between atoms: N1_7  and  C23_30 
REMARK    7  A    between atoms: C6_8  and  C7_9 
REMARK    8  A    between atoms: C7_9  and  O2_10 
REMARK    9  A    between atoms: O2_10  and  C8_11 
REMARK   10  A    between atoms: C8_11  and  C9_12 
REMARK   11  A    between atoms: C9_12  and  O3_13 
REMARK   12  A    between atoms: O3_13  and  C10_14 
REMARK   13  A    between atoms: C10_14  and  C11_15 
REMARK   14  A    between atoms: C11_15  and  N2_16 
REMARK   15  A    between atoms: N2_16  and  C12_18 
REMARK   16  A    between atoms: C12_18  and  C13_20 
REMARK   17  A    between atoms: C23_30  and  C24_32 
ROOT
HETATM    1  O2  UNL     1      20.096  30.923  13.899  1.00  0.00    -0.387 OA
ENDROOT
BRANCH   1   2
HETATM    2  C7  UNL     1      19.243  29.832  13.768  1.00  0.00     0.187 C 
BRANCH   2   3
HETATM    3  C6  UNL     1      20.003  28.566  13.571  1.00  0.00     0.152 C 
BRANCH   3   4
HETATM    4  N1  UNL     1      20.242  28.253  12.150  1.00  0.00    -0.345 N 
HETATM    5  C23 UNL     1      19.255  27.502  11.512  1.00  0.00     0.271 C 
HETATM    6  O4  UNL     1      18.210  27.134  12.186  1.00  0.00    -0.266 OA
BRANCH   4   7
HETATM    7  C5  UNL     1      21.436  28.710  11.512  1.00  0.00     0.126 C 
BRANCH   7   8
HETATM    8  C4  UNL     1      22.710  28.340  12.242  1.00  0.00     0.022 C 
BRANCH   8   9
HETATM    9  C3  UNL     1      23.609  27.598  11.267  1.00  0.00     0.028 C 
BRANCH   9  10
HETATM   10  C2  UNL     1      24.660  26.809  11.987  1.00  0.00     0.167 C 
BRANCH  10  11
HETATM   11  O1  UNL     1      24.664  25.486  11.621  1.00  0.00    -0.396 OA
HETATM   12  C1  UNL     1      24.307  25.252  10.311  1.00  0.00     0.201 C 
ENDBRANCH  10  11
ENDBRANCH   9  10
ENDBRANCH   8   9
ENDBRANCH   7   8
ENDBRANCH   4   7
BRANCH   5  13
HETATM   13  C24 UNL     1      19.294  27.089  10.136  1.00  0.00     0.117 A 
HETATM   14  C25 UNL     1      18.427  27.551   9.126  1.00  0.00     0.062 A 
HETATM   15  C26 UNL     1      18.753  26.946   7.947  1.00  0.00     0.024 A 
HETATM   16  C27 UNL     1      18.071  27.163   6.633  1.00  0.00     0.070 C 
HETATM   17  N3  UNL     1      19.786  26.136   8.217  1.00  0.00    -0.305 N 
HETATM   18  N4  UNL     1      20.086  26.233   9.492  1.00  0.00    -0.295 N 
ATOM     19  H3  UNL     1      20.263  25.540   7.541  1.00  0.00     0.186 HD
ATOM     20  H4  UNL     1      20.841  25.711   9.939  1.00  0.00     0.187 HD
ENDBRANCH   5  13
ENDBRANCH   3   4
ENDBRANCH   2   3
ENDBRANCH   1   2
BRANCH   1  21
HETATM   21  C8  UNL     1      21.149  30.638  14.767  1.00  0.00     0.193 C 
BRANCH  21  22
HETATM   22  C9  UNL     1      22.319  31.507  14.377  1.00  0.00     0.193 C 
BRANCH  22  23
HETATM   23  O3  UNL     1      23.062  31.971  15.424  1.00  0.00    -0.387 OA
BRANCH  23  24
HETATM   24  C10 UNL     1      22.848  33.281  15.762  1.00  0.00     0.187 C 
BRANCH  24  25
HETATM   25  C11 UNL     1      22.445  33.298  17.235  1.00  0.00     0.146 C 
BRANCH  25  26
HETATM   26  N2  UNL     1      21.044  33.131  17.414  1.00  0.00    -0.382 N 
ATOM     27  H2  UNL     1      20.765  32.211  17.755  1.00  0.00     0.160 HD
BRANCH  26  28
HETATM   28  C12 UNL     1      19.990  34.014  17.200  1.00  0.00     0.082 C 
HETATM   29  S1  UNL     1      20.184  35.543  17.858  1.00  0.00    -0.065 SA
BRANCH  28  30
HETATM   30  C13 UNL     1      18.729  33.812  16.481  1.00  0.00     0.014 C 
HETATM   31  C14 UNL     1      18.811  33.839  14.993  1.00  0.00     0.021 C 
HETATM   32  C15 UNL     1      17.421  33.673  14.404  1.00  0.00    -0.013 C 
HETATM   33  C16 UNL     1      16.547  34.809  14.900  1.00  0.00     0.009 C 
HETATM   34  C20 UNL     1      16.843  32.319  14.733  1.00  0.00     0.009 C 
HETATM   35  C17 UNL     1      16.346  34.635  16.371  1.00  0.00    -0.013 C 
HETATM   36  C18 UNL     1      15.817  33.254  16.727  1.00  0.00     0.009 C 
HETATM   37  C22 UNL     1      17.689  34.751  17.064  1.00  0.00     0.021 C 
HETATM   38  C19 UNL     1      16.810  32.243  16.258  1.00  0.00    -0.013 C 
HETATM   39  C21 UNL     1      18.182  32.403  16.821  1.00  0.00     0.021 C 
ENDBRANCH  28  30
ENDBRANCH  26  28
ENDBRANCH  25  26
ENDBRANCH  24  25
ENDBRANCH  23  24
ENDBRANCH  22  23
ENDBRANCH  21  22
ENDBRANCH   1  21
TORSDOF 17
ENDMDL
MODEL 4
REMARK VINA RESULT: -7.814024347      1.165      1.716
REMARK  17 active torsions:
REMARK  status: ('A' for Active; 'I' for Inactive)
REMARK    1  A    between atoms: O1_2  and  C2_3 
REMARK    2  A    between atoms: C2_3  and  C3_4 
REMARK    3  A    between atoms: C3_4  and  C4_5 
REMARK    4  A    between atoms: C4_5  and  C5_6 
REMARK    5  A    between atoms: C5_6  and  N1_7 
REMARK    6  A    between atoms: N1_7  and  C6_8 
REMARK       I    between atoms: N1_7  and  C23_30 
REMARK    7  A    between atoms: C6_8  and  C7_9 
REMARK    8  A    between atoms: C7_9  and  O2_10 
REMARK    9  A    between atoms: O2_10  and  C8_11 
REMARK   10  A    between atoms: C8_11  and  C9_12 
REMARK   11  A    between atoms: C9_12  and  O3_13 
REMARK   12  A    between atoms: O3_13  and  C10_14 
REMARK   13  A    between atoms: C10_14  and  C11_15 
REMARK   14  A    between atoms: C11_15  and  N2_16 
REMARK   15  A    between atoms: N2_16  and  C12_18 
REMARK   16  A    between atoms: C12_18  and  C13_20 
REMARK   17  A    between atoms: C23_30  and  C24_32 
ROOT
HETATM    1  O2  UNL     1      21.078  31.112  14.828  1.00  0.00    -0.387 OA
ENDROOT
BRANCH   1   2
HETATM    2  C7  UNL     1      20.221  30.213  14.201  1.00  0.00     0.187 C 
BRANCH   2   3
HETATM    3  C6  UNL     1      20.445  30.183  12.729  1.00  0.00     0.152 C 
BRANCH   3   4
HETATM    4  N1  UNL     1      20.409  28.819  12.168  1.00  0.00    -0.345 N 
HETATM    5  C23 UNL     1      19.275  28.491  11.426  1.00  0.00     0.271 C 
HETATM    6  O4  UNL     1      18.343  29.379  11.273  1.00  0.00    -0.266 OA
BRANCH   4   7
HETATM    7  C5  UNL     1      21.496  27.923  12.406  1.00  0.00     0.126 C 
BRANCH   7   8
HETATM    8  C4  UNL     1      22.711  28.179  11.540  1.00  0.00     0.022 C 
BRANCH   8   9
HETATM    9  C3  UNL     1      23.948  27.862  12.364  1.00  0.00     0.028 C 
BRANCH   9  10
HETATM   10  C2  UNL     1      24.899  26.985  11.606  1.00  0.00     0.167 C 
BRANCH  10  11
HETATM   11  O1  UNL     1      24.519  25.667  11.619  1.00  0.00    -0.396 OA
HETATM   12  C1  UNL     1      24.343  25.107  10.372  1.00  0.00     0.201 C 
ENDBRANCH  10  11
ENDBRANCH   9  10
ENDBRANCH   8   9
ENDBRANCH   7   8
ENDBRANCH   4   7
BRANCH   5  13
HETATM   13  C24 UNL     1      19.042  27.221  10.796  1.00  0.00     0.117 A 
HETATM   14  C25 UNL     1      18.419  26.115  11.406  1.00  0.00     0.062 A 
HETATM   15  C26 UNL     1      18.368  25.082  10.515  1.00  0.00     0.024 A 
HETATM   16  C27 UNL     1      17.784  23.729  10.773  1.00  0.00     0.070 C 
HETATM   17  N3  UNL     1      18.941  25.533   9.390  1.00  0.00    -0.305 N 
HETATM   18  N4  UNL     1      19.326  26.776   9.572  1.00  0.00    -0.295 N 
ATOM     19  H3  UNL     1      19.059  24.997   8.531  1.00  0.00     0.186 HD
ATOM     20  H4  UNL     1      19.790  27.337   8.857  1.00  0.00     0.187 HD
ENDBRANCH   5  13
ENDBRANCH   3   4
ENDBRANCH   2   3
ENDBRANCH   1   2
BRANCH   1  21
HETATM   21  C8  UNL     1      22.379  30.991  14.342  1.00  0.00     0.193 C 
BRANCH  21  22
HETATM   22  C9  UNL     1      23.080  32.309  14.563  1.00  0.00     0.193 C 
BRANCH  22  23
HETATM   23  O3  UNL     1      22.266  33.334  14.949  1.00  0.00    -0.387 OA
BRANCH  23  24
HETATM   24  C10 UNL     1      22.693  34.046  16.039  1.00  0.00     0.187 C 
BRANCH  24  25
HETATM   25  C11 UNL     1      22.399  33.189  17.269  1.00  0.00     0.146 C 
BRANCH  25  26
HETATM   26  N2  UNL     1      21.005  32.995  17.473  1.00  0.00    -0.382 N 
ATOM     27  H2  UNL     1      20.740  32.043  17.723  1.00  0.00     0.160 HD
BRANCH  26  28
HETATM   28  C12 UNL     1      19.943  33.890  17.388  1.00  0.00     0.082 C 
HETATM   29  S1  UNL     1      20.135  35.323  18.235  1.00  0.00    -0.065 SA
BRANCH  28  30
HETATM   30  C13 UNL     1      18.674  33.772  16.664  1.00  0.00     0.014 C 
HETATM   31  C14 UNL     1      17.631  34.782  16.999  1.00  0.00     0.021 C 
HETATM   32  C15 UNL     1      16.367  34.488  16.211  1.00  0.00    -0.013 C 
HETATM   33  C16 UNL     1      15.882  33.098  16.576  1.00  0.00     0.009 C 
HETATM   34  C20 UNL     1      16.593  34.647  14.728  1.00  0.00     0.009 C 
HETATM   35  C17 UNL     1      16.876  32.107  16.059  1.00  0.00    -0.013 C 
HETATM   36  C18 UNL     1      17.161  32.289  14.576  1.00  0.00     0.009 C 
HETATM   37  C22 UNL     1      18.200  32.333  16.761  1.00  0.00     0.021 C 
HETATM   38  C19 UNL     1      17.707  33.663  14.374  1.00  0.00    -0.013 C 
HETATM   39  C21 UNL     1      18.943  33.967  15.151  1.00  0.00     0.021 C 
ENDBRANCH  28  30
ENDBRANCH  26  28
ENDBRANCH  25  26
ENDBRANCH  24  25
ENDBRANCH  23  24
ENDBRANCH  22  23
ENDBRANCH  21  22
ENDBRANCH   1  21
TORSDOF 17
ENDMDL
MODEL 5
REMARK VINA RESULT: -7.807879386      1.323      1.519
REMARK  17 active torsions:
REMARK  status: ('A' for Active; 'I' for Inactive)
REMARK    1  A    between atoms: O1_2  and  C2_3 
REMARK    2  A    between atoms: C2_3  and  C3_4 
REMARK    3  A    between atoms: C3_4  and  C4_5 
REMARK    4  A    between atoms: C4_5  and  C5_6 
REMARK    5  A    between atoms: C5_6  and  N1_7 
REMARK    6  A    between atoms: N1_7  and  C6_8 
REMARK       I    between atoms: N1_7  and  C23_30 
REMARK    7  A    between atoms: C6_8  and  C7_9 
REMARK    8  A    between atoms: C7_9  and  O2_10 
REMARK    9  A    between atoms: O2_10  and  C8_11 
REMARK   10  A    between atoms: C8_11  and  C9_12 
REMARK   11  A    between atoms: C9_12  and  O3_13 
REMARK   12  A    between atoms: O3_13  and  C10_14 
REMARK   13  A    between atoms: C10_14  and  C11_15 
REMARK   14  A    between atoms: C11_15  and  N2_16 
REMARK   15  A    between atoms: N2_16  and  C12_18 
REMARK   16  A    between atoms: C12_18  and  C13_20 
REMARK   17  A    between atoms: C23_30  and  C24_32 
ROOT
HETATM    1  O2  UNL     1      21.524  32.138  13.192  1.00  0.00    -0.387 OA
ENDROOT
BRANCH   1   2
HETATM    2  C7  UNL     1      20.724  31.266  12.460  1.00  0.00     0.187 C 
BRANCH   2   3
HETATM    3  C6  UNL     1      20.606  29.942  13.130  1.00  0.00     0.152 C 
BRANCH   3   4
HETATM    4  N1  UNL     1      20.377  28.835  12.183  1.00  0.00    -0.345 N 
HETATM    5  C23 UNL     1      19.064  28.377  12.079  1.00  0.00     0.271 C 
HETATM    6  O4  UNL     1      18.143  28.938  12.800  1.00  0.00    -0.266 OA
BRANCH   4   7
HETATM    7  C5  UNL     1      21.473  28.293  11.444  1.00  0.00     0.126 C 
BRANCH   7   8
HETATM    8  C4  UNL     1      22.724  28.067  12.265  1.00  0.00     0.022 C 
BRANCH   8   9
HETATM    9  C3  UNL     1      23.866  27.768  11.308  1.00  0.00     0.028 C 
BRANCH   9  10
HETATM   10  C2  UNL     1      24.877  26.854  11.932  1.00  0.00     0.167 C 
BRANCH  10  11
HETATM   11  O1  UNL     1      24.607  25.531  11.687  1.00  0.00    -0.396 OA
HETATM   12  C1  UNL     1      24.365  25.229  10.365  1.00  0.00     0.201 C 
ENDBRANCH  10  11
ENDBRANCH   9  10
ENDBRANCH   8   9
ENDBRANCH   7   8
ENDBRANCH   4   7
BRANCH   5  13
HETATM   13  C24 UNL     1      18.628  27.312  11.220  1.00  0.00     0.117 A 
HETATM   14  C25 UNL     1      18.502  25.962  11.600  1.00  0.00     0.062 A 
HETATM   15  C26 UNL     1      18.066  25.234  10.532  1.00  0.00     0.024 A 
HETATM   16  C27 UNL     1      17.807  23.760  10.521  1.00  0.00     0.070 C 
HETATM   17  N3  UNL     1      17.925  26.105   9.522  1.00  0.00    -0.305 N 
HETATM   18  N4  UNL     1      18.255  27.305   9.940  1.00  0.00    -0.295 N 
ATOM     19  H3  UNL     1      17.611  25.872   8.580  1.00  0.00     0.186 HD
ATOM     20  H4  UNL     1      18.230  28.138   9.352  1.00  0.00     0.187 HD
ENDBRANCH   5  13
ENDBRANCH   3   4
ENDBRANCH   2   3
ENDBRANCH   1   2
BRANCH   1  21
HETATM   21  C8  UNL     1      22.379  31.441  14.045  1.00  0.00     0.193 C 
BRANCH  21  22
HETATM   22  C9  UNL     1      23.264  32.448  14.737  1.00  0.00     0.193 C 
BRANCH  22  23
HETATM   23  O3  UNL     1      22.910  32.735  16.023  1.00  0.00    -0.387 OA
BRANCH  23  24
HETATM   24  C10 UNL     1      22.804  34.068  16.321  1.00  0.00     0.187 C 
BRANCH  24  25
HETATM   25  C11 UNL     1      21.318  34.360  16.521  1.00  0.00     0.146 C 
BRANCH  25  26
HETATM   26  N2  UNL     1      20.613  33.240  17.044  1.00  0.00    -0.382 N 
ATOM     27  H2  UNL     1      21.078  32.770  17.820  1.00  0.00     0.160 HD
BRANCH  26  28
HETATM   28  C12 UNL     1      19.394  32.682  16.673  1.00  0.00     0.082 C 
HETATM   29  S1  UNL     1      19.402  31.024  16.431  1.00  0.00    -0.065 SA
BRANCH  28  30
HETATM   30  C13 UNL     1      18.095  33.325  16.462  1.00  0.00     0.014 C 
HETATM   31  C14 UNL     1      17.922  34.047  15.169  1.00  0.00     0.021 C 
HETATM   32  C15 UNL     1      16.552  34.702  15.132  1.00  0.00    -0.013 C 
HETATM   33  C16 UNL     1      16.450  35.676  16.290  1.00  0.00     0.009 C 
HETATM   34  C20 UNL     1      15.450  33.673  15.148  1.00  0.00     0.009 C 
HETATM   35  C17 UNL     1      16.446  34.889  17.562  1.00  0.00    -0.013 C 
HETATM   36  C18 UNL     1      15.377  33.807  17.573  1.00  0.00     0.009 C 
HETATM   37  C22 UNL     1      17.769  34.160  17.688  1.00  0.00     0.021 C 
HETATM   38  C19 UNL     1      15.647  32.878  16.437  1.00  0.00    -0.013 C 
HETATM   39  C21 UNL     1      16.993  32.236  16.458  1.00  0.00     0.021 C 
ENDBRANCH  28  30
ENDBRANCH  26  28
ENDBRANCH  25  26
ENDBRANCH  24  25
ENDBRANCH  23  24
ENDBRANCH  22  23
ENDBRANCH  21  22
ENDBRANCH   1  21
TORSDOF 17
ENDMDL
