MODEL 1
REMARK VINA RESULT: -7.818677176      0.000      0.000
REMARK  17 active torsions:
REMARK  status: ('A' for Active; 'I' for Inactive)
REMARK    1  A    between atoms: C2_2  and  C3_3 
REMARK    2  A    between atoms: C3_3  and  C4_4 
REMARK    3  A    between atoms: C4_4  and  C5_5 
REMARK    4  A    between atoms: C5_5  and  C6_6 
REMARK    5  A    between atoms: C6_6  and  C7_7 
REMARK    6  A    between atoms: C7_7  and  C8_8 
REMARK    7  A    between atoms: C8_8  and  C9_9 
REMARK    8  A    between atoms: C9_9  and  C10_10 
REMARK    9  A    between atoms: C10_10  and  C11_11 
REMARK       I    between atoms: C11_11  and  N1_13 
REMARK   10  A    between atoms: N1_13  and  C12_15 
REMARK   11  A    between atoms: N2_18  and  C14_19 
REMARK   12  A    between atoms: C14_19  and  C15_20 
REMARK       I    between atoms: C15_20  and  N3_22 
REMARK   13  A    between atoms: C21_29  and  C22_30 
REMARK   14  A    between atoms: C21_29  and  S1_33 
REMARK   15  A    between atoms: C22_30  and  O5_31 
REMARK   16  A    between atoms: S1_33  and  C23_34 
REMARK   17  A    between atoms: C23_34  and  C24_35 
ROOT
HETATM    1  C12 UNL     1      19.421  33.464  15.447  1.00  0.00     0.199 C 
HETATM    2  C13 UNL     1      19.625  34.401  16.547  1.00  0.00     0.244 C 
HETATM    3  O2  UNL     1      20.605  35.231  16.567  1.00  0.00    -0.271 OA
HETATM    4  N2  UNL     1      18.618  34.255  17.536  1.00  0.00    -0.340 N 
HETATM    5  C20 UNL     1      17.774  33.146  17.111  1.00  0.00     0.151 C 
HETATM    6  C21 UNL     1      17.917  33.070  15.622  1.00  0.00     0.074 C 
ENDROOT
BRANCH   1   7
HETATM    7  N1  UNL     1      20.270  32.333  15.572  1.00  0.00    -0.346 N 
HETATM    8  C11 UNL     1      21.363  32.164  14.686  1.00  0.00     0.218 C 
HETATM    9  O1  UNL     1      21.552  33.054  13.785  1.00  0.00    -0.274 OA
ATOM     10  H1  UNL     1      20.093  31.641  16.300  1.00  0.00     0.163 HD
BRANCH   8  11
HETATM   11  C10 UNL     1      22.312  31.030  14.720  1.00  0.00     0.103 C 
BRANCH  11  12
HETATM   12  C9  UNL     1      21.572  29.735  14.714  1.00  0.00     0.009 C 
BRANCH  12  13
HETATM   13  C8  UNL     1      21.978  28.806  13.622  1.00  0.00     0.000 C 
BRANCH  13  14
HETATM   14  C7  UNL     1      21.905  29.436  12.249  1.00  0.00     0.000 C 
BRANCH  14  15
HETATM   15  C6  UNL     1      21.706  28.292  11.255  1.00  0.00     0.000 C 
BRANCH  15  16
HETATM   16  C5  UNL     1      21.913  27.009  12.012  1.00  0.00     0.000 C 
BRANCH  16  17
HETATM   17  C4  UNL     1      22.925  26.091  11.392  1.00  0.00     0.000 C 
BRANCH  17  18
HETATM   18  C3  UNL     1      24.311  26.498  11.774  1.00  0.00    -0.000 C 
BRANCH  18  19
HETATM   19  C2  UNL     1      25.229  26.609  10.571  1.00  0.00    -0.005 C 
HETATM   20  C1  UNL     1      24.493  26.229   9.323  1.00  0.00     0.005 C 
ENDBRANCH  18  19
ENDBRANCH  17  18
ENDBRANCH  16  17
ENDBRANCH  15  16
ENDBRANCH  14  15
ENDBRANCH  13  14
ENDBRANCH  12  13
ENDBRANCH  11  12
ENDBRANCH   8  11
ENDBRANCH   1   7
BRANCH   6  21
HETATM   21  C22 UNL     1      17.202  34.157  14.894  1.00  0.00     0.189 C 
BRANCH  21  22
HETATM   22  O5  UNL     1      15.996  34.524  15.466  1.00  0.00    -0.399 OA
ATOM     23  H5  UNL     1      15.613  35.311  15.095  1.00  0.00     0.209 HD
ENDBRANCH  21  22
ENDBRANCH   6  21
BRANCH   6  24
HETATM   24  S1  UNL     1      17.669  31.449  15.041  1.00  0.00    -0.152 SA
BRANCH  24  25
HETATM   25  C23 UNL     1      17.754  31.027  13.362  1.00  0.00     0.079 C 
BRANCH  25  26
HETATM   26  C24 UNL     1      18.369  29.770  12.877  1.00  0.00    -0.005 C 
HETATM   27  C25 UNL     1      17.895  29.137  11.642  1.00  0.00     0.005 C 
HETATM   28  C26 UNL     1      18.082  27.623  11.814  1.00  0.00     0.000 C 
HETATM   29  C27 UNL     1      17.688  27.458  13.254  1.00  0.00     0.000 C 
HETATM   30  C28 UNL     1      18.282  28.663  13.928  1.00  0.00     0.005 C 
ENDBRANCH  25  26
ENDBRANCH  24  25
ENDBRANCH   6  24
BRANCH   4  31
HETATM   31  C14 UNL     1      18.422  35.016  18.730  1.00  0.00     0.228 C 
BRANCH  31  32
HETATM   32  C15 UNL     1      17.158  35.761  18.810  1.00  0.00     0.237 C 
HETATM   33  O3  UNL     1      16.052  35.227  19.056  1.00  0.00    -0.272 OA
HETATM   34  N3  UNL     1      17.169  37.165  18.603  1.00  0.00    -0.347 N 
HETATM   35  C16 UNL     1      18.406  37.886  18.314  1.00  0.00     0.152 C 
HETATM   36  C19 UNL     1      15.954  37.922  18.672  1.00  0.00     0.152 C 
HETATM   37  C17 UNL     1      18.270  38.787  17.130  1.00  0.00     0.187 C 
HETATM   38  O4  UNL     1      16.944  39.101  16.841  1.00  0.00    -0.388 OA
HETATM   39  C18 UNL     1      16.168  39.240  17.963  1.00  0.00     0.187 C 
ENDBRANCH  31  32
ENDBRANCH   4  31
TORSDOF 17
ENDMDL
MODEL 2
REMARK VINA RESULT: -7.691463822      2.815     10.323
REMARK  17 active torsions:
REMARK  status: ('A' for Active; 'I' for Inactive)
REMARK    1  A    between atoms: C2_2  and  C3_3 
REMARK    2  A    between atoms: C3_3  and  C4_4 
REMARK    3  A    between atoms: C4_4  and  C5_5 
REMARK    4  A    between atoms: C5_5  and  C6_6 
REMARK    5  A    between atoms: C6_6  and  C7_7 
REMARK    6  A    between atoms: C7_7  and  C8_8 
REMARK    7  A    between atoms: C8_8  and  C9_9 
REMARK    8  A    between atoms: C9_9  and  C10_10 
REMARK    9  A    between atoms: C10_10  and  C11_11 
REMARK       I    between atoms: C11_11  and  N1_13 
REMARK   10  A    between atoms: N1_13  and  C12_15 
REMARK   11  A    between atoms: N2_18  and  C14_19 
REMARK   12  A    between atoms: C14_19  and  C15_20 
REMARK       I    between atoms: C15_20  and  N3_22 
REMARK   13  A    between atoms: C21_29  and  C22_30 
REMARK   14  A    between atoms: C21_29  and  S1_33 
REMARK   15  A    between atoms: C22_30  and  O5_31 
REMARK   16  A    between atoms: S1_33  and  C23_34 
REMARK   17  A    between atoms: C23_34  and  C24_35 
ROOT
HETATM    1  C12 UNL     1      20.502  32.432  14.135  1.00  0.00     0.199 C 
HETATM    2  C13 UNL     1      20.662  31.733  12.864  1.00  0.00     0.244 C 
HETATM    3  O2  UNL     1      19.972  32.038  11.824  1.00  0.00    -0.271 OA
HETATM    4  N2  UNL     1      21.650  30.719  12.957  1.00  0.00    -0.340 N 
HETATM    5  C20 UNL     1      22.098  30.702  14.344  1.00  0.00     0.151 C 
HETATM    6  C21 UNL     1      21.834  32.076  14.877  1.00  0.00     0.074 C 
ENDROOT
BRANCH   1   7
HETATM    7  N1  UNL     1      19.370  31.954  14.846  1.00  0.00    -0.346 N 
HETATM    8  C11 UNL     1      18.159  32.689  14.830  1.00  0.00     0.218 C 
HETATM    9  O1  UNL     1      18.125  33.780  14.163  1.00  0.00    -0.274 OA
ATOM     10  H1  UNL     1      19.429  31.079  15.369  1.00  0.00     0.163 HD
BRANCH   8  11
HETATM   11  C10 UNL     1      16.919  32.290  15.530  1.00  0.00     0.103 C 
BRANCH  11  12
HETATM   12  C9  UNL     1      16.708  33.142  16.736  1.00  0.00     0.009 C 
BRANCH  12  13
HETATM   13  C8  UNL     1      15.533  34.053  16.641  1.00  0.00     0.000 C 
BRANCH  13  14
HETATM   14  C7  UNL     1      14.983  34.455  17.990  1.00  0.00     0.000 C 
BRANCH  14  15
HETATM   15  C6  UNL     1      14.374  35.846  17.816  1.00  0.00     0.000 C 
BRANCH  15  16
HETATM   16  C5  UNL     1      15.214  36.799  18.622  1.00  0.00     0.000 C 
BRANCH  16  17
HETATM   17  C4  UNL     1      16.096  37.685  17.793  1.00  0.00     0.000 C 
BRANCH  17  18
HETATM   18  C3  UNL     1      17.422  37.038  17.555  1.00  0.00    -0.000 C 
BRANCH  18  19
HETATM   19  C2  UNL     1      18.194  36.822  18.844  1.00  0.00    -0.005 C 
HETATM   20  C1  UNL     1      18.449  35.361  19.054  1.00  0.00     0.005 C 
ENDBRANCH  18  19
ENDBRANCH  17  18
ENDBRANCH  16  17
ENDBRANCH  15  16
ENDBRANCH  14  15
ENDBRANCH  13  14
ENDBRANCH  12  13
ENDBRANCH  11  12
ENDBRANCH   8  11
ENDBRANCH   1   7
BRANCH   6  21
HETATM   21  C22 UNL     1      22.782  33.109  14.372  1.00  0.00     0.189 C 
BRANCH  21  22
HETATM   22  O5  UNL     1      24.117  32.797  14.567  1.00  0.00    -0.399 OA
ATOM     23  H5  UNL     1      24.570  33.384  15.161  1.00  0.00     0.209 HD
ENDBRANCH  21  22
ENDBRANCH   6  21
BRANCH   6  24
HETATM   24  S1  UNL     1      21.554  32.048  16.594  1.00  0.00    -0.152 SA
BRANCH  24  25
HETATM   25  C23 UNL     1      22.097  33.306  17.656  1.00  0.00     0.079 C 
BRANCH  25  26
HETATM   26  C24 UNL     1      21.450  34.636  17.728  1.00  0.00    -0.005 C 
HETATM   27  C25 UNL     1      21.197  35.409  16.507  1.00  0.00     0.005 C 
HETATM   28  C26 UNL     1      21.298  36.893  16.887  1.00  0.00     0.000 C 
HETATM   29  C27 UNL     1      22.458  36.855  17.842  1.00  0.00     0.000 C 
HETATM   30  C28 UNL     1      22.234  35.593  18.626  1.00  0.00     0.005 C 
ENDBRANCH  25  26
ENDBRANCH  24  25
ENDBRANCH   6  24
BRANCH   4  31
HETATM   31  C14 UNL     1      22.144  29.857  11.931  1.00  0.00     0.228 C 
BRANCH  31  32
HETATM   32  C15 UNL     1      21.597  28.493  11.926  1.00  0.00     0.237 C 
HETATM   33  O3  UNL     1      20.508  28.181  12.458  1.00  0.00    -0.272 OA
HETATM   34  N3  UNL     1      22.327  27.457  11.287  1.00  0.00    -0.347 N 
HETATM   35  C16 UNL     1      23.607  27.715  10.632  1.00  0.00     0.152 C 
HETATM   36  C19 UNL     1      21.824  26.116  11.266  1.00  0.00     0.152 C 
HETATM   37  C17 UNL     1      24.661  26.743  11.051  1.00  0.00     0.187 C 
HETATM   38  O4  UNL     1      24.132  25.570  11.585  1.00  0.00    -0.388 OA
HETATM   39  C18 UNL     1      22.971  25.177  10.969  1.00  0.00     0.187 C 
ENDBRANCH  31  32
ENDBRANCH   4  31
TORSDOF 17
ENDMDL
MODEL 3
REMARK VINA RESULT: -7.558391730      2.923     10.576
REMARK  17 active torsions:
REMARK  status: ('A' for Active; 'I' for Inactive)
REMARK    1  A    between atoms: C2_2  and  C3_3 
REMARK    2  A    between atoms: C3_3  and  C4_4 
REMARK    3  A    between atoms: C4_4  and  C5_5 
REMARK    4  A    between atoms: C5_5  and  C6_6 
REMARK    5  A    between atoms: C6_6  and  C7_7 
REMARK    6  A    between atoms: C7_7  and  C8_8 
REMARK    7  A    between atoms: C8_8  and  C9_9 
REMARK    8  A    between atoms: C9_9  and  C10_10 
REMARK    9  A    between atoms: C10_10  and  C11_11 
REMARK       I    between atoms: C11_11  and  N1_13 
REMARK   10  A    between atoms: N1_13  and  C12_15 
REMARK   11  A    between atoms: N2_18  and  C14_19 
REMARK   12  A    between atoms: C14_19  and  C15_20 
REMARK       I    between atoms: C15_20  and  N3_22 
REMARK   13  A    between atoms: C21_29  and  C22_30 
REMARK   14  A    between atoms: C21_29  and  S1_33 
REMARK   15  A    between atoms: C22_30  and  O5_31 
REMARK   16  A    between atoms: S1_33  and  C23_34 
REMARK   17  A    between atoms: C23_34  and  C24_35 
ROOT
HETATM    1  C12 UNL     1      19.601  31.091  13.893  1.00  0.00     0.199 C 
HETATM    2  C13 UNL     1      19.626  30.018  12.905  1.00  0.00     0.244 C 
HETATM    3  O2  UNL     1      18.965  30.083  11.806  1.00  0.00    -0.271 OA
HETATM    4  N2  UNL     1      20.456  28.949  13.332  1.00  0.00    -0.340 N 
HETATM    5  C20 UNL     1      20.929  29.296  14.666  1.00  0.00     0.151 C 
HETATM    6  C21 UNL     1      20.882  30.792  14.740  1.00  0.00     0.074 C 
ENDROOT
BRANCH   1   7
HETATM    7  N1  UNL     1      18.427  31.029  14.689  1.00  0.00    -0.346 N 
HETATM    8  C11 UNL     1      17.547  32.138  14.745  1.00  0.00     0.218 C 
HETATM    9  O1  UNL     1      17.845  33.179  14.063  1.00  0.00    -0.274 OA
ATOM     10  H1  UNL     1      18.218  30.184  15.223  1.00  0.00     0.163 HD
BRANCH   8  11
HETATM   11  C10 UNL     1      16.299  32.188  15.538  1.00  0.00     0.103 C 
BRANCH  11  12
HETATM   12  C9  UNL     1      16.019  33.586  15.976  1.00  0.00     0.009 C 
BRANCH  12  13
HETATM   13  C8  UNL     1      16.331  33.849  17.409  1.00  0.00     0.000 C 
BRANCH  13  14
HETATM   14  C7  UNL     1      15.168  34.442  18.170  1.00  0.00     0.000 C 
BRANCH  14  15
HETATM   15  C6  UNL     1      14.823  35.762  17.483  1.00  0.00     0.000 C 
BRANCH  15  16
HETATM   16  C5  UNL     1      14.805  36.823  18.550  1.00  0.00     0.000 C 
BRANCH  16  17
HETATM   17  C4  UNL     1      15.771  37.946  18.310  1.00  0.00     0.000 C 
BRANCH  17  18
HETATM   18  C3  UNL     1      16.809  37.544  17.312  1.00  0.00    -0.000 C 
BRANCH  18  19
HETATM   19  C2  UNL     1      18.213  37.621  17.883  1.00  0.00    -0.005 C 
HETATM   20  C1  UNL     1      18.460  36.466  18.804  1.00  0.00     0.005 C 
ENDBRANCH  18  19
ENDBRANCH  17  18
ENDBRANCH  16  17
ENDBRANCH  15  16
ENDBRANCH  14  15
ENDBRANCH  13  14
ENDBRANCH  12  13
ENDBRANCH  11  12
ENDBRANCH   8  11
ENDBRANCH   1   7
BRANCH   6  21
HETATM   21  C22 UNL     1      21.960  31.466  13.963  1.00  0.00     0.189 C 
BRANCH  21  22
HETATM   22  O5  UNL     1      21.592  32.688  13.426  1.00  0.00    -0.399 OA
ATOM     23  H5  UNL     1      20.682  32.918  13.571  1.00  0.00     0.209 HD
ENDBRANCH  21  22
ENDBRANCH   6  21
BRANCH   6  24
HETATM   24  S1  UNL     1      20.641  31.339  16.374  1.00  0.00    -0.152 SA
BRANCH  24  25
HETATM   25  C23 UNL     1      21.582  32.607  17.090  1.00  0.00     0.079 C 
BRANCH  25  26
HETATM   26  C24 UNL     1      21.105  34.005  17.192  1.00  0.00    -0.005 C 
HETATM   27  C25 UNL     1      21.327  34.951  16.093  1.00  0.00     0.005 C 
HETATM   28  C26 UNL     1      21.484  36.341  16.723  1.00  0.00     0.000 C 
HETATM   29  C27 UNL     1      22.287  36.002  17.946  1.00  0.00     0.000 C 
HETATM   30  C28 UNL     1      21.689  34.707  18.419  1.00  0.00     0.005 C 
ENDBRANCH  25  26
ENDBRANCH  24  25
ENDBRANCH   6  24
BRANCH   4  31
HETATM   31  C14 UNL     1      20.795  27.748  12.636  1.00  0.00     0.228 C 
BRANCH  31  32
HETATM   32  C15 UNL     1      22.218  27.580  12.311  1.00  0.00     0.237 C 
HETATM   33  O3  UNL     1      23.097  28.430  12.582  1.00  0.00    -0.272 OA
HETATM   34  N3  UNL     1      22.642  26.394  11.656  1.00  0.00    -0.347 N 
HETATM   35  C16 UNL     1      21.699  25.338  11.300  1.00  0.00     0.152 C 
HETATM   36  C19 UNL     1      24.022  26.199  11.323  1.00  0.00     0.152 C 
HETATM   37  C17 UNL     1      21.849  24.904   9.878  1.00  0.00     0.187 C 
HETATM   38  O4  UNL     1      23.091  25.235   9.341  1.00  0.00    -0.388 OA
HETATM   39  C18 UNL     1      24.112  25.136  10.252  1.00  0.00     0.187 C 
ENDBRANCH  31  32
ENDBRANCH   4  31
TORSDOF 17
ENDMDL
MODEL 4
REMARK VINA RESULT: -7.490869643      2.827     10.377
REMARK  17 active torsions:
REMARK  status: ('A' for Active; 'I' for Inactive)
REMARK    1  A    between atoms: C2_2  and  C3_3 
REMARK    2  A    between atoms: C3_3  and  C4_4 
REMARK    3  A    between atoms: C4_4  and  C5_5 
REMARK    4  A    between atoms: C5_5  and  C6_6 
REMARK    5  A    between atoms: C6_6  and  C7_7 
REMARK    6  A    between atoms: C7_7  and  C8_8 
REMARK    7  A    between atoms: C8_8  and  C9_9 
REMARK    8  A    between atoms: C9_9  and  C10_10 
REMARK    9  A    between atoms: C10_10  and  C11_11 
REMARK       I    between atoms: C11_11  and  N1_13 
REMARK   10  A    between atoms: N1_13  and  C12_15 
REMARK   11  A    between atoms: N2_18  and  C14_19 
REMARK   12  A    between atoms: C14_19  and  C15_20 
REMARK       I    between atoms: C15_20  and  N3_22 
REMARK   13  A    between atoms: C21_29  and  C22_30 
REMARK   14  A    between atoms: C21_29  and  S1_33 
REMARK   15  A    between atoms: C22_30  and  O5_31 
REMARK   16  A    between atoms: S1_33  and  C23_34 
REMARK   17  A    between atoms: C23_34  and  C24_35 
ROOT
HETATM    1  C12 UNL     1      20.474  30.683  14.718  1.00  0.00     0.199 C 
HETATM    2  C13 UNL     1      21.559  30.213  13.863  1.00  0.00     0.244 C 
HETATM    3  O2  UNL     1      22.775  30.148  14.273  1.00  0.00    -0.271 OA
HETATM    4  N2  UNL     1      21.079  29.855  12.576  1.00  0.00    -0.340 N 
HETATM    5  C20 UNL     1      19.655  30.168  12.562  1.00  0.00     0.151 C 
HETATM    6  C21 UNL     1      19.210  30.114  13.991  1.00  0.00     0.074 C 
ENDROOT
BRANCH   1   7
HETATM    7  N1  UNL     1      20.443  32.101  14.776  1.00  0.00    -0.346 N 
HETATM    8  C11 UNL     1      20.963  32.777  15.908  1.00  0.00     0.218 C 
HETATM    9  O1  UNL     1      21.451  32.073  16.859  1.00  0.00    -0.274 OA
ATOM     10  H1  UNL     1      20.047  32.634  14.002  1.00  0.00     0.163 HD
BRANCH   8  11
HETATM   11  C10 UNL     1      20.985  34.246  16.080  1.00  0.00     0.103 C 
BRANCH  11  12
HETATM   12  C9  UNL     1      20.860  34.601  17.523  1.00  0.00     0.009 C 
BRANCH  12  13
HETATM   13  C8  UNL     1      19.799  35.606  17.813  1.00  0.00     0.000 C 
BRANCH  13  14
HETATM   14  C7  UNL     1      18.748  35.099  18.774  1.00  0.00     0.000 C 
BRANCH  14  15
HETATM   15  C6  UNL     1      17.656  36.167  18.831  1.00  0.00     0.000 C 
BRANCH  15  16
HETATM   16  C5  UNL     1      17.984  37.188  17.776  1.00  0.00     0.000 C 
BRANCH  16  17
HETATM   17  C4  UNL     1      16.812  38.022  17.349  1.00  0.00     0.000 C 
BRANCH  17  18
HETATM   18  C3  UNL     1      15.701  37.918  18.343  1.00  0.00    -0.000 C 
BRANCH  18  19
HETATM   19  C2  UNL     1      15.365  39.259  18.969  1.00  0.00    -0.005 C 
HETATM   20  C1  UNL     1      15.705  40.371  18.025  1.00  0.00     0.005 C 
ENDBRANCH  18  19
ENDBRANCH  17  18
ENDBRANCH  16  17
ENDBRANCH  15  16
ENDBRANCH  14  15
ENDBRANCH  13  14
ENDBRANCH  12  13
ENDBRANCH  11  12
ENDBRANCH   8  11
ENDBRANCH   1   7
BRANCH   6  21
HETATM   21  C22 UNL     1      19.106  28.732  14.536  1.00  0.00     0.189 C 
BRANCH  21  22
HETATM   22  O5  UNL     1      18.672  27.791  13.618  1.00  0.00    -0.399 OA
ATOM     23  H5  UNL     1      18.180  28.155  12.891  1.00  0.00     0.209 HD
ENDBRANCH  21  22
ENDBRANCH   6  21
BRANCH   6  24
HETATM   24  S1  UNL     1      17.854  31.167  14.273  1.00  0.00    -0.152 SA
BRANCH  24  25
HETATM   25  C23 UNL     1      17.172  31.422  15.846  1.00  0.00     0.079 C 
BRANCH  25  26
HETATM   26  C24 UNL     1      16.895  32.768  16.396  1.00  0.00    -0.005 C 
HETATM   27  C25 UNL     1      15.520  33.184  16.695  1.00  0.00     0.005 C 
HETATM   28  C26 UNL     1      15.451  34.700  16.465  1.00  0.00     0.000 C 
HETATM   29  C27 UNL     1      16.307  34.833  15.238  1.00  0.00     0.000 C 
HETATM   30  C28 UNL     1      17.433  33.868  15.481  1.00  0.00     0.005 C 
ENDBRANCH  25  26
ENDBRANCH  24  25
ENDBRANCH   6  24
BRANCH   4  31
HETATM   31  C14 UNL     1      21.801  29.298  11.477  1.00  0.00     0.228 C 
BRANCH  31  32
HETATM   32  C15 UNL     1      21.630  27.853  11.270  1.00  0.00     0.237 C 
HETATM   33  O3  UNL     1      20.548  27.249  11.451  1.00  0.00    -0.272 OA
HETATM   34  N3  UNL     1      22.740  27.080  10.840  1.00  0.00    -0.347 N 
HETATM   35  C16 UNL     1      24.046  27.687  10.595  1.00  0.00     0.152 C 
HETATM   36  C19 UNL     1      22.609  25.669  10.630  1.00  0.00     0.152 C 
HETATM   37  C17 UNL     1      25.149  26.941  11.273  1.00  0.00     0.187 C 
HETATM   38  O4  UNL     1      24.799  25.631  11.592  1.00  0.00    -0.388 OA
HETATM   39  C18 UNL     1      23.987  25.049  10.652  1.00  0.00     0.187 C 
ENDBRANCH  31  32
ENDBRANCH   4  31
TORSDOF 17
ENDMDL
MODEL 5
REMARK VINA RESULT: -7.481441734      1.069      1.676
REMARK  17 active torsions:
REMARK  status: ('A' for Active; 'I' for Inactive)
REMARK    1  A    between atoms: C2_2  and  C3_3 
REMARK    2  A    between atoms: C3_3  and  C4_4 
REMARK    3  A    between atoms: C4_4  and  C5_5 
REMARK    4  A    between atoms: C5_5  and  C6_6 
REMARK    5  A    between atoms: C6_6  and  C7_7 
REMARK    6  A    between atoms: C7_7  and  C8_8 
REMARK    7  A    between atoms: C8_8  and  C9_9 
REMARK    8  A    between atoms: C9_9  and  C10_10 
REMARK    9  A    between atoms: C10_10  and  C11_11 
REMARK       I    between atoms: C11_11  and  N1_13 
REMARK   10  A    between atoms: N1_13  and  C12_15 
REMARK   11  A    between atoms: N2_18  and  C14_19 
REMARK   12  A    between atoms: C14_19  and  C15_20 
REMARK       I    between atoms: C15_20  and  N3_22 
REMARK   13  A    between atoms: C21_29  and  C22_30 
REMARK   14  A    between atoms: C21_29  and  S1_33 
REMARK   15  A    between atoms: C22_30  and  O5_31 
REMARK   16  A    between atoms: S1_33  and  C23_34 
REMARK   17  A    between atoms: C23_34  and  C24_35 
ROOT
HETATM    1  C12 UNL     1      19.425  33.695  15.562  1.00  0.00     0.199 C 
HETATM    2  C13 UNL     1      19.570  34.574  16.718  1.00  0.00     0.244 C 
HETATM    3  O2  UNL     1      20.556  35.388  16.839  1.00  0.00    -0.271 OA
HETATM    4  N2  UNL     1      18.503  34.393  17.635  1.00  0.00    -0.340 N 
HETATM    5  C20 UNL     1      17.675  33.317  17.104  1.00  0.00     0.151 C 
HETATM    6  C21 UNL     1      17.909  33.314  15.624  1.00  0.00     0.074 C 
ENDROOT
BRANCH   1   7
HETATM    7  N1  UNL     1      20.253  32.548  15.681  1.00  0.00    -0.346 N 
HETATM    8  C11 UNL     1      21.383  32.397  14.840  1.00  0.00     0.218 C 
HETATM    9  O1  UNL     1      21.625  33.317  13.985  1.00  0.00    -0.274 OA
ATOM     10  H1  UNL     1      20.033  31.831  16.373  1.00  0.00     0.163 HD
BRANCH   8  11
HETATM   11  C10 UNL     1      22.315  31.248  14.873  1.00  0.00     0.103 C 
BRANCH  11  12
HETATM   12  C9  UNL     1      22.210  30.459  13.612  1.00  0.00     0.009 C 
BRANCH  12  13
HETATM   13  C8  UNL     1      22.250  28.984  13.811  1.00  0.00     0.000 C 
BRANCH  13  14
HETATM   14  C7  UNL     1      22.669  28.228  12.570  1.00  0.00     0.000 C 
BRANCH  14  15
HETATM   15  C6  UNL     1      21.619  28.527  11.501  1.00  0.00     0.000 C 
BRANCH  15  16
HETATM   16  C5  UNL     1      20.968  27.218  11.145  1.00  0.00     0.000 C 
BRANCH  16  17
HETATM   17  C4  UNL     1      21.705  26.013  11.652  1.00  0.00     0.000 C 
BRANCH  17  18
HETATM   18  C3  UNL     1      21.052  24.756  11.178  1.00  0.00    -0.000 C 
BRANCH  18  19
HETATM   19  C2  UNL     1      19.556  24.925  10.985  1.00  0.00    -0.005 C 
HETATM   20  C1  UNL     1      18.815  23.855  11.726  1.00  0.00     0.005 C 
ENDBRANCH  18  19
ENDBRANCH  17  18
ENDBRANCH  16  17
ENDBRANCH  15  16
ENDBRANCH  14  15
ENDBRANCH  13  14
ENDBRANCH  12  13
ENDBRANCH  11  12
ENDBRANCH   8  11
ENDBRANCH   1   7
BRANCH   6  21
HETATM   21  C22 UNL     1      17.252  34.445  14.909  1.00  0.00     0.189 C 
BRANCH  21  22
HETATM   22  O5  UNL     1      16.091  34.899  15.512  1.00  0.00    -0.399 OA
ATOM     23  H5  UNL     1      15.619  35.551  15.007  1.00  0.00     0.209 HD
ENDBRANCH  21  22
ENDBRANCH   6  21
BRANCH   6  24
HETATM   24  S1  UNL     1      17.679  31.727  14.949  1.00  0.00    -0.152 SA
BRANCH  24  25
HETATM   25  C23 UNL     1      18.147  31.316  13.331  1.00  0.00     0.079 C 
BRANCH  25  26
HETATM   26  C24 UNL     1      18.472  29.934  12.912  1.00  0.00    -0.005 C 
HETATM   27  C25 UNL     1      17.563  29.187  12.035  1.00  0.00     0.005 C 
HETATM   28  C26 UNL     1      17.693  27.705  12.412  1.00  0.00     0.000 C 
HETATM   29  C27 UNL     1      17.803  27.808  13.907  1.00  0.00     0.000 C 
HETATM   30  C28 UNL     1      18.672  29.016  14.119  1.00  0.00     0.005 C 
ENDBRANCH  25  26
ENDBRANCH  24  25
ENDBRANCH   6  24
BRANCH   4  31
HETATM   31  C14 UNL     1      18.242  35.096  18.851  1.00  0.00     0.228 C 
BRANCH  31  32
HETATM   32  C15 UNL     1      17.006  35.891  18.875  1.00  0.00     0.237 C 
HETATM   33  O3  UNL     1      15.874  35.406  19.099  1.00  0.00    -0.272 OA
HETATM   34  N3  UNL     1      17.078  37.288  18.635  1.00  0.00    -0.347 N 
HETATM   35  C16 UNL     1      18.351  37.954  18.368  1.00  0.00     0.152 C 
HETATM   36  C19 UNL     1      15.893  38.092  18.649  1.00  0.00     0.152 C 
HETATM   37  C17 UNL     1      18.286  38.830  17.160  1.00  0.00     0.187 C 
HETATM   38  O4  UNL     1      16.983  39.187  16.822  1.00  0.00    -0.388 OA
HETATM   39  C18 UNL     1      16.179  39.383  17.916  1.00  0.00     0.187 C 
ENDBRANCH  31  32
ENDBRANCH   4  31
TORSDOF 17
ENDMDL
