MODEL 1
REMARK VINA RESULT: -9.813162332      0.000      0.000
REMARK  13 active torsions:
REMARK  status: ('A' for Active; 'I' for Inactive)
REMARK    1  A    between atoms: S1_2  and  N1_4 
REMARK    2  A    between atoms: S1_2  and  C12_18 
REMARK    3  A    between atoms: N1_4  and  C1_6 
REMARK    4  A    between atoms: C1_6  and  C2_7 
REMARK    5  A    between atoms: C2_7  and  C3_8 
REMARK    6  A    between atoms: C3_8  and  C4_9 
REMARK    7  A    between atoms: C4_9  and  C5_10 
REMARK    8  A    between atoms: C5_10  and  C6_11 
REMARK    9  A    between atoms: C6_11  and  C7_12 
REMARK   10  A    between atoms: C15_21  and  C16_22 
REMARK   11  A    between atoms: C17_26  and  C18_27 
REMARK   12  A    between atoms: C18_27  and  S2_28 
REMARK   13  A    between atoms: S2_28  and  C19_29 
ROOT
HETATM    1  C12 UNL     1      84.837  92.012 148.391  1.00  0.00     0.079 A 
HETATM    2  C13 UNL     1      85.899  91.734 149.271  1.00  0.00     0.026 A 
HETATM    3  C14 UNL     1      87.099  92.318 149.064  1.00  0.00     0.017 A 
HETATM    4  C15 UNL     1      87.348  93.190 148.020  1.00  0.00     0.010 A 
HETATM    5  C25 UNL     1      86.319  93.469 147.160  1.00  0.00     0.017 A 
HETATM    6  C26 UNL     1      85.063  92.863 147.367  1.00  0.00     0.026 A 
ENDROOT
BRANCH   1   7
HETATM    7  S1  UNL     1      83.345  91.190 148.740  1.00  0.00     0.258 S 
HETATM    8  O1  UNL     1      82.712  91.657 150.007  1.00  0.00    -0.201 OA
HETATM    9  O2  UNL     1      82.383  91.580 147.627  1.00  0.00    -0.201 OA
BRANCH   7  10
HETATM   10  N1  UNL     1      83.544  89.498 148.815  1.00  0.00    -0.315 N 
ATOM     11  H1  UNL     1      83.680  88.932 147.977  1.00  0.00     0.172 HD
BRANCH  10  12
HETATM   12  C1  UNL     1      83.507  88.918 150.128  1.00  0.00     0.132 C 
BRANCH  12  13
HETATM   13  C2  UNL     1      83.451  87.417 149.990  1.00  0.00     0.020 C 
BRANCH  13  14
HETATM   14  C3  UNL     1      83.525  86.678 151.283  1.00  0.00     0.002 C 
BRANCH  14  15
HETATM   15  C4  UNL     1      83.798  85.183 151.004  1.00  0.00     0.000 C 
BRANCH  15  16
HETATM   16  C5  UNL     1      82.958  84.783 149.798  1.00  0.00     0.000 C 
BRANCH  16  17
HETATM   17  C6  UNL     1      81.832  83.882 150.089  1.00  0.00     0.005 C 
BRANCH  17  18
HETATM   18  C7  UNL     1      80.474  84.467 149.769  1.00  0.00    -0.011 C 
HETATM   19  C8  UNL     1      80.559  85.540 148.711  1.00  0.00     0.031 C 
HETATM   20  C9  UNL     1      79.257  86.320 148.701  1.00  0.00     0.168 C 
HETATM   21  O3  UNL     1      79.026  87.002 149.868  1.00  0.00    -0.391 OA
HETATM   22  C10 UNL     1      79.825  86.561 150.933  1.00  0.00     0.168 C 
HETATM   23  C11 UNL     1      79.783  85.051 150.954  1.00  0.00     0.031 C 
ENDBRANCH  17  18
ENDBRANCH  16  17
ENDBRANCH  15  16
ENDBRANCH  14  15
ENDBRANCH  13  14
ENDBRANCH  12  13
ENDBRANCH  10  12
ENDBRANCH   7  10
ENDBRANCH   1   7
BRANCH   4  24
HETATM   24  C16 UNL     1      88.686  93.749 147.882  1.00  0.00     0.137 A 
HETATM   25  N2  UNL     1      89.136  94.915 147.400  1.00  0.00    -0.242 N 
HETATM   26  O4  UNL     1      90.446  94.948 147.466  1.00  0.00    -0.222 OA
ATOM     27  H2  UNL     1      88.548  95.664 147.036  1.00  0.00     0.196 HD
HETATM   28  C17 UNL     1      90.905  93.809 147.992  1.00  0.00     0.158 A 
HETATM   29  N3  UNL     1      89.817  93.094 148.238  1.00  0.00    -0.322 N 
ATOM     30  H3  UNL     1      89.829  92.160 148.649  1.00  0.00     0.169 HD
BRANCH  28  31
HETATM   31  C18 UNL     1      92.347  93.459 148.227  1.00  0.00     0.166 C 
BRANCH  31  32
HETATM   32  S2  UNL     1      92.654  91.710 148.325  1.00  0.00    -0.122 SA
BRANCH  32  33
HETATM   33  C19 UNL     1      94.225  91.240 148.963  1.00  0.00     0.001 A 
HETATM   34  C20 UNL     1      94.654  89.942 148.705  1.00  0.00     0.018 A 
HETATM   35  C21 UNL     1      95.862  89.453 149.132  1.00  0.00     0.001 A 
HETATM   36  C22 UNL     1      96.675  90.294 149.849  1.00  0.00     0.000 A 
HETATM   37  C23 UNL     1      96.322  91.591 150.143  1.00  0.00     0.001 A 
HETATM   38  C24 UNL     1      95.088  92.028 149.680  1.00  0.00     0.018 A 
ENDBRANCH  32  33
ENDBRANCH  31  32
ENDBRANCH  28  31
ENDBRANCH   4  24
TORSDOF 13
ENDMDL
MODEL 2
REMARK VINA RESULT: -9.740277694      0.682      1.077
REMARK  13 active torsions:
REMARK  status: ('A' for Active; 'I' for Inactive)
REMARK    1  A    between atoms: S1_2  and  N1_4 
REMARK    2  A    between atoms: S1_2  and  C12_18 
REMARK    3  A    between atoms: N1_4  and  C1_6 
REMARK    4  A    between atoms: C1_6  and  C2_7 
REMARK    5  A    between atoms: C2_7  and  C3_8 
REMARK    6  A    between atoms: C3_8  and  C4_9 
REMARK    7  A    between atoms: C4_9  and  C5_10 
REMARK    8  A    between atoms: C5_10  and  C6_11 
REMARK    9  A    between atoms: C6_11  and  C7_12 
REMARK   10  A    between atoms: C15_21  and  C16_22 
REMARK   11  A    between atoms: C17_26  and  C18_27 
REMARK   12  A    between atoms: C18_27  and  S2_28 
REMARK   13  A    between atoms: S2_28  and  C19_29 
ROOT
HETATM    1  C12 UNL     1      84.684  91.674 148.471  1.00  0.00     0.079 A 
HETATM    2  C13 UNL     1      84.987  92.906 149.076  1.00  0.00     0.026 A 
HETATM    3  C14 UNL     1      86.178  93.490 148.826  1.00  0.00     0.017 A 
HETATM    4  C15 UNL     1      87.134  92.937 147.993  1.00  0.00     0.010 A 
HETATM    5  C25 UNL     1      86.845  91.737 147.397  1.00  0.00     0.017 A 
HETATM    6  C26 UNL     1      85.605  91.120 147.654  1.00  0.00     0.026 A 
ENDROOT
BRANCH   1   7
HETATM    7  S1  UNL     1      83.132  91.004 148.881  1.00  0.00     0.258 S 
HETATM    8  O1  UNL     1      82.580  91.563 150.149  1.00  0.00    -0.201 OA
HETATM    9  O2  UNL     1      82.180  91.451 147.781  1.00  0.00    -0.201 OA
BRANCH   7  10
HETATM   10  N1  UNL     1      83.175  89.303 149.001  1.00  0.00    -0.315 N 
ATOM     11  H1  UNL     1      82.755  88.700 148.294  1.00  0.00     0.172 HD
BRANCH  10  12
HETATM   12  C1  UNL     1      83.840  88.771 150.158  1.00  0.00     0.132 C 
BRANCH  12  13
HETATM   13  C2  UNL     1      83.353  87.362 150.387  1.00  0.00     0.020 C 
BRANCH  13  14
HETATM   14  C3  UNL     1      84.209  86.558 151.306  1.00  0.00     0.002 C 
BRANCH  14  15
HETATM   15  C4  UNL     1      83.650  85.121 151.401  1.00  0.00     0.000 C 
BRANCH  15  16
HETATM   16  C5  UNL     1      83.055  84.772 150.043  1.00  0.00     0.000 C 
BRANCH  16  17
HETATM   17  C6  UNL     1      81.974  83.774 150.071  1.00  0.00     0.005 C 
BRANCH  17  18
HETATM   18  C7  UNL     1      80.608  84.333 149.739  1.00  0.00    -0.011 C 
HETATM   19  C8  UNL     1      80.695  85.512 148.802  1.00  0.00     0.031 C 
HETATM   20  C9  UNL     1      79.360  86.235 148.801  1.00  0.00     0.168 C 
HETATM   21  O3  UNL     1      79.041  86.782 150.018  1.00  0.00    -0.391 OA
HETATM   22  C10 UNL     1      79.806  86.266 151.074  1.00  0.00     0.168 C 
HETATM   23  C11 UNL     1      79.833  84.761 150.939  1.00  0.00     0.031 C 
ENDBRANCH  17  18
ENDBRANCH  16  17
ENDBRANCH  15  16
ENDBRANCH  14  15
ENDBRANCH  13  14
ENDBRANCH  12  13
ENDBRANCH  10  12
ENDBRANCH   7  10
ENDBRANCH   1   7
BRANCH   4  24
HETATM   24  C16 UNL     1      88.393  93.645 147.807  1.00  0.00     0.137 A 
HETATM   25  N2  UNL     1      88.685  94.869 147.350  1.00  0.00    -0.242 N 
HETATM   26  O4  UNL     1      89.986  95.046 147.348  1.00  0.00    -0.222 OA
ATOM     27  H2  UNL     1      88.000  95.562 147.049  1.00  0.00     0.196 HD
HETATM   28  C17 UNL     1      90.595  93.946 147.802  1.00  0.00     0.158 A 
HETATM   29  N3  UNL     1      89.606  93.107 148.076  1.00  0.00    -0.322 N 
ATOM     30  H3  UNL     1      89.743  92.167 148.447  1.00  0.00     0.169 HD
BRANCH  28  31
HETATM   31  C18 UNL     1      92.078  93.750 147.947  1.00  0.00     0.166 C 
BRANCH  31  32
HETATM   32  S2  UNL     1      92.537  92.748 149.342  1.00  0.00    -0.122 SA
BRANCH  32  33
HETATM   33  C19 UNL     1      93.952  91.727 149.124  1.00  0.00     0.001 A 
HETATM   34  C20 UNL     1      95.068  92.010 149.904  1.00  0.00     0.018 A 
HETATM   35  C21 UNL     1      96.230  91.285 149.843  1.00  0.00     0.001 A 
HETATM   36  C22 UNL     1      96.282  90.233 148.963  1.00  0.00     0.000 A 
HETATM   37  C23 UNL     1      95.220  89.890 148.158  1.00  0.00     0.001 A 
HETATM   38  C24 UNL     1      94.070  90.660 148.270  1.00  0.00     0.018 A 
ENDBRANCH  32  33
ENDBRANCH  31  32
ENDBRANCH  28  31
ENDBRANCH   4  24
TORSDOF 13
ENDMDL
MODEL 3
REMARK VINA RESULT: -9.658110551      2.250     11.384
REMARK  13 active torsions:
REMARK  status: ('A' for Active; 'I' for Inactive)
REMARK    1  A    between atoms: S1_2  and  N1_4 
REMARK    2  A    between atoms: S1_2  and  C12_18 
REMARK    3  A    between atoms: N1_4  and  C1_6 
REMARK    4  A    between atoms: C1_6  and  C2_7 
REMARK    5  A    between atoms: C2_7  and  C3_8 
REMARK    6  A    between atoms: C3_8  and  C4_9 
REMARK    7  A    between atoms: C4_9  and  C5_10 
REMARK    8  A    between atoms: C5_10  and  C6_11 
REMARK    9  A    between atoms: C6_11  and  C7_12 
REMARK   10  A    between atoms: C15_21  and  C16_22 
REMARK   11  A    between atoms: C17_26  and  C18_27 
REMARK   12  A    between atoms: C18_27  and  S2_28 
REMARK   13  A    between atoms: S2_28  and  C19_29 
ROOT
HETATM    1  C12 UNL     1      88.828  93.886 148.161  1.00  0.00     0.079 A 
HETATM    2  C13 UNL     1      88.625  93.055 149.276  1.00  0.00     0.026 A 
HETATM    3  C14 UNL     1      87.553  92.234 149.303  1.00  0.00     0.017 A 
HETATM    4  C15 UNL     1      86.628  92.162 148.276  1.00  0.00     0.010 A 
HETATM    5  C25 UNL     1      86.821  92.967 147.184  1.00  0.00     0.017 A 
HETATM    6  C26 UNL     1      87.936  93.828 147.150  1.00  0.00     0.026 A 
ENDROOT
BRANCH   1   7
HETATM    7  S1  UNL     1      90.227  94.916 148.244  1.00  0.00     0.258 S 
HETATM    8  O1  UNL     1      91.224  94.621 147.174  1.00  0.00    -0.201 OA
HETATM    9  O2  UNL     1      89.726  96.326 147.966  1.00  0.00    -0.201 OA
BRANCH   7  10
HETATM   10  N1  UNL     1      91.004  94.828 149.760  1.00  0.00    -0.315 N 
ATOM     11  H1  UNL     1      90.635  95.303 150.585  1.00  0.00     0.172 HD
BRANCH  10  12
HETATM   12  C1  UNL     1      92.207  94.045 149.805  1.00  0.00     0.132 C 
BRANCH  12  13
HETATM   13  C2  UNL     1      91.930  92.781 150.579  1.00  0.00     0.020 C 
BRANCH  13  14
HETATM   14  C3  UNL     1      92.116  91.527 149.793  1.00  0.00     0.002 C 
BRANCH  14  15
HETATM   15  C4  UNL     1      92.420  91.884 148.321  1.00  0.00     0.000 C 
BRANCH  15  16
HETATM   16  C5  UNL     1      93.108  90.679 147.693  1.00  0.00     0.000 C 
BRANCH  16  17
HETATM   17  C6  UNL     1      94.328  90.225 148.380  1.00  0.00     0.005 C 
BRANCH  17  18
HETATM   18  C7  UNL     1      95.400  91.286 148.501  1.00  0.00    -0.011 C 
HETATM   19  C8  UNL     1      96.684  90.866 147.829  1.00  0.00     0.031 C 
HETATM   20  C9  UNL     1      97.799  91.787 148.291  1.00  0.00     0.168 C 
HETATM   21  O3  UNL     1      98.062  91.687 149.633  1.00  0.00    -0.391 OA
HETATM   22  C10 UNL     1      97.038  91.052 150.351  1.00  0.00     0.168 C 
HETATM   23  C11 UNL     1      95.721  91.648 149.911  1.00  0.00     0.031 C 
ENDBRANCH  17  18
ENDBRANCH  16  17
ENDBRANCH  15  16
ENDBRANCH  14  15
ENDBRANCH  13  14
ENDBRANCH  12  13
ENDBRANCH  10  12
ENDBRANCH   7  10
ENDBRANCH   1   7
BRANCH   4  24
HETATM   24  C16 UNL     1      85.499  91.253 148.417  1.00  0.00     0.137 A 
HETATM   25  N2  UNL     1      84.936  90.371 147.582  1.00  0.00    -0.242 N 
HETATM   26  O4  UNL     1      83.910  89.796 148.165  1.00  0.00    -0.222 OA
ATOM     27  H2  UNL     1      85.257  90.174 146.634  1.00  0.00     0.196 HD
HETATM   28  C17 UNL     1      83.761  90.279 149.402  1.00  0.00     0.158 A 
HETATM   29  N3  UNL     1      84.739  91.164 149.535  1.00  0.00    -0.322 N 
ATOM     30  H3  UNL     1      84.900  91.712 150.379  1.00  0.00     0.169 HD
BRANCH  28  31
HETATM   31  C18 UNL     1      82.698  89.880 150.387  1.00  0.00     0.166 C 
BRANCH  31  32
HETATM   32  S2  UNL     1      82.017  88.263 150.093  1.00  0.00    -0.122 SA
BRANCH  32  33
HETATM   33  C19 UNL     1      82.946  86.910 150.725  1.00  0.00     0.001 A 
HETATM   34  C20 UNL     1      82.387  85.643 150.607  1.00  0.00     0.018 A 
HETATM   35  C21 UNL     1      83.011  84.503 151.046  1.00  0.00     0.001 A 
HETATM   36  C22 UNL     1      84.246  84.635 151.630  1.00  0.00     0.000 A 
HETATM   37  C23 UNL     1      84.866  85.854 151.782  1.00  0.00     0.001 A 
HETATM   38  C24 UNL     1      84.184  86.970 151.314  1.00  0.00     0.018 A 
ENDBRANCH  32  33
ENDBRANCH  31  32
ENDBRANCH  28  31
ENDBRANCH   4  24
TORSDOF 13
ENDMDL
MODEL 4
REMARK VINA RESULT: -9.627978471      1.005      1.550
REMARK  13 active torsions:
REMARK  status: ('A' for Active; 'I' for Inactive)
REMARK    1  A    between atoms: S1_2  and  N1_4 
REMARK    2  A    between atoms: S1_2  and  C12_18 
REMARK    3  A    between atoms: N1_4  and  C1_6 
REMARK    4  A    between atoms: C1_6  and  C2_7 
REMARK    5  A    between atoms: C2_7  and  C3_8 
REMARK    6  A    between atoms: C3_8  and  C4_9 
REMARK    7  A    between atoms: C4_9  and  C5_10 
REMARK    8  A    between atoms: C5_10  and  C6_11 
REMARK    9  A    between atoms: C6_11  and  C7_12 
REMARK   10  A    between atoms: C15_21  and  C16_22 
REMARK   11  A    between atoms: C17_26  and  C18_27 
REMARK   12  A    between atoms: C18_27  and  S2_28 
REMARK   13  A    between atoms: S2_28  and  C19_29 
ROOT
HETATM    1  C12 UNL     1      84.615  91.485 148.602  1.00  0.00     0.079 A 
HETATM    2  C13 UNL     1      84.893  92.744 149.163  1.00  0.00     0.026 A 
HETATM    3  C14 UNL     1      86.067  93.349 148.883  1.00  0.00     0.017 A 
HETATM    4  C15 UNL     1      87.028  92.793 148.059  1.00  0.00     0.010 A 
HETATM    5  C25 UNL     1      86.765  91.568 147.505  1.00  0.00     0.017 A 
HETATM    6  C26 UNL     1      85.543  90.928 147.794  1.00  0.00     0.026 A 
ENDROOT
BRANCH   1   7
HETATM    7  S1  UNL     1      83.084  90.791 149.048  1.00  0.00     0.258 S 
HETATM    8  O1  UNL     1      82.569  91.318 150.344  1.00  0.00    -0.201 OA
HETATM    9  O2  UNL     1      82.092  91.251 147.989  1.00  0.00    -0.201 OA
BRANCH   7  10
HETATM   10  N1  UNL     1      83.149  89.089 149.131  1.00  0.00    -0.315 N 
ATOM     11  H1  UNL     1      82.663  88.496 148.457  1.00  0.00     0.172 HD
BRANCH  10  12
HETATM   12  C1  UNL     1      83.927  88.541 150.206  1.00  0.00     0.132 C 
BRANCH  12  13
HETATM   13  C2  UNL     1      83.354  87.196 150.578  1.00  0.00     0.020 C 
BRANCH  13  14
HETATM   14  C3  UNL     1      84.268  86.342 151.390  1.00  0.00     0.002 C 
BRANCH  14  15
HETATM   15  C4  UNL     1      83.870  84.859 151.220  1.00  0.00     0.000 C 
BRANCH  15  16
HETATM   16  C5  UNL     1      83.012  84.758 149.965  1.00  0.00     0.000 C 
BRANCH  16  17
HETATM   17  C6  UNL     1      81.797  83.938 150.101  1.00  0.00     0.005 C 
BRANCH  17  18
HETATM   18  C7  UNL     1      80.515  84.738 150.163  1.00  0.00    -0.011 C 
HETATM   19  C8  UNL     1      79.377  83.933 150.740  1.00  0.00     0.031 C 
HETATM   20  C9  UNL     1      78.072  84.649 150.442  1.00  0.00     0.168 C 
HETATM   21  O3  UNL     1      77.793  84.730 149.102  1.00  0.00    -0.391 OA
HETATM   22  C10 UNL     1      78.908  84.475 148.289  1.00  0.00     0.168 C 
HETATM   23  C11 UNL     1      80.075  85.263 148.838  1.00  0.00     0.031 C 
ENDBRANCH  17  18
ENDBRANCH  16  17
ENDBRANCH  15  16
ENDBRANCH  14  15
ENDBRANCH  13  14
ENDBRANCH  12  13
ENDBRANCH  10  12
ENDBRANCH   7  10
ENDBRANCH   1   7
BRANCH   4  24
HETATM   24  C16 UNL     1      88.268  93.526 147.838  1.00  0.00     0.137 A 
HETATM   25  N2  UNL     1      88.529  94.724 147.302  1.00  0.00    -0.242 N 
HETATM   26  O4  UNL     1      89.823  94.941 147.301  1.00  0.00    -0.222 OA
ATOM     27  H2  UNL     1      87.826  95.373 146.946  1.00  0.00     0.196 HD
HETATM   28  C17 UNL     1      90.459  93.894 147.836  1.00  0.00     0.158 A 
HETATM   29  N3  UNL     1      89.494  93.045 148.156  1.00  0.00    -0.322 N 
ATOM     30  H3  UNL     1      89.654  92.137 148.592  1.00  0.00     0.169 HD
BRANCH  28  31
HETATM   31  C18 UNL     1      91.946  93.754 148.009  1.00  0.00     0.166 C 
BRANCH  31  32
HETATM   32  S2  UNL     1      92.415  92.659 149.329  1.00  0.00    -0.122 SA
BRANCH  32  33
HETATM   33  C19 UNL     1      93.871  91.709 149.059  1.00  0.00     0.001 A 
HETATM   34  C20 UNL     1      94.985  92.020 149.831  1.00  0.00     0.018 A 
HETATM   35  C21 UNL     1      96.177  91.349 149.730  1.00  0.00     0.001 A 
HETATM   36  C22 UNL     1      96.261  90.326 148.819  1.00  0.00     0.000 A 
HETATM   37  C23 UNL     1      95.202  89.958 148.021  1.00  0.00     0.001 A 
HETATM   38  C24 UNL     1      94.021  90.673 148.173  1.00  0.00     0.018 A 
ENDBRANCH  32  33
ENDBRANCH  31  32
ENDBRANCH  28  31
ENDBRANCH   4  24
TORSDOF 13
ENDMDL
MODEL 5
REMARK VINA RESULT: -9.611424495      2.372     11.540
REMARK  13 active torsions:
REMARK  status: ('A' for Active; 'I' for Inactive)
REMARK    1  A    between atoms: S1_2  and  N1_4 
REMARK    2  A    between atoms: S1_2  and  C12_18 
REMARK    3  A    between atoms: N1_4  and  C1_6 
REMARK    4  A    between atoms: C1_6  and  C2_7 
REMARK    5  A    between atoms: C2_7  and  C3_8 
REMARK    6  A    between atoms: C3_8  and  C4_9 
REMARK    7  A    between atoms: C4_9  and  C5_10 
REMARK    8  A    between atoms: C5_10  and  C6_11 
REMARK    9  A    between atoms: C6_11  and  C7_12 
REMARK   10  A    between atoms: C15_21  and  C16_22 
REMARK   11  A    between atoms: C17_26  and  C18_27 
REMARK   12  A    between atoms: C18_27  and  S2_28 
REMARK   13  A    between atoms: S2_28  and  C19_29 
ROOT
HETATM    1  C12 UNL     1      87.225  92.815 148.582  1.00  0.00     0.079 A 
HETATM    2  C13 UNL     1      86.342  93.228 149.595  1.00  0.00     0.026 A 
HETATM    3  C14 UNL     1      85.100  92.700 149.645  1.00  0.00     0.017 A 
HETATM    4  C15 UNL     1      84.639  91.759 148.742  1.00  0.00     0.010 A 
HETATM    5  C25 UNL     1      85.495  91.349 147.753  1.00  0.00     0.017 A 
HETATM    6  C26 UNL     1      86.792  91.896 147.693  1.00  0.00     0.026 A 
ENDROOT
BRANCH   1   7
HETATM    7  S1  UNL     1      88.789  93.576 148.601  1.00  0.00     0.258 S 
HETATM    8  O1  UNL     1      88.728  95.027 148.261  1.00  0.00    -0.201 OA
HETATM    9  O2  UNL     1      89.269  93.508 150.044  1.00  0.00    -0.201 OA
BRANCH   7  10
HETATM   10  N1  UNL     1      89.892  92.809 147.551  1.00  0.00    -0.315 N 
ATOM     11  H1  UNL     1      89.618  92.024 146.959  1.00  0.00     0.172 HD
BRANCH  10  12
HETATM   12  C1  UNL     1      91.228  93.335 147.549  1.00  0.00     0.132 C 
BRANCH  12  13
HETATM   13  C2  UNL     1      92.198  92.184 147.648  1.00  0.00     0.020 C 
BRANCH  13  14
HETATM   14  C3  UNL     1      92.098  91.198 146.534  1.00  0.00     0.002 C 
BRANCH  14  15
HETATM   15  C4  UNL     1      92.850  89.906 146.924  1.00  0.00     0.000 C 
BRANCH  15  16
HETATM   16  C5  UNL     1      93.210  90.016 148.400  1.00  0.00     0.000 C 
BRANCH  16  17
HETATM   17  C6  UNL     1      94.632  89.808 148.716  1.00  0.00     0.005 C 
BRANCH  17  18
HETATM   18  C7  UNL     1      95.481  91.054 148.589  1.00  0.00    -0.011 C 
HETATM   19  C8  UNL     1      96.818  90.761 147.953  1.00  0.00     0.031 C 
HETATM   20  C9  UNL     1      97.739  91.945 148.184  1.00  0.00     0.168 C 
HETATM   21  O3  UNL     1      98.024  92.158 149.509  1.00  0.00    -0.391 OA
HETATM   22  C10 UNL     1      97.145  91.494 150.377  1.00  0.00     0.168 C 
HETATM   23  C11 UNL     1      95.736  91.736 149.889  1.00  0.00     0.031 C 
ENDBRANCH  17  18
ENDBRANCH  16  17
ENDBRANCH  15  16
ENDBRANCH  14  15
ENDBRANCH  13  14
ENDBRANCH  12  13
ENDBRANCH  10  12
ENDBRANCH   7  10
ENDBRANCH   1   7
BRANCH   4  24
HETATM   24  C16 UNL     1      83.274  91.269 148.879  1.00  0.00     0.137 A 
HETATM   25  N2  UNL     1      82.115  91.652 148.331  1.00  0.00    -0.242 N 
HETATM   26  O4  UNL     1      81.136  90.907 148.789  1.00  0.00    -0.222 OA
ATOM     27  H2  UNL     1      82.007  92.411 147.657  1.00  0.00     0.196 HD
HETATM   28  C17 UNL     1      81.617  90.008 149.654  1.00  0.00     0.158 A 
HETATM   29  N3  UNL     1      82.920  90.246 149.693  1.00  0.00    -0.322 N 
ATOM     30  H3  UNL     1      83.578  89.720 150.267  1.00  0.00     0.169 HD
BRANCH  28  31
HETATM   31  C18 UNL     1      80.815  88.978 150.398  1.00  0.00     0.166 C 
BRANCH  31  32
HETATM   32  S2  UNL     1      81.070  87.315 149.822  1.00  0.00    -0.122 SA
BRANCH  32  33
HETATM   33  C19 UNL     1      82.416  86.447 150.550  1.00  0.00     0.001 A 
HETATM   34  C20 UNL     1      82.304  85.064 150.644  1.00  0.00     0.018 A 
HETATM   35  C21 UNL     1      83.285  84.267 151.177  1.00  0.00     0.001 A 
HETATM   36  C22 UNL     1      84.425  84.877 151.638  1.00  0.00     0.000 A 
HETATM   37  C23 UNL     1      84.610  86.240 151.578  1.00  0.00     0.001 A 
HETATM   38  C24 UNL     1      83.582  86.991 151.024  1.00  0.00     0.018 A 
ENDBRANCH  32  33
ENDBRANCH  31  32
ENDBRANCH  28  31
ENDBRANCH   4  24
TORSDOF 13
ENDMDL
