MODEL 1
REMARK VINA RESULT: -9.767082496      0.000      0.000
REMARK  14 active torsions:
REMARK  status: ('A' for Active; 'I' for Inactive)
REMARK    1  A    between atoms: C2_2  and  O2_4 
REMARK    2  A    between atoms: O2_4  and  C3_5 
REMARK    3  A    between atoms: C3_5  and  C4_6 
REMARK    4  A    between atoms: C4_6  and  N1_7 
REMARK    5  A    between atoms: N1_7  and  C5_9 
REMARK    6  A    between atoms: C5_9  and  C6_10 
REMARK    7  A    between atoms: C6_10  and  C7_11 
REMARK    8  A    between atoms: C7_11  and  C8_12 
REMARK    9  A    between atoms: C17_21  and  C18_22 
REMARK   10  A    between atoms: C18_22  and  N2_23 
REMARK   11  A    between atoms: C20_25  and  C21_26 
REMARK   12  A    between atoms: C21_26  and  S1_27 
REMARK   13  A    between atoms: S1_27  and  C22_28 
REMARK   14  A    between atoms: C22_28  and  C23_29 
ROOT
HETATM    1  C5  UNL     1      83.332  90.361 149.205  1.00  0.00     0.029 C 
HETATM    2  C14 UNL     1      83.734  90.916 150.526  1.00  0.00     0.031 C 
HETATM    3  C15 UNL     1      85.166  91.389 150.629  1.00  0.00     0.003 C 
HETATM    4  C16 UNL     1      85.436  92.341 149.492  1.00  0.00     0.006 C 
HETATM    5  C17 UNL     1      85.400  91.469 148.235  1.00  0.00     0.008 C 
HETATM    6  C29 UNL     1      83.969  91.113 148.042  1.00  0.00     0.037 C 
ENDROOT
BRANCH   5   7
HETATM    7  C18 UNL     1      85.805  92.298 147.043  1.00  0.00     0.154 C 
BRANCH   7   8
HETATM    8  N2  UNL     1      86.921  93.154 147.226  1.00  0.00    -0.287 N 
HETATM    9  C19 UNL     1      88.189  92.844 147.539  1.00  0.00     0.138 A 
HETATM   10  C20 UNL     1      88.927  94.007 147.608  1.00  0.00     0.053 A 
HETATM   11  N3  UNL     1      88.065  94.988 147.330  1.00  0.00    -0.288 N 
HETATM   12  N4  UNL     1      86.881  94.483 147.103  1.00  0.00    -0.241 N 
ATOM     13  H3  UNL     1      88.296  95.980 147.298  1.00  0.00     0.188 HD
ATOM     14  H4  UNL     1      86.050  95.025 146.869  1.00  0.00     0.208 HD
BRANCH  10  15
HETATM   15  C21 UNL     1      90.357  94.192 147.923  1.00  0.00     0.134 C 
BRANCH  15  16
HETATM   16  S1  UNL     1      91.343  92.725 147.672  1.00  0.00    -0.158 SA
BRANCH  16  17
HETATM   17  C22 UNL     1      92.270  92.289 149.154  1.00  0.00     0.112 C 
BRANCH  17  18
HETATM   18  C23 UNL     1      93.579  91.663 148.832  1.00  0.00    -0.049 A 
HETATM   19  C24 UNL     1      94.701  91.938 149.536  1.00  0.00     0.008 A 
HETATM   20  C25 UNL     1      95.893  91.339 149.205  1.00  0.00     0.001 A 
HETATM   21  C26 UNL     1      95.932  90.463 148.154  1.00  0.00     0.000 A 
HETATM   22  C27 UNL     1      94.802  90.154 147.405  1.00  0.00     0.001 A 
HETATM   23  C28 UNL     1      93.632  90.773 147.770  1.00  0.00     0.008 A 
ENDBRANCH  17  18
ENDBRANCH  16  17
ENDBRANCH  15  16
ENDBRANCH  10  15
ENDBRANCH   7   8
ENDBRANCH   5   7
BRANCH   1  24
HETATM   24  N1  UNL     1      81.948  90.483 148.983  1.00  0.00    -0.391 N 
ATOM     25  H1  UNL     1      81.543  89.899 148.253  1.00  0.00     0.159 HD
BRANCH  24  26
HETATM   26  C4  UNL     1      81.094  91.317 149.663  1.00  0.00     0.083 C 
BRANCH  26  27
HETATM   27  C3  UNL     1      79.624  91.134 149.626  1.00  0.00     0.222 C 
BRANCH  27  28
HETATM   28  O2  UNL     1      79.014  91.176 148.377  1.00  0.00    -0.317 OA
BRANCH  28  29
HETATM   29  C2  UNL     1      77.668  91.224 148.111  1.00  0.00     0.255 C 
HETATM   30  C1  UNL     1      76.730  91.916 149.073  1.00  0.00     0.126 C 
HETATM   31  O1  UNL     1      77.245  90.689 147.067  1.00  0.00    -0.266 OA
ENDBRANCH  28  29
ENDBRANCH  27  28
ENDBRANCH  26  27
ENDBRANCH  24  26
ENDBRANCH   1  24
BRANCH   1  32
HETATM   32  C6  UNL     1      83.846  88.939 149.149  1.00  0.00     0.031 C 
BRANCH  32  33
HETATM   33  C7  UNL     1      82.797  87.888 149.108  1.00  0.00     0.007 C 
BRANCH  33  34
HETATM   34  C8  UNL     1      82.982  86.866 150.213  1.00  0.00    -0.014 C 
HETATM   35  C9  UNL     1      82.775  85.468 149.712  1.00  0.00     0.004 C 
HETATM   36  C10 UNL     1      82.921  84.480 150.849  1.00  0.00     0.000 C 
HETATM   37  C11 UNL     1      84.277  84.676 151.477  1.00  0.00     0.000 C 
HETATM   38  C12 UNL     1      84.346  86.062 152.075  1.00  0.00     0.000 C 
HETATM   39  C13 UNL     1      84.273  87.059 150.956  1.00  0.00     0.004 C 
ENDBRANCH  33  34
ENDBRANCH  32  33
ENDBRANCH   1  32
TORSDOF 14
ENDMDL
MODEL 2
REMARK VINA RESULT: -9.766072242      1.300      2.011
REMARK  14 active torsions:
REMARK  status: ('A' for Active; 'I' for Inactive)
REMARK    1  A    between atoms: C2_2  and  O2_4 
REMARK    2  A    between atoms: O2_4  and  C3_5 
REMARK    3  A    between atoms: C3_5  and  C4_6 
REMARK    4  A    between atoms: C4_6  and  N1_7 
REMARK    5  A    between atoms: N1_7  and  C5_9 
REMARK    6  A    between atoms: C5_9  and  C6_10 
REMARK    7  A    between atoms: C6_10  and  C7_11 
REMARK    8  A    between atoms: C7_11  and  C8_12 
REMARK    9  A    between atoms: C17_21  and  C18_22 
REMARK   10  A    between atoms: C18_22  and  N2_23 
REMARK   11  A    between atoms: C20_25  and  C21_26 
REMARK   12  A    between atoms: C21_26  and  S1_27 
REMARK   13  A    between atoms: S1_27  and  C22_28 
REMARK   14  A    between atoms: C22_28  and  C23_29 
ROOT
HETATM    1  C5  UNL     1      83.248  90.516 149.177  1.00  0.00     0.029 C 
HETATM    2  C14 UNL     1      83.666  91.094 150.483  1.00  0.00     0.031 C 
HETATM    3  C15 UNL     1      85.122  91.483 150.590  1.00  0.00     0.003 C 
HETATM    4  C16 UNL     1      85.465  92.375 149.424  1.00  0.00     0.006 C 
HETATM    5  C17 UNL     1      85.392  91.460 148.199  1.00  0.00     0.008 C 
HETATM    6  C29 UNL     1      83.945  91.185 147.998  1.00  0.00     0.037 C 
ENDROOT
BRANCH   5   7
HETATM    7  C18 UNL     1      85.862  92.218 146.984  1.00  0.00     0.154 C 
BRANCH   7   8
HETATM    8  N2  UNL     1      86.947  93.110 147.184  1.00  0.00    -0.287 N 
HETATM    9  C19 UNL     1      88.214  92.843 147.536  1.00  0.00     0.138 A 
HETATM   10  C20 UNL     1      88.915  94.029 147.607  1.00  0.00     0.053 A 
HETATM   11  N3  UNL     1      88.032  94.979 147.290  1.00  0.00    -0.288 N 
HETATM   12  N4  UNL     1      86.870  94.436 147.040  1.00  0.00    -0.241 N 
ATOM     13  H3  UNL     1      88.234  95.977 147.249  1.00  0.00     0.188 HD
ATOM     14  H4  UNL     1      86.030  94.948 146.774  1.00  0.00     0.208 HD
BRANCH  10  15
HETATM   15  C21 UNL     1      90.330  94.261 147.958  1.00  0.00     0.134 C 
BRANCH  15  16
HETATM   16  S1  UNL     1      91.386  92.856 147.650  1.00  0.00    -0.158 SA
BRANCH  16  17
HETATM   17  C22 UNL     1      92.232  92.323 149.148  1.00  0.00     0.112 C 
BRANCH  17  18
HETATM   18  C23 UNL     1      93.531  91.664 148.853  1.00  0.00    -0.049 A 
HETATM   19  C24 UNL     1      93.664  90.739 147.873  1.00  0.00     0.008 A 
HETATM   20  C25 UNL     1      94.883  90.152 147.633  1.00  0.00     0.001 A 
HETATM   21  C26 UNL     1      95.960  90.512 148.396  1.00  0.00     0.000 A 
HETATM   22  C27 UNL     1      95.867  91.456 149.412  1.00  0.00     0.001 A 
HETATM   23  C28 UNL     1      94.631  92.020 149.618  1.00  0.00     0.008 A 
ENDBRANCH  17  18
ENDBRANCH  16  17
ENDBRANCH  15  16
ENDBRANCH  10  15
ENDBRANCH   7   8
ENDBRANCH   5   7
BRANCH   1  24
HETATM   24  N1  UNL     1      81.877  90.713 148.931  1.00  0.00    -0.391 N 
ATOM     25  H1  UNL     1      81.452  90.147 148.197  1.00  0.00     0.159 HD
BRANCH  24  26
HETATM   26  C4  UNL     1      81.059  91.600 149.588  1.00  0.00     0.083 C 
BRANCH  26  27
HETATM   27  C3  UNL     1      80.017  91.148 150.541  1.00  0.00     0.222 C 
BRANCH  27  28
HETATM   28  O2  UNL     1      80.322  90.045 151.332  1.00  0.00    -0.317 OA
BRANCH  28  29
HETATM   29  C2  UNL     1      80.083  88.725 151.042  1.00  0.00     0.255 C 
HETATM   30  C1  UNL     1      80.180  87.681 152.129  1.00  0.00     0.126 C 
HETATM   31  O1  UNL     1      79.785  88.415 149.872  1.00  0.00    -0.266 OA
ENDBRANCH  28  29
ENDBRANCH  27  28
ENDBRANCH  26  27
ENDBRANCH  24  26
ENDBRANCH   1  24
BRANCH   1  32
HETATM   32  C6  UNL     1      83.674  89.064 149.180  1.00  0.00     0.031 C 
BRANCH  32  33
HETATM   33  C7  UNL     1      83.624  88.392 150.503  1.00  0.00     0.007 C 
BRANCH  33  34
HETATM   34  C8  UNL     1      83.707  86.883 150.371  1.00  0.00    -0.014 C 
HETATM   35  C9  UNL     1      83.911  86.224 151.702  1.00  0.00     0.004 C 
HETATM   36  C10 UNL     1      84.036  84.726 151.528  1.00  0.00     0.000 C 
HETATM   37  C11 UNL     1      82.805  84.226 150.816  1.00  0.00     0.000 C 
HETATM   38  C12 UNL     1      82.756  84.837 149.434  1.00  0.00     0.000 C 
HETATM   39  C13 UNL     1      82.562  86.317 149.582  1.00  0.00     0.004 C 
ENDBRANCH  33  34
ENDBRANCH  32  33
ENDBRANCH   1  32
TORSDOF 14
ENDMDL
MODEL 3
REMARK VINA RESULT: -9.753687342      1.578      2.192
REMARK  14 active torsions:
REMARK  status: ('A' for Active; 'I' for Inactive)
REMARK    1  A    between atoms: C2_2  and  O2_4 
REMARK    2  A    between atoms: O2_4  and  C3_5 
REMARK    3  A    between atoms: C3_5  and  C4_6 
REMARK    4  A    between atoms: C4_6  and  N1_7 
REMARK    5  A    between atoms: N1_7  and  C5_9 
REMARK    6  A    between atoms: C5_9  and  C6_10 
REMARK    7  A    between atoms: C6_10  and  C7_11 
REMARK    8  A    between atoms: C7_11  and  C8_12 
REMARK    9  A    between atoms: C17_21  and  C18_22 
REMARK   10  A    between atoms: C18_22  and  N2_23 
REMARK   11  A    between atoms: C20_25  and  C21_26 
REMARK   12  A    between atoms: C21_26  and  S1_27 
REMARK   13  A    between atoms: S1_27  and  C22_28 
REMARK   14  A    between atoms: C22_28  and  C23_29 
ROOT
HETATM    1  C5  UNL     1      83.298  90.530 149.139  1.00  0.00     0.029 C 
HETATM    2  C14 UNL     1      83.672  91.121 150.453  1.00  0.00     0.031 C 
HETATM    3  C15 UNL     1      85.107  91.577 150.580  1.00  0.00     0.003 C 
HETATM    4  C16 UNL     1      85.424  92.488 149.423  1.00  0.00     0.006 C 
HETATM    5  C17 UNL     1      85.409  91.577 148.193  1.00  0.00     0.008 C 
HETATM    6  C29 UNL     1      83.979  91.236 147.972  1.00  0.00     0.037 C 
ENDROOT
BRANCH   5   7
HETATM    7  C18 UNL     1      85.859  92.361 146.987  1.00  0.00     0.154 C 
BRANCH   7   8
HETATM    8  N2  UNL     1      86.967  93.225 147.180  1.00  0.00    -0.287 N 
HETATM    9  C19 UNL     1      88.229  92.926 147.526  1.00  0.00     0.138 A 
HETATM   10  C20 UNL     1      88.962  94.093 147.593  1.00  0.00     0.053 A 
HETATM   11  N3  UNL     1      88.102  95.065 147.280  1.00  0.00    -0.288 N 
HETATM   12  N4  UNL     1      86.925  94.552 147.036  1.00  0.00    -0.241 N 
ATOM     13  H3  UNL     1      88.330  96.058 147.237  1.00  0.00     0.188 HD
ATOM     14  H4  UNL     1      86.097  95.086 146.774  1.00  0.00     0.208 HD
BRANCH  10  15
HETATM   15  C21 UNL     1      90.383  94.288 147.936  1.00  0.00     0.134 C 
BRANCH  15  16
HETATM   16  S1  UNL     1      91.397  92.847 147.647  1.00  0.00    -0.158 SA
BRANCH  16  17
HETATM   17  C22 UNL     1      92.219  92.303 149.154  1.00  0.00     0.112 C 
BRANCH  17  18
HETATM   18  C23 UNL     1      93.537  91.675 148.877  1.00  0.00    -0.049 A 
HETATM   19  C24 UNL     1      94.645  91.977 149.595  1.00  0.00     0.008 A 
HETATM   20  C25 UNL     1      95.845  91.375 149.305  1.00  0.00     0.001 A 
HETATM   21  C26 UNL     1      95.909  90.467 148.283  1.00  0.00     0.000 A 
HETATM   22  C27 UNL     1      94.796  90.129 147.523  1.00  0.00     0.001 A 
HETATM   23  C28 UNL     1      93.616  90.752 147.845  1.00  0.00     0.008 A 
ENDBRANCH  17  18
ENDBRANCH  16  17
ENDBRANCH  15  16
ENDBRANCH  10  15
ENDBRANCH   7   8
ENDBRANCH   5   7
BRANCH   1  24
HETATM   24  N1  UNL     1      81.923  90.664 148.875  1.00  0.00    -0.391 N 
ATOM     25  H1  UNL     1      81.649  90.804 147.903  1.00  0.00     0.159 HD
BRANCH  24  26
HETATM   26  C4  UNL     1      80.915  90.624 149.808  1.00  0.00     0.083 C 
BRANCH  26  27
HETATM   27  C3  UNL     1      80.191  89.372 150.128  1.00  0.00     0.222 C 
BRANCH  27  28
HETATM   28  O2  UNL     1      80.434  88.804 151.375  1.00  0.00    -0.317 OA
BRANCH  28  29
HETATM   29  C2  UNL     1      79.915  87.634 151.869  1.00  0.00     0.255 C 
HETATM   30  C1  UNL     1      80.666  86.857 152.924  1.00  0.00     0.126 C 
HETATM   31  O1  UNL     1      78.818  87.234 151.429  1.00  0.00    -0.266 OA
ENDBRANCH  28  29
ENDBRANCH  27  28
ENDBRANCH  26  27
ENDBRANCH  24  26
ENDBRANCH   1  24
BRANCH   1  32
HETATM   32  C6  UNL     1      83.791  89.099 149.142  1.00  0.00     0.031 C 
BRANCH  32  33
HETATM   33  C7  UNL     1      83.811  88.439 150.471  1.00  0.00     0.007 C 
BRANCH  33  34
HETATM   34  C8  UNL     1      83.809  86.927 150.349  1.00  0.00    -0.014 C 
HETATM   35  C9  UNL     1      84.039  86.266 151.674  1.00  0.00     0.004 C 
HETATM   36  C10 UNL     1      84.077  84.762 151.508  1.00  0.00     0.000 C 
HETATM   37  C11 UNL     1      82.789  84.325 150.858  1.00  0.00     0.000 C 
HETATM   38  C12 UNL     1      82.707  84.929 149.475  1.00  0.00     0.000 C 
HETATM   39  C13 UNL     1      82.599  86.418 149.619  1.00  0.00     0.004 C 
ENDBRANCH  33  34
ENDBRANCH  32  33
ENDBRANCH   1  32
TORSDOF 14
ENDMDL
MODEL 4
REMARK VINA RESULT: -9.731340194      1.459      2.060
REMARK  14 active torsions:
REMARK  status: ('A' for Active; 'I' for Inactive)
REMARK    1  A    between atoms: C2_2  and  O2_4 
REMARK    2  A    between atoms: O2_4  and  C3_5 
REMARK    3  A    between atoms: C3_5  and  C4_6 
REMARK    4  A    between atoms: C4_6  and  N1_7 
REMARK    5  A    between atoms: N1_7  and  C5_9 
REMARK    6  A    between atoms: C5_9  and  C6_10 
REMARK    7  A    between atoms: C6_10  and  C7_11 
REMARK    8  A    between atoms: C7_11  and  C8_12 
REMARK    9  A    between atoms: C17_21  and  C18_22 
REMARK   10  A    between atoms: C18_22  and  N2_23 
REMARK   11  A    between atoms: C20_25  and  C21_26 
REMARK   12  A    between atoms: C21_26  and  S1_27 
REMARK   13  A    between atoms: S1_27  and  C22_28 
REMARK   14  A    between atoms: C22_28  and  C23_29 
ROOT
HETATM    1  C5  UNL     1      83.334  90.360 149.231  1.00  0.00     0.029 C 
HETATM    2  C14 UNL     1      83.745  90.884 150.563  1.00  0.00     0.031 C 
HETATM    3  C15 UNL     1      85.173  91.367 150.663  1.00  0.00     0.003 C 
HETATM    4  C16 UNL     1      85.423  92.352 149.550  1.00  0.00     0.006 C 
HETATM    5  C17 UNL     1      85.381  91.513 148.270  1.00  0.00     0.008 C 
HETATM    6  C29 UNL     1      83.952  91.149 148.083  1.00  0.00     0.037 C 
ENDROOT
BRANCH   5   7
HETATM    7  C18 UNL     1      85.766  92.377 147.096  1.00  0.00     0.154 C 
BRANCH   7   8
HETATM    8  N2  UNL     1      86.895  93.217 147.280  1.00  0.00    -0.287 N 
HETATM    9  C19 UNL     1      88.164  92.886 147.565  1.00  0.00     0.138 A 
HETATM   10  C20 UNL     1      88.916  94.039 147.649  1.00  0.00     0.053 A 
HETATM   11  N3  UNL     1      88.061  95.035 147.408  1.00  0.00    -0.288 N 
HETATM   12  N4  UNL     1      86.867  94.549 147.190  1.00  0.00    -0.241 N 
ATOM     13  H3  UNL     1      88.302  96.026 147.396  1.00  0.00     0.188 HD
ATOM     14  H4  UNL     1      86.038  95.105 146.982  1.00  0.00     0.208 HD
BRANCH  10  15
HETATM   15  C21 UNL     1      90.353  94.201 147.944  1.00  0.00     0.134 C 
BRANCH  15  16
HETATM   16  S1  UNL     1      91.319  92.731 147.638  1.00  0.00    -0.158 SA
BRANCH  16  17
HETATM   17  C22 UNL     1      92.305  92.275 149.075  1.00  0.00     0.112 C 
BRANCH  17  18
HETATM   18  C23 UNL     1      93.556  91.569 148.694  1.00  0.00    -0.049 A 
HETATM   19  C24 UNL     1      93.606  90.700 147.657  1.00  0.00     0.008 A 
HETATM   20  C25 UNL     1      94.782  90.066 147.339  1.00  0.00     0.001 A 
HETATM   21  C26 UNL     1      95.902  90.322 148.083  1.00  0.00     0.000 A 
HETATM   22  C27 UNL     1      95.894  91.206 149.155  1.00  0.00     0.001 A 
HETATM   23  C28 UNL     1      94.698  91.820 149.439  1.00  0.00     0.008 A 
ENDBRANCH  17  18
ENDBRANCH  16  17
ENDBRANCH  15  16
ENDBRANCH  10  15
ENDBRANCH   7   8
ENDBRANCH   5   7
BRANCH   1  24
HETATM   24  N1  UNL     1      81.947  90.475 149.028  1.00  0.00    -0.391 N 
ATOM     25  H1  UNL     1      81.590  90.214 148.108  1.00  0.00     0.159 HD
BRANCH  24  26
HETATM   26  C4  UNL     1      81.029  90.907 149.954  1.00  0.00     0.083 C 
BRANCH  26  27
HETATM   27  C3  UNL     1      79.979  90.011 150.495  1.00  0.00     0.222 C 
BRANCH  27  28
HETATM   28  O2  UNL     1      80.354  89.148 151.520  1.00  0.00    -0.317 OA
BRANCH  28  29
HETATM   29  C2  UNL     1      80.020  87.824 151.653  1.00  0.00     0.255 C 
HETATM   30  C1  UNL     1      80.516  87.032 152.840  1.00  0.00     0.126 C 
HETATM   31  O1  UNL     1      79.303  87.297 150.778  1.00  0.00    -0.266 OA
ENDBRANCH  28  29
ENDBRANCH  27  28
ENDBRANCH  26  27
ENDBRANCH  24  26
ENDBRANCH   1  24
BRANCH   1  32
HETATM   32  C6  UNL     1      83.860  88.945 149.132  1.00  0.00     0.031 C 
BRANCH  32  33
HETATM   33  C7  UNL     1      82.821  87.886 149.067  1.00  0.00     0.007 C 
BRANCH  33  34
HETATM   34  C8  UNL     1      82.983  86.870 150.181  1.00  0.00    -0.014 C 
HETATM   35  C9  UNL     1      82.771  85.471 149.687  1.00  0.00     0.004 C 
HETATM   36  C10 UNL     1      82.894  84.488 150.832  1.00  0.00     0.000 C 
HETATM   37  C11 UNL     1      84.244  84.677 151.475  1.00  0.00     0.000 C 
HETATM   38  C12 UNL     1      84.317  86.066 152.064  1.00  0.00     0.000 C 
HETATM   39  C13 UNL     1      84.266  87.057 150.939  1.00  0.00     0.004 C 
ENDBRANCH  33  34
ENDBRANCH  32  33
ENDBRANCH   1  32
TORSDOF 14
ENDMDL
MODEL 5
REMARK VINA RESULT: -9.644425184      0.579      1.347
REMARK  14 active torsions:
REMARK  status: ('A' for Active; 'I' for Inactive)
REMARK    1  A    between atoms: C2_2  and  O2_4 
REMARK    2  A    between atoms: O2_4  and  C3_5 
REMARK    3  A    between atoms: C3_5  and  C4_6 
REMARK    4  A    between atoms: C4_6  and  N1_7 
REMARK    5  A    between atoms: N1_7  and  C5_9 
REMARK    6  A    between atoms: C5_9  and  C6_10 
REMARK    7  A    between atoms: C6_10  and  C7_11 
REMARK    8  A    between atoms: C7_11  and  C8_12 
REMARK    9  A    between atoms: C17_21  and  C18_22 
REMARK   10  A    between atoms: C18_22  and  N2_23 
REMARK   11  A    between atoms: C20_25  and  C21_26 
REMARK   12  A    between atoms: C21_26  and  S1_27 
REMARK   13  A    between atoms: S1_27  and  C22_28 
REMARK   14  A    between atoms: C22_28  and  C23_29 
ROOT
HETATM    1  C5  UNL     1      83.239  90.548 149.104  1.00  0.00     0.029 C 
HETATM    2  C14 UNL     1      83.631  91.143 150.410  1.00  0.00     0.031 C 
HETATM    3  C15 UNL     1      85.096  91.485 150.560  1.00  0.00     0.003 C 
HETATM    4  C16 UNL     1      85.509  92.337 149.387  1.00  0.00     0.006 C 
HETATM    5  C17 UNL     1      85.447  91.397 148.181  1.00  0.00     0.008 C 
HETATM    6  C29 UNL     1      83.999  91.166 147.935  1.00  0.00     0.037 C 
ENDROOT
BRANCH   5   7
HETATM    7  C18 UNL     1      85.985  92.109 146.967  1.00  0.00     0.154 C 
BRANCH   7   8
HETATM    8  N2  UNL     1      87.018  93.053 147.201  1.00  0.00    -0.287 N 
HETATM    9  C19 UNL     1      88.296  92.845 147.554  1.00  0.00     0.138 A 
HETATM   10  C20 UNL     1      88.931  94.065 147.666  1.00  0.00     0.053 A 
HETATM   11  N3  UNL     1      87.999  94.974 147.371  1.00  0.00    -0.288 N 
HETATM   12  N4  UNL     1      86.870  94.376 147.096  1.00  0.00    -0.241 N 
ATOM     13  H3  UNL     1      88.146  95.983 147.362  1.00  0.00     0.188 HD
ATOM     14  H4  UNL     1      86.004  94.850 146.840  1.00  0.00     0.208 HD
BRANCH  10  15
HETATM   15  C21 UNL     1      90.328  94.363 148.034  1.00  0.00     0.134 C 
BRANCH  15  16
HETATM   16  S1  UNL     1      91.459  93.021 147.707  1.00  0.00    -0.158 SA
BRANCH  16  17
HETATM   17  C22 UNL     1      92.308  92.491 149.205  1.00  0.00     0.112 C 
BRANCH  17  18
HETATM   18  C23 UNL     1      93.553  91.738 148.905  1.00  0.00    -0.049 A 
HETATM   19  C24 UNL     1      93.613  90.805 147.926  1.00  0.00     0.008 A 
HETATM   20  C25 UNL     1      94.784  90.129 147.683  1.00  0.00     0.001 A 
HETATM   21  C26 UNL     1      95.889  90.409 148.441  1.00  0.00     0.000 A 
HETATM   22  C27 UNL     1      95.869  91.359 149.455  1.00  0.00     0.001 A 
HETATM   23  C28 UNL     1      94.680  92.012 149.666  1.00  0.00     0.008 A 
ENDBRANCH  17  18
ENDBRANCH  16  17
ENDBRANCH  15  16
ENDBRANCH  10  15
ENDBRANCH   7   8
ENDBRANCH   5   7
BRANCH   1  24
HETATM   24  N1  UNL     1      81.885  90.786 148.805  1.00  0.00    -0.391 N 
ATOM     25  H1  UNL     1      81.550  90.474 147.893  1.00  0.00     0.159 HD
BRANCH  24  26
HETATM   26  C4  UNL     1      80.973  91.400 149.629  1.00  0.00     0.083 C 
BRANCH  26  27
HETATM   27  C3  UNL     1      79.524  91.100 149.556  1.00  0.00     0.222 C 
BRANCH  27  28
HETATM   28  O2  UNL     1      78.931  91.153 148.299  1.00  0.00    -0.317 OA
BRANCH  28  29
HETATM   29  C2  UNL     1      77.607  90.958 147.997  1.00  0.00     0.255 C 
HETATM   30  C1  UNL     1      77.196  89.830 147.079  1.00  0.00     0.126 C 
HETATM   31  O1  UNL     1      76.760  91.726 148.495  1.00  0.00    -0.266 OA
ENDBRANCH  28  29
ENDBRANCH  27  28
ENDBRANCH  26  27
ENDBRANCH  24  26
ENDBRANCH   1  24
BRANCH   1  32
HETATM   32  C6  UNL     1      83.614  89.084 149.154  1.00  0.00     0.031 C 
BRANCH  32  33
HETATM   33  C7  UNL     1      83.340  88.404 150.445  1.00  0.00     0.007 C 
BRANCH  33  34
HETATM   34  C8  UNL     1      83.591  86.911 150.359  1.00  0.00    -0.014 C 
HETATM   35  C9  UNL     1      83.887  86.322 151.706  1.00  0.00     0.004 C 
HETATM   36  C10 UNL     1      84.177  84.842 151.577  1.00  0.00     0.000 C 
HETATM   37  C11 UNL     1      82.999  84.185 150.903  1.00  0.00     0.000 C 
HETATM   38  C12 UNL     1      82.862  84.741 149.504  1.00  0.00     0.000 C 
HETATM   39  C13 UNL     1      82.505  86.194 149.609  1.00  0.00     0.004 C 
ENDBRANCH  33  34
ENDBRANCH  32  33
ENDBRANCH   1  32
TORSDOF 14
ENDMDL
