MODEL 1
REMARK VINA RESULT: -5.279872195      0.000      0.000
REMARK  8 active torsions:
REMARK  status: ('A' for Active; 'I' for Inactive)
REMARK    1  A    between atoms: N1_1  and  C1_5 
REMARK    2  A    between atoms: C1_5  and  C2_6 
REMARK    3  A    between atoms: C2_6  and  C3_7 
REMARK    4  A    between atoms: C3_7  and  C4_8 
REMARK    5  A    between atoms: C4_8  and  N2_9 
REMARK    6  A    between atoms: N2_9  and  C5_11 
REMARK    7  A    between atoms: N4_16  and  C8_17 
REMARK    8  A    between atoms: N5_18  and  N6_20 
ROOT
HETATM    1  C5  UNL     1     -42.130  11.020   9.566  1.00  0.00     0.677 A 
HETATM    2  N3  UNL     1     -41.041  10.723   8.951  1.00  0.00    -0.225 N 
ATOM      3  H3  UNL     1     -40.919  10.781   7.939  1.00  0.00     0.177 HD
HETATM    4  C6  UNL     1     -40.010  10.298   9.873  1.00  0.00     0.159 A 
HETATM    5  C7  UNL     1     -40.619  10.382  11.240  1.00  0.00     0.168 A 
HETATM    6  N4  UNL     1     -41.961  10.829  10.960  1.00  0.00    -0.177 N 
ENDROOT
BRANCH   1   7
HETATM    7  N2  UNL     1     -43.326  11.470   8.941  1.00  0.00    -0.226 N 
ATOM      8  H2  UNL     1     -43.899  10.807   8.420  1.00  0.00     0.177 HD
BRANCH   7   9
HETATM    9  C4  UNL     1     -43.749  12.871   9.033  1.00  0.00     0.138 C 
BRANCH   9  10
HETATM   10  C3  UNL     1     -42.580  13.771   9.327  1.00  0.00     0.022 C 
BRANCH  10  11
HETATM   11  C2  UNL     1     -42.951  14.628  10.513  1.00  0.00     0.029 C 
BRANCH  11  12
HETATM   12  C1  UNL     1     -41.852  14.680  11.546  1.00  0.00     0.229 C 
BRANCH  12  13
HETATM   13  N1  UNL     1     -42.287  15.263  12.783  1.00  0.00    -0.079 N 
ATOM     14  H13 UNL     1     -43.058  15.912  12.631  1.00  0.00     0.274 HD
ATOM     15  H12 UNL     1     -42.764  14.574  13.365  1.00  0.00     0.274 HD
ATOM     16  H11 UNL     1     -41.525  15.710  13.294  1.00  0.00     0.274 HD
ENDBRANCH  12  13
ENDBRANCH  11  12
ENDBRANCH  10  11
ENDBRANCH   9  10
ENDBRANCH   7   9
ENDBRANCH   1   7
BRANCH   6  17
HETATM   17  C8  UNL     1     -42.943  11.037  11.982  1.00  0.00     0.216 C 
HETATM   18  N5  UNL     1     -42.542  11.545  13.097  1.00  0.00    -0.302 N 
ATOM     19  H5  UNL     1     -41.558  11.782  13.225  1.00  0.00     0.187 HD
BRANCH  18  20
HETATM   20  N6  UNL     1     -43.451  11.769  14.121  1.00  0.00    -0.344 N 
ATOM     21  H62 UNL     1     -43.786  10.977  14.669  1.00  0.00     0.176 HD
ATOM     22  H61 UNL     1     -43.774  12.717  14.315  1.00  0.00     0.176 HD
ENDBRANCH  18  20
ENDBRANCH   6  17
TORSDOF 8
ENDMDL
MODEL 2
REMARK VINA RESULT: -5.274291519      1.829      3.252
REMARK  8 active torsions:
REMARK  status: ('A' for Active; 'I' for Inactive)
REMARK    1  A    between atoms: N1_1  and  C1_5 
REMARK    2  A    between atoms: C1_5  and  C2_6 
REMARK    3  A    between atoms: C2_6  and  C3_7 
REMARK    4  A    between atoms: C3_7  and  C4_8 
REMARK    5  A    between atoms: C4_8  and  N2_9 
REMARK    6  A    between atoms: N2_9  and  C5_11 
REMARK    7  A    between atoms: N4_16  and  C8_17 
REMARK    8  A    between atoms: N5_18  and  N6_20 
ROOT
HETATM    1  C5  UNL     1     -41.289  13.006   9.107  1.00  0.00     0.677 A 
HETATM    2  N3  UNL     1     -40.326  12.383   8.529  1.00  0.00    -0.225 N 
ATOM      3  H3  UNL     1     -40.452  11.669   7.811  1.00  0.00     0.177 HD
HETATM    4  C6  UNL     1     -39.037  12.822   9.023  1.00  0.00     0.159 A 
HETATM    5  C7  UNL     1     -39.326  13.881  10.043  1.00  0.00     0.168 A 
HETATM    6  N4  UNL     1     -40.767  13.927  10.049  1.00  0.00    -0.177 N 
ENDROOT
BRANCH   1   7
HETATM    7  N2  UNL     1     -42.671  12.801   8.842  1.00  0.00    -0.226 N 
ATOM      8  H2  UNL     1     -43.223  13.561   8.446  1.00  0.00     0.177 HD
BRANCH   7   9
HETATM    9  C4  UNL     1     -43.316  11.516   9.131  1.00  0.00     0.138 C 
BRANCH   9  10
HETATM   10  C3  UNL     1     -44.132  11.591  10.391  1.00  0.00     0.022 C 
BRANCH  10  11
HETATM   11  C2  UNL     1     -43.258  11.122  11.530  1.00  0.00     0.029 C 
BRANCH  11  12
HETATM   12  C1  UNL     1     -44.055  10.809  12.772  1.00  0.00     0.229 C 
BRANCH  12  13
HETATM   13  N1  UNL     1     -43.595  11.536  13.919  1.00  0.00    -0.079 N 
ATOM     14  H13 UNL     1     -43.256  12.461  13.656  1.00  0.00     0.274 HD
ATOM     15  H12 UNL     1     -44.375  11.812  14.516  1.00  0.00     0.274 HD
ATOM     16  H11 UNL     1     -42.889  11.024  14.450  1.00  0.00     0.274 HD
ENDBRANCH  12  13
ENDBRANCH  11  12
ENDBRANCH  10  11
ENDBRANCH   9  10
ENDBRANCH   7   9
ENDBRANCH   1   7
BRANCH   6  17
HETATM   17  C8  UNL     1     -41.516  14.800  10.905  1.00  0.00     0.216 C 
HETATM   18  N5  UNL     1     -41.856  14.347  12.063  1.00  0.00    -0.302 N 
ATOM     19  H5  UNL     1     -41.593  13.401  12.340  1.00  0.00     0.187 HD
BRANCH  18  20
HETATM   20  N6  UNL     1     -42.581  15.150  12.933  1.00  0.00    -0.344 N 
ATOM     21  H62 UNL     1     -42.766  16.119  12.676  1.00  0.00     0.176 HD
ATOM     22  H61 UNL     1     -42.919  14.766  13.816  1.00  0.00     0.176 HD
ENDBRANCH  18  20
ENDBRANCH   6  17
TORSDOF 8
ENDMDL
MODEL 3
REMARK VINA RESULT: -5.180187603      2.505      4.665
REMARK  8 active torsions:
REMARK  status: ('A' for Active; 'I' for Inactive)
REMARK    1  A    between atoms: N1_1  and  C1_5 
REMARK    2  A    between atoms: C1_5  and  C2_6 
REMARK    3  A    between atoms: C2_6  and  C3_7 
REMARK    4  A    between atoms: C3_7  and  C4_8 
REMARK    5  A    between atoms: C4_8  and  N2_9 
REMARK    6  A    between atoms: N2_9  and  C5_11 
REMARK    7  A    between atoms: N4_16  and  C8_17 
REMARK    8  A    between atoms: N5_18  and  N6_20 
ROOT
HETATM    1  C5  UNL     1     -41.721  12.145   9.950  1.00  0.00     0.677 A 
HETATM    2  N3  UNL     1     -42.245  11.239   9.205  1.00  0.00    -0.225 N 
ATOM      3  H3  UNL     1     -41.784  10.362   8.957  1.00  0.00     0.177 HD
HETATM    4  C6  UNL     1     -43.570  11.617   8.761  1.00  0.00     0.159 A 
HETATM    5  C7  UNL     1     -43.841  12.958   9.372  1.00  0.00     0.168 A 
HETATM    6  N4  UNL     1     -42.623  13.229  10.093  1.00  0.00    -0.177 N 
ENDROOT
BRANCH   1   7
HETATM    7  N2  UNL     1     -40.430  12.072  10.541  1.00  0.00    -0.226 N 
ATOM      8  H2  UNL     1     -40.319  11.622  11.449  1.00  0.00     0.177 HD
BRANCH   7   9
HETATM    9  C4  UNL     1     -39.254  12.634   9.868  1.00  0.00     0.138 C 
BRANCH   9  10
HETATM   10  C3  UNL     1     -38.011  11.862  10.215  1.00  0.00     0.022 C 
BRANCH  10  11
HETATM   11  C2  UNL     1     -36.825  12.741   9.902  1.00  0.00     0.029 C 
BRANCH  11  12
HETATM   12  C1  UNL     1     -36.213  12.421   8.561  1.00  0.00     0.229 C 
BRANCH  12  13
HETATM   13  N1  UNL     1     -36.308  11.028   8.231  1.00  0.00    -0.079 N 
ATOM     14  H13 UNL     1     -37.079  10.585   8.730  1.00  0.00     0.274 HD
ATOM     15  H12 UNL     1     -36.636  10.899   7.274  1.00  0.00     0.274 HD
ATOM     16  H11 UNL     1     -35.433  10.527   8.390  1.00  0.00     0.274 HD
ENDBRANCH  12  13
ENDBRANCH  11  12
ENDBRANCH  10  11
ENDBRANCH   9  10
ENDBRANCH   7   9
ENDBRANCH   1   7
BRANCH   6  17
HETATM   17  C8  UNL     1     -42.406  14.436  10.833  1.00  0.00     0.216 C 
HETATM   18  N5  UNL     1     -42.497  14.370  12.117  1.00  0.00    -0.302 N 
ATOM     19  H5  UNL     1     -42.716  13.482  12.569  1.00  0.00     0.187 HD
BRANCH  18  20
HETATM   20  N6  UNL     1     -42.296  15.509  12.884  1.00  0.00    -0.344 N 
ATOM     21  H62 UNL     1     -41.615  15.482  13.643  1.00  0.00     0.176 HD
ATOM     22  H61 UNL     1     -42.827  16.357  12.684  1.00  0.00     0.176 HD
ENDBRANCH  18  20
ENDBRANCH   6  17
TORSDOF 8
ENDMDL
MODEL 4
REMARK VINA RESULT: -5.175696752      2.387      3.598
REMARK  8 active torsions:
REMARK  status: ('A' for Active; 'I' for Inactive)
REMARK    1  A    between atoms: N1_1  and  C1_5 
REMARK    2  A    between atoms: C1_5  and  C2_6 
REMARK    3  A    between atoms: C2_6  and  C3_7 
REMARK    4  A    between atoms: C3_7  and  C4_8 
REMARK    5  A    between atoms: C4_8  and  N2_9 
REMARK    6  A    between atoms: N2_9  and  C5_11 
REMARK    7  A    between atoms: N4_16  and  C8_17 
REMARK    8  A    between atoms: N5_18  and  N6_20 
ROOT
HETATM    1  C5  UNL     1     -41.983  12.452   9.649  1.00  0.00     0.677 A 
HETATM    2  N3  UNL     1     -42.536  12.382   8.491  1.00  0.00    -0.225 N 
ATOM      3  H3  UNL     1     -42.077  12.644   7.618  1.00  0.00     0.177 HD
HETATM    4  C6  UNL     1     -43.893  11.885   8.581  1.00  0.00     0.159 A 
HETATM    5  C7  UNL     1     -44.139  11.618  10.035  1.00  0.00     0.168 A 
HETATM    6  N4  UNL     1     -42.893  12.015  10.643  1.00  0.00    -0.177 N 
ENDROOT
BRANCH   1   7
HETATM    7  N2  UNL     1     -40.656  12.902   9.895  1.00  0.00    -0.226 N 
ATOM      8  H2  UNL     1     -39.896  12.224   9.930  1.00  0.00     0.177 HD
BRANCH   7   9
HETATM    9  C4  UNL     1     -40.363  14.324  10.100  1.00  0.00     0.138 C 
BRANCH   9  10
HETATM   10  C3  UNL     1     -38.934  14.638   9.752  1.00  0.00     0.022 C 
BRANCH  10  11
HETATM   11  C2  UNL     1     -38.352  13.420   9.075  1.00  0.00     0.029 C 
BRANCH  11  12
HETATM   12  C1  UNL     1     -37.112  12.917   9.773  1.00  0.00     0.229 C 
BRANCH  12  13
HETATM   13  N1  UNL     1     -37.348  11.710  10.511  1.00  0.00    -0.079 N 
ATOM     14  H13 UNL     1     -38.344  11.499  10.561  1.00  0.00     0.274 HD
ATOM     15  H12 UNL     1     -37.034  10.892   9.987  1.00  0.00     0.274 HD
ATOM     16  H11 UNL     1     -36.930  11.732  11.442  1.00  0.00     0.274 HD
ENDBRANCH  12  13
ENDBRANCH  11  12
ENDBRANCH  10  11
ENDBRANCH   9  10
ENDBRANCH   7   9
ENDBRANCH   1   7
BRANCH   6  17
HETATM   17  C8  UNL     1     -42.661  11.956  12.056  1.00  0.00     0.216 C 
HETATM   18  N5  UNL     1     -43.668  11.680  12.812  1.00  0.00    -0.302 N 
ATOM     19  H5  UNL     1     -44.586  11.514  12.399  1.00  0.00     0.187 HD
BRANCH  18  20
HETATM   20  N6  UNL     1     -43.500  11.608  14.188  1.00  0.00    -0.344 N 
ATOM     21  H62 UNL     1     -43.901  12.340  14.775  1.00  0.00     0.176 HD
ATOM     22  H61 UNL     1     -42.981  10.832  14.596  1.00  0.00     0.176 HD
ENDBRANCH  18  20
ENDBRANCH   6  17
TORSDOF 8
ENDMDL
MODEL 5
REMARK VINA RESULT: -5.104850189      1.477      2.776
REMARK  8 active torsions:
REMARK  status: ('A' for Active; 'I' for Inactive)
REMARK    1  A    between atoms: N1_1  and  C1_5 
REMARK    2  A    between atoms: C1_5  and  C2_6 
REMARK    3  A    between atoms: C2_6  and  C3_7 
REMARK    4  A    between atoms: C3_7  and  C4_8 
REMARK    5  A    between atoms: C4_8  and  N2_9 
REMARK    6  A    between atoms: N2_9  and  C5_11 
REMARK    7  A    between atoms: N4_16  and  C8_17 
REMARK    8  A    between atoms: N5_18  and  N6_20 
ROOT
HETATM    1  C5  UNL     1     -43.592  11.576  10.434  1.00  0.00     0.677 A 
HETATM    2  N3  UNL     1     -44.729  11.473  11.022  1.00  0.00    -0.225 N 
ATOM      3  H3  UNL     1     -45.607  11.828  10.641  1.00  0.00     0.177 HD
HETATM    4  C6  UNL     1     -44.609  10.792  12.294  1.00  0.00     0.159 A 
HETATM    5  C7  UNL     1     -43.159  10.441  12.438  1.00  0.00     0.168 A 
HETATM    6  N4  UNL     1     -42.583  10.983  11.232  1.00  0.00    -0.177 N 
ENDROOT
BRANCH   1   7
HETATM    7  N2  UNL     1     -43.377  12.193   9.171  1.00  0.00    -0.226 N 
ATOM      8  H2  UNL     1     -43.724  11.740   8.326  1.00  0.00     0.177 HD
BRANCH   7   9
HETATM    9  C4  UNL     1     -42.666  13.472   9.062  1.00  0.00     0.138 C 
BRANCH   9  10
HETATM   10  C3  UNL     1     -43.020  14.386  10.202  1.00  0.00     0.022 C 
BRANCH  10  11
HETATM   11  C2  UNL     1     -41.742  14.716  10.936  1.00  0.00     0.029 C 
BRANCH  11  12
HETATM   12  C1  UNL     1     -41.990  15.079  12.380  1.00  0.00     0.229 C 
BRANCH  12  13
HETATM   13  N1  UNL     1     -42.279  13.933  13.194  1.00  0.00    -0.079 N 
ATOM     14  H13 UNL     1     -43.223  13.982  13.574  1.00  0.00     0.274 HD
ATOM     15  H12 UNL     1     -42.375  13.093  12.623  1.00  0.00     0.274 HD
ATOM     16  H11 UNL     1     -41.591  13.796  13.935  1.00  0.00     0.274 HD
ENDBRANCH  12  13
ENDBRANCH  11  12
ENDBRANCH  10  11
ENDBRANCH   9  10
ENDBRANCH   7   9
ENDBRANCH   1   7
BRANCH   6  17
HETATM   17  C8  UNL     1     -41.184  10.904  10.933  1.00  0.00     0.216 C 
HETATM   18  N5  UNL     1     -40.480  10.056  11.602  1.00  0.00    -0.302 N 
ATOM     19  H5  UNL     1     -40.922   9.473  12.314  1.00  0.00     0.187 HD
BRANCH  18  20
HETATM   20  N6  UNL     1     -39.120   9.937  11.353  1.00  0.00    -0.344 N 
ATOM     21  H62 UNL     1     -38.530   9.461  12.036  1.00  0.00     0.176 HD
ATOM     22  H61 UNL     1     -38.725  10.324  10.496  1.00  0.00     0.176 HD
ENDBRANCH  18  20
ENDBRANCH   6  17
TORSDOF 8
ENDMDL
