MODEL 1
REMARK VINA RESULT: -5.213129936      0.000      0.000
REMARK  8 active torsions:
REMARK  status: ('A' for Active; 'I' for Inactive)
REMARK    1  A    between atoms: N1_1  and  C1_5 
REMARK    2  A    between atoms: C1_5  and  C2_6 
REMARK    3  A    between atoms: C2_6  and  C3_7 
REMARK    4  A    between atoms: C3_7  and  C4_8 
REMARK    5  A    between atoms: C4_8  and  C5_9 
REMARK    6  A    between atoms: C5_9  and  N2_10 
REMARK    7  A    between atoms: C5_9  and  C6_14 
REMARK    8  A    between atoms: C9_20  and  N4_21 
ROOT
HETATM    1  C5  UNL     1     -41.728  14.146  11.129  1.00  0.00     0.191 C 
ENDROOT
BRANCH   1   2
HETATM    2  C4  UNL     1     -40.779  14.768  10.135  1.00  0.00     0.033 C 
BRANCH   2   3
HETATM    3  C3  UNL     1     -39.428  14.136  10.139  1.00  0.00     0.004 C 
BRANCH   3   4
HETATM    4  C2  UNL     1     -39.371  12.830   9.391  1.00  0.00     0.027 C 
BRANCH   4   5
HETATM    5  C1  UNL     1     -38.999  11.671  10.260  1.00  0.00     0.229 C 
BRANCH   5   6
HETATM    6  N1  UNL     1     -37.584  11.605  10.546  1.00  0.00    -0.079 N 
ATOM      7  H13 UNL     1     -37.143  12.514  10.406  1.00  0.00     0.274 HD
ATOM      8  H12 UNL     1     -37.421  11.492  11.547  1.00  0.00     0.274 HD
ATOM      9  H11 UNL     1     -37.100  10.881  10.016  1.00  0.00     0.274 HD
ENDBRANCH   5   6
ENDBRANCH   4   5
ENDBRANCH   3   4
ENDBRANCH   2   3
ENDBRANCH   1   2
BRANCH   1  10
HETATM   10  N2  UNL     1     -42.217  15.093  12.093  1.00  0.00    -0.075 N 
ATOM     11  H23 UNL     1     -41.632  15.101  12.928  1.00  0.00     0.274 HD
ATOM     12  H22 UNL     1     -42.064  16.050  11.776  1.00  0.00     0.274 HD
ATOM     13  H21 UNL     1     -43.196  14.937  12.333  1.00  0.00     0.274 HD
ENDBRANCH   1  10
BRANCH   1  14
HETATM   14  C6  UNL     1     -42.888  13.467  10.486  1.00  0.00     0.073 C 
HETATM   15  C7  UNL     1     -42.977  13.677   9.008  1.00  0.00     0.241 C 
HETATM   16  N3  UNL     1     -43.780  12.539   8.576  1.00  0.00    -0.073 N 
HETATM   17  C8  UNL     1     -43.081  11.426   9.210  1.00  0.00     0.265 C 
ATOM     18  H32 UNL     1     -44.775  12.604   8.790  1.00  0.00     0.277 HD
ATOM     19  H31 UNL     1     -43.905  12.454   7.567  1.00  0.00     0.277 HD
HETATM   20  C9  UNL     1     -42.877  11.966  10.628  1.00  0.00     0.216 C 
BRANCH  20  21
HETATM   21  N4  UNL     1     -44.071  11.589  11.369  1.00  0.00    -0.073 N 
ATOM     22  H43 UNL     1     -44.022  11.837  12.357  1.00  0.00     0.274 HD
ATOM     23  H42 UNL     1     -44.884  12.158  11.129  1.00  0.00     0.274 HD
ATOM     24  H41 UNL     1     -44.224  10.592  11.216  1.00  0.00     0.274 HD
ENDBRANCH  20  21
ENDBRANCH   1  14
TORSDOF 8
ENDMDL
MODEL 2
REMARK VINA RESULT: -5.147877411      1.068      1.361
REMARK  8 active torsions:
REMARK  status: ('A' for Active; 'I' for Inactive)
REMARK    1  A    between atoms: N1_1  and  C1_5 
REMARK    2  A    between atoms: C1_5  and  C2_6 
REMARK    3  A    between atoms: C2_6  and  C3_7 
REMARK    4  A    between atoms: C3_7  and  C4_8 
REMARK    5  A    between atoms: C4_8  and  C5_9 
REMARK    6  A    between atoms: C5_9  and  N2_10 
REMARK    7  A    between atoms: C5_9  and  C6_14 
REMARK    8  A    between atoms: C9_20  and  N4_21 
ROOT
HETATM    1  C5  UNL     1     -41.655  14.382  11.476  1.00  0.00     0.191 C 
ENDROOT
BRANCH   1   2
HETATM    2  C4  UNL     1     -41.054  14.600  10.110  1.00  0.00     0.033 C 
BRANCH   2   3
HETATM    3  C3  UNL     1     -39.574  14.417  10.084  1.00  0.00     0.004 C 
BRANCH   3   4
HETATM    4  C2  UNL     1     -39.132  13.190   9.330  1.00  0.00     0.027 C 
BRANCH   4   5
HETATM    5  C1  UNL     1     -38.977  11.986  10.204  1.00  0.00     0.229 C 
BRANCH   5   6
HETATM    6  N1  UNL     1     -37.598  11.652  10.475  1.00  0.00    -0.079 N 
ATOM      7  H13 UNL     1     -37.275  10.911   9.853  1.00  0.00     0.274 HD
ATOM      8  H12 UNL     1     -36.977  12.404  10.177  1.00  0.00     0.274 HD
ATOM      9  H11 UNL     1     -37.428  11.407  11.450  1.00  0.00     0.274 HD
ENDBRANCH   5   6
ENDBRANCH   4   5
ENDBRANCH   3   4
ENDBRANCH   2   3
ENDBRANCH   1   2
BRANCH   1  10
HETATM   10  N2  UNL     1     -42.302  15.557  11.989  1.00  0.00    -0.075 N 
ATOM     11  H23 UNL     1     -41.635  16.318  12.115  1.00  0.00     0.274 HD
ATOM     12  H22 UNL     1     -42.904  15.982  11.283  1.00  0.00     0.274 HD
ATOM     13  H21 UNL     1     -42.818  15.376  12.851  1.00  0.00     0.274 HD
ENDBRANCH   1  10
BRANCH   1  14
HETATM   14  C6  UNL     1     -42.616  13.242  11.518  1.00  0.00     0.073 C 
HETATM   15  C7  UNL     1     -42.945  12.670  10.177  1.00  0.00     0.241 C 
HETATM   16  N3  UNL     1     -43.400  11.326  10.512  1.00  0.00    -0.073 N 
HETATM   17  C8  UNL     1     -42.319  10.851  11.368  1.00  0.00     0.265 C 
ATOM     18  H32 UNL     1     -44.333  11.273  10.922  1.00  0.00     0.277 HD
ATOM     19  H31 UNL     1     -43.615  10.728   9.713  1.00  0.00     0.277 HD
HETATM   20  C9  UNL     1     -42.122  12.051  12.298  1.00  0.00     0.216 C 
BRANCH  20  21
HETATM   21  N4  UNL     1     -43.040  11.844  13.408  1.00  0.00    -0.073 N 
ATOM     22  H43 UNL     1     -42.615  12.028  14.317  1.00  0.00     0.274 HD
ATOM     23  H42 UNL     1     -43.771  12.554  13.457  1.00  0.00     0.274 HD
ATOM     24  H41 UNL     1     -43.411  10.897  13.326  1.00  0.00     0.274 HD
ENDBRANCH  20  21
ENDBRANCH   1  14
TORSDOF 8
ENDMDL
MODEL 3
REMARK VINA RESULT: -5.127457788      1.889      3.921
REMARK  8 active torsions:
REMARK  status: ('A' for Active; 'I' for Inactive)
REMARK    1  A    between atoms: N1_1  and  C1_5 
REMARK    2  A    between atoms: C1_5  and  C2_6 
REMARK    3  A    between atoms: C2_6  and  C3_7 
REMARK    4  A    between atoms: C3_7  and  C4_8 
REMARK    5  A    between atoms: C4_8  and  C5_9 
REMARK    6  A    between atoms: C5_9  and  N2_10 
REMARK    7  A    between atoms: C5_9  and  C6_14 
REMARK    8  A    between atoms: C9_20  and  N4_21 
ROOT
HETATM    1  C5  UNL     1     -42.648  12.004  11.158  1.00  0.00     0.191 C 
ENDROOT
BRANCH   1   2
HETATM    2  C4  UNL     1     -43.477  12.693  10.102  1.00  0.00     0.033 C 
BRANCH   2   3
HETATM    3  C3  UNL     1     -43.116  14.128   9.916  1.00  0.00     0.004 C 
BRANCH   3   4
HETATM    4  C2  UNL     1     -41.916  14.557  10.719  1.00  0.00     0.027 C 
BRANCH   4   5
HETATM    5  C1  UNL     1     -42.228  15.627  11.716  1.00  0.00     0.229 C 
BRANCH   5   6
HETATM    6  N1  UNL     1     -42.406  15.121  13.058  1.00  0.00    -0.079 N 
ATOM      7  H13 UNL     1     -43.210  14.496  13.106  1.00  0.00     0.274 HD
ATOM      8  H12 UNL     1     -41.665  14.461  13.298  1.00  0.00     0.274 HD
ATOM      9  H11 UNL     1     -42.476  15.857  13.759  1.00  0.00     0.274 HD
ENDBRANCH   5   6
ENDBRANCH   4   5
ENDBRANCH   3   4
ENDBRANCH   2   3
ENDBRANCH   1   2
BRANCH   1  10
HETATM   10  N2  UNL     1     -43.440  11.524  12.255  1.00  0.00    -0.075 N 
ATOM     11  H23 UNL     1     -44.414  11.811  12.158  1.00  0.00     0.274 HD
ATOM     12  H22 UNL     1     -43.562  10.512  12.204  1.00  0.00     0.274 HD
ATOM     13  H21 UNL     1     -43.065  11.804  13.162  1.00  0.00     0.274 HD
ENDBRANCH   1  10
BRANCH   1  14
HETATM   14  C6  UNL     1     -41.832  10.878  10.621  1.00  0.00     0.073 C 
HETATM   15  C7  UNL     1     -41.837  10.778   9.129  1.00  0.00     0.241 C 
HETATM   16  N3  UNL     1     -40.612  10.032   8.861  1.00  0.00    -0.073 N 
HETATM   17  C8  UNL     1     -39.630  10.786   9.632  1.00  0.00     0.265 C 
ATOM     18  H32 UNL     1     -40.656   9.035   9.071  1.00  0.00     0.277 HD
ATOM     19  H31 UNL     1     -40.386   9.910   7.873  1.00  0.00     0.277 HD
HETATM   20  C9  UNL     1     -40.367  10.965  10.963  1.00  0.00     0.216 C 
BRANCH  20  21
HETATM   21  N4  UNL     1     -40.034   9.791  11.758  1.00  0.00    -0.073 N 
ATOM     22  H43 UNL     1     -40.195   9.927  12.756  1.00  0.00     0.274 HD
ATOM     23  H42 UNL     1     -40.689   9.021  11.621  1.00  0.00     0.274 HD
ATOM     24  H41 UNL     1     -39.070   9.538  11.540  1.00  0.00     0.274 HD
ENDBRANCH  20  21
ENDBRANCH   1  14
TORSDOF 8
ENDMDL
MODEL 4
REMARK VINA RESULT: -5.121913213      1.910      3.635
REMARK  8 active torsions:
REMARK  status: ('A' for Active; 'I' for Inactive)
REMARK    1  A    between atoms: N1_1  and  C1_5 
REMARK    2  A    between atoms: C1_5  and  C2_6 
REMARK    3  A    between atoms: C2_6  and  C3_7 
REMARK    4  A    between atoms: C3_7  and  C4_8 
REMARK    5  A    between atoms: C4_8  and  C5_9 
REMARK    6  A    between atoms: C5_9  and  N2_10 
REMARK    7  A    between atoms: C5_9  and  C6_14 
REMARK    8  A    between atoms: C9_20  and  N4_21 
ROOT
HETATM    1  C5  UNL     1     -43.213  12.373   8.997  1.00  0.00     0.191 C 
ENDROOT
BRANCH   1   2
HETATM    2  C4  UNL     1     -42.998  13.791   9.465  1.00  0.00     0.033 C 
BRANCH   2   3
HETATM    3  C3  UNL     1     -41.558  14.171   9.545  1.00  0.00     0.004 C 
BRANCH   3   4
HETATM    4  C2  UNL     1     -41.159  14.742  10.880  1.00  0.00     0.027 C 
BRANCH   4   5
HETATM    5  C1  UNL     1     -42.279  15.444  11.579  1.00  0.00     0.229 C 
BRANCH   5   6
HETATM    6  N1  UNL     1     -42.319  15.180  12.999  1.00  0.00    -0.079 N 
ATOM      7  H13 UNL     1     -41.981  14.240  13.203  1.00  0.00     0.274 HD
ATOM      8  H12 UNL     1     -41.609  15.724  13.489  1.00  0.00     0.274 HD
ATOM      9  H11 UNL     1     -43.239  15.332  13.411  1.00  0.00     0.274 HD
ENDBRANCH   5   6
ENDBRANCH   4   5
ENDBRANCH   3   4
ENDBRANCH   2   3
ENDBRANCH   1   2
BRANCH   1  10
HETATM   10  N2  UNL     1     -42.329  12.006   7.926  1.00  0.00    -0.075 N 
ATOM     11  H23 UNL     1     -41.437  12.493   8.004  1.00  0.00     0.274 HD
ATOM     12  H22 UNL     1     -42.002  11.045   8.035  1.00  0.00     0.274 HD
ATOM     13  H21 UNL     1     -42.747  12.150   7.006  1.00  0.00     0.274 HD
ENDBRANCH   1  10
BRANCH   1  14
HETATM   14  C6  UNL     1     -43.091  11.369  10.092  1.00  0.00     0.073 C 
HETATM   15  C7  UNL     1     -41.694  10.893  10.331  1.00  0.00     0.241 C 
HETATM   16  N3  UNL     1     -41.758  10.409  11.706  1.00  0.00    -0.073 N 
HETATM   17  C8  UNL     1     -42.371  11.542  12.390  1.00  0.00     0.265 C 
ATOM     18  H32 UNL     1     -42.237   9.517  11.830  1.00  0.00     0.277 HD
ATOM     19  H31 UNL     1     -40.870  10.095  12.097  1.00  0.00     0.277 HD
HETATM   20  C9  UNL     1     -43.526  11.878  11.442  1.00  0.00     0.216 C 
BRANCH  20  21
HETATM   21  N4  UNL     1     -44.645  11.057  11.878  1.00  0.00    -0.073 N 
ATOM     22  H43 UNL     1     -45.136  10.609  11.104  1.00  0.00     0.274 HD
ATOM     23  H42 UNL     1     -44.351  10.207  12.359  1.00  0.00     0.274 HD
ATOM     24  H41 UNL     1     -45.253  11.646  12.448  1.00  0.00     0.274 HD
ENDBRANCH  20  21
ENDBRANCH   1  14
TORSDOF 8
ENDMDL
MODEL 5
REMARK VINA RESULT: -5.109836182      2.067      3.136
REMARK  8 active torsions:
REMARK  status: ('A' for Active; 'I' for Inactive)
REMARK    1  A    between atoms: N1_1  and  C1_5 
REMARK    2  A    between atoms: C1_5  and  C2_6 
REMARK    3  A    between atoms: C2_6  and  C3_7 
REMARK    4  A    between atoms: C3_7  and  C4_8 
REMARK    5  A    between atoms: C4_8  and  C5_9 
REMARK    6  A    between atoms: C5_9  and  N2_10 
REMARK    7  A    between atoms: C5_9  and  C6_14 
REMARK    8  A    between atoms: C9_20  and  N4_21 
ROOT
HETATM    1  C5  UNL     1     -40.314  10.533  10.801  1.00  0.00     0.191 C 
ENDROOT
BRANCH   1   2
HETATM    2  C4  UNL     1     -39.365  11.410  10.023  1.00  0.00     0.033 C 
BRANCH   2   3
HETATM    3  C3  UNL     1     -37.966  11.364  10.538  1.00  0.00     0.004 C 
BRANCH   3   4
HETATM    4  C2  UNL     1     -37.117  12.520  10.080  1.00  0.00     0.027 C 
BRANCH   4   5
HETATM    5  C1  UNL     1     -36.708  12.417   8.645  1.00  0.00     0.229 C 
BRANCH   5   6
HETATM    6  N1  UNL     1     -36.229  11.102   8.282  1.00  0.00    -0.079 N 
ATOM      7  H13 UNL     1     -35.691  10.689   9.043  1.00  0.00     0.274 HD
ATOM      8  H12 UNL     1     -36.999  10.435   8.239  1.00  0.00     0.274 HD
ATOM      9  H11 UNL     1     -35.694  11.095   7.414  1.00  0.00     0.274 HD
ENDBRANCH   5   6
ENDBRANCH   4   5
ENDBRANCH   3   4
ENDBRANCH   2   3
ENDBRANCH   1   2
BRANCH   1  10
HETATM   10  N2  UNL     1     -39.640   9.716  11.772  1.00  0.00    -0.075 N 
ATOM     11  H23 UNL     1     -38.704  10.071  11.963  1.00  0.00     0.274 HD
ATOM     12  H22 UNL     1     -40.052   9.832  12.698  1.00  0.00     0.274 HD
ATOM     13  H21 UNL     1     -39.610   8.732  11.503  1.00  0.00     0.274 HD
ENDBRANCH   1  10
BRANCH   1  14
HETATM   14  C6  UNL     1     -41.396  11.300  11.483  1.00  0.00     0.073 C 
HETATM   15  C7  UNL     1     -41.533  12.713  11.012  1.00  0.00     0.241 C 
HETATM   16  N3  UNL     1     -42.908  13.034  11.378  1.00  0.00    -0.073 N 
HETATM   17  C8  UNL     1     -43.637  11.903  10.814  1.00  0.00     0.265 C 
ATOM     18  H32 UNL     1     -43.065  13.199  12.372  1.00  0.00     0.277 HD
ATOM     19  H31 UNL     1     -43.234  13.952  11.077  1.00  0.00     0.277 HD
HETATM   20  C9  UNL     1     -42.775  10.726  11.281  1.00  0.00     0.216 C 
BRANCH  20  21
HETATM   21  N4  UNL     1     -43.290  10.356  12.591  1.00  0.00    -0.073 N 
ATOM     22  H43 UNL     1     -42.985  10.988  13.331  1.00  0.00     0.274 HD
ATOM     23  H42 UNL     1     -44.293  10.516  12.684  1.00  0.00     0.274 HD
ATOM     24  H41 UNL     1     -43.024   9.386  12.761  1.00  0.00     0.274 HD
ENDBRANCH  20  21
ENDBRANCH   1  14
TORSDOF 8
ENDMDL
