MODEL 1
REMARK VINA RESULT: -8.988328017      0.000      0.000
REMARK  7 active torsions:
REMARK  status: ('A' for Active; 'I' for Inactive)
REMARK    1  A    between atoms: C2_2  and  O2_4 
REMARK    2  A    between atoms: O2_4  and  C3_5 
REMARK    3  A    between atoms: C11_14  and  C13_16 
REMARK    4  A    between atoms: C18_21  and  C19_22 
REMARK    5  A    between atoms: C19_22  and  C20_23 
REMARK    6  A    between atoms: C23_28  and  O6_29 
REMARK    7  A    between atoms: O6_29  and  O7_30 
ROOT
HETATM    1  C3  UNL     1      -9.450  -9.776  22.087  1.00  0.00     0.139 C 
HETATM    2  C4  UNL     1      -8.500 -10.092  23.246  1.00  0.00     0.111 C 
HETATM    3  C5  UNL     1      -7.200 -10.556  22.624  1.00  0.00     0.134 C 
HETATM    4  O3  UNL     1      -6.570 -11.465  23.084  1.00  0.00    -0.297 OA
HETATM    5  C6  UNL     1      -6.807  -9.772  21.406  1.00  0.00     0.060 C 
HETATM    6  C7  UNL     1      -5.412 -10.118  21.059  1.00  0.00     0.013 C 
HETATM    7  C8  UNL     1      -4.965  -9.494  19.754  1.00  0.00     0.006 C 
HETATM    8  C9  UNL     1      -6.182  -9.225  18.916  1.00  0.00    -0.010 C 
HETATM    9  C10 UNL     1      -5.843  -8.540  17.618  1.00  0.00     0.011 C 
HETATM   10  C11 UNL     1      -7.280 -10.224  18.930  1.00  0.00    -0.030 C 
HETATM   11  C12 UNL     1      -8.350  -9.666  17.984  1.00  0.00     0.016 C 
HETATM   12  C24 UNL     1      -7.845  -9.950  20.336  1.00  0.00     0.008 C 
HETATM   13  C25 UNL     1      -8.992 -10.619  20.868  1.00  0.00     0.039 C 
ENDROOT
BRANCH  10  14
HETATM   14  C13 UNL     1      -7.086 -11.633  18.652  1.00  0.00     0.033 C 
HETATM   15  C14 UNL     1      -8.253 -12.497  19.030  1.00  0.00     0.009 C 
HETATM   16  C15 UNL     1      -8.066 -13.863  18.430  1.00  0.00     0.013 C 
HETATM   17  C16 UNL     1      -7.115 -13.647  17.329  1.00  0.00    -0.005 C 
HETATM   18  C17 UNL     1      -6.081 -14.780  17.349  1.00  0.00     0.019 C 
HETATM   19  C18 UNL     1      -7.810 -13.767  16.018  1.00  0.00     0.007 C 
HETATM   20  C23 UNL     1      -6.506 -12.263  17.459  1.00  0.00     0.108 C 
HETATM   21  C21 UNL     1      -6.883 -12.952  15.145  1.00  0.00     0.009 C 
HETATM   22  C22 UNL     1      -6.673 -11.786  16.094  1.00  0.00     0.043 C 
BRANCH  19  23
HETATM   23  C19 UNL     1      -9.193 -13.278  15.889  1.00  0.00     0.118 C 
BRANCH  23  24
HETATM   24  C20 UNL     1     -10.176 -14.384  15.632  1.00  0.00     0.172 C 
HETATM   25  O4  UNL     1     -11.393 -14.210  15.645  1.00  0.00    -0.648 OA
HETATM   26  O5  UNL     1      -9.673 -15.652  15.369  1.00  0.00    -0.648 OA
ENDBRANCH  23  24
ENDBRANCH  19  23
BRANCH  20  27
HETATM   27  O6  UNL     1      -5.132 -12.451  17.633  1.00  0.00    -0.231 OA
BRANCH  27  28
HETATM   28  O7  UNL     1      -4.325 -11.652  17.075  1.00  0.00    -0.250 OA
ATOM     29  H7  UNL     1      -4.319 -10.740  17.342  1.00  0.00     0.253 HD
ENDBRANCH  27  28
ENDBRANCH  20  27
ENDBRANCH  10  14
BRANCH   1  30
HETATM   30  O2  UNL     1      -9.450  -8.436  21.719  1.00  0.00    -0.316 OA
BRANCH  30  31
HETATM   31  C2  UNL     1     -10.386  -7.866  20.892  1.00  0.00     0.255 C 
HETATM   32  C1  UNL     1      -9.940  -6.894  19.862  1.00  0.00     0.126 C 
HETATM   33  O1  UNL     1     -11.584  -8.196  21.046  1.00  0.00    -0.266 OA
ENDBRANCH  30  31
ENDBRANCH   1  30
TORSDOF 7
ENDMDL
MODEL 2
REMARK VINA RESULT: -8.676570642      2.281      5.982
REMARK  7 active torsions:
REMARK  status: ('A' for Active; 'I' for Inactive)
REMARK    1  A    between atoms: C2_2  and  O2_4 
REMARK    2  A    between atoms: O2_4  and  C3_5 
REMARK    3  A    between atoms: C11_14  and  C13_16 
REMARK    4  A    between atoms: C18_21  and  C19_22 
REMARK    5  A    between atoms: C19_22  and  C20_23 
REMARK    6  A    between atoms: C23_28  and  O6_29 
REMARK    7  A    between atoms: O6_29  and  O7_30 
ROOT
HETATM    1  C3  UNL     1      -8.700 -13.402  17.090  1.00  0.00     0.139 C 
HETATM    2  C4  UNL     1      -9.694 -12.404  16.486  1.00  0.00     0.111 C 
HETATM    3  C5  UNL     1      -9.264 -11.030  16.957  1.00  0.00     0.134 C 
HETATM    4  O3  UNL     1     -10.061 -10.200  17.290  1.00  0.00    -0.297 OA
HETATM    5  C6  UNL     1      -7.776 -10.836  16.958  1.00  0.00     0.060 C 
HETATM    6  C7  UNL     1      -7.493  -9.399  17.157  1.00  0.00     0.013 C 
HETATM    7  C8  UNL     1      -6.016  -9.115  17.323  1.00  0.00     0.006 C 
HETATM    8  C9  UNL     1      -5.348 -10.361  17.832  1.00  0.00    -0.010 C 
HETATM    9  C10 UNL     1      -3.856 -10.196  17.968  1.00  0.00     0.011 C 
HETATM   10  C11 UNL     1      -6.069 -11.186  18.833  1.00  0.00    -0.030 C 
HETATM   11  C12 UNL     1      -5.131 -12.359  19.146  1.00  0.00     0.016 C 
HETATM   12  C24 UNL     1      -7.144 -11.801  17.919  1.00  0.00     0.008 C 
HETATM   13  C25 UNL     1      -8.111 -12.754  18.370  1.00  0.00     0.039 C 
ENDROOT
BRANCH  10  14
HETATM   14  C13 UNL     1      -6.601 -10.659  20.074  1.00  0.00     0.033 C 
HETATM   15  C14 UNL     1      -8.003 -10.135  19.964  1.00  0.00     0.009 C 
HETATM   16  C15 UNL     1      -8.548  -9.900  21.346  1.00  0.00     0.013 C 
HETATM   17  C16 UNL     1      -7.707 -10.740  22.213  1.00  0.00    -0.005 C 
HETATM   18  C17 UNL     1      -7.348  -9.936  23.470  1.00  0.00     0.019 C 
HETATM   19  C18 UNL     1      -8.482 -11.913  22.701  1.00  0.00     0.007 C 
HETATM   20  C23 UNL     1      -6.499 -11.217  21.428  1.00  0.00     0.108 C 
HETATM   21  C21 UNL     1      -7.356 -12.873  23.007  1.00  0.00     0.009 C 
HETATM   22  C22 UNL     1      -6.531 -12.635  21.755  1.00  0.00     0.043 C 
BRANCH  19  23
HETATM   23  C19 UNL     1      -9.465 -12.549  21.807  1.00  0.00     0.118 C 
BRANCH  23  24
HETATM   24  C20 UNL     1      -9.885 -13.910  22.284  1.00  0.00     0.172 C 
HETATM   25  O4  UNL     1     -10.366 -14.107  23.398  1.00  0.00    -0.648 OA
HETATM   26  O5  UNL     1      -9.718 -14.982  21.416  1.00  0.00    -0.648 OA
ENDBRANCH  23  24
ENDBRANCH  19  23
BRANCH  20  27
HETATM   27  O6  UNL     1      -5.376 -10.699  22.080  1.00  0.00    -0.231 OA
BRANCH  27  28
HETATM   28  O7  UNL     1      -4.357 -11.434  22.229  1.00  0.00    -0.250 OA
ATOM     29  H7  UNL     1      -4.467 -12.313  22.572  1.00  0.00     0.253 HD
ENDBRANCH  27  28
ENDBRANCH  20  27
ENDBRANCH  10  14
BRANCH   1  30
HETATM   30  O2  UNL     1      -7.652 -13.724  16.237  1.00  0.00    -0.316 OA
BRANCH  30  31
HETATM   31  C2  UNL     1      -7.043 -14.955  16.198  1.00  0.00     0.255 C 
HETATM   32  C1  UNL     1      -7.772 -16.099  15.595  1.00  0.00     0.126 C 
HETATM   33  O1  UNL     1      -5.891 -15.055  16.677  1.00  0.00    -0.266 OA
ENDBRANCH  30  31
ENDBRANCH   1  30
TORSDOF 7
ENDMDL
MODEL 3
REMARK VINA RESULT: -8.600470610      2.396      6.475
REMARK  7 active torsions:
REMARK  status: ('A' for Active; 'I' for Inactive)
REMARK    1  A    between atoms: C2_2  and  O2_4 
REMARK    2  A    between atoms: O2_4  and  C3_5 
REMARK    3  A    between atoms: C11_14  and  C13_16 
REMARK    4  A    between atoms: C18_21  and  C19_22 
REMARK    5  A    between atoms: C19_22  and  C20_23 
REMARK    6  A    between atoms: C23_28  and  O6_29 
REMARK    7  A    between atoms: O6_29  and  O7_30 
ROOT
HETATM    1  C3  UNL     1      -7.745 -13.217  15.461  1.00  0.00     0.139 C 
HETATM    2  C4  UNL     1      -7.747 -11.969  14.573  1.00  0.00     0.111 C 
HETATM    3  C5  UNL     1      -7.190 -10.840  15.415  1.00  0.00     0.134 C 
HETATM    4  O3  UNL     1      -7.651  -9.735  15.371  1.00  0.00    -0.297 OA
HETATM    5  C6  UNL     1      -6.036 -11.252  16.280  1.00  0.00     0.060 C 
HETATM    6  C7  UNL     1      -5.406 -10.033  16.830  1.00  0.00     0.013 C 
HETATM    7  C8  UNL     1      -4.320 -10.342  17.838  1.00  0.00     0.006 C 
HETATM    8  C9  UNL     1      -4.594 -11.697  18.427  1.00  0.00    -0.010 C 
HETATM    9  C10 UNL     1      -3.525 -12.124  19.400  1.00  0.00     0.011 C 
HETATM   10  C11 UNL     1      -6.003 -12.072  18.706  1.00  0.00    -0.030 C 
HETATM   11  C12 UNL     1      -5.940 -13.484  19.299  1.00  0.00     0.016 C 
HETATM   12  C24 UNL     1      -6.489 -12.293  17.262  1.00  0.00     0.008 C 
HETATM   13  C25 UNL     1      -7.809 -12.738  16.935  1.00  0.00     0.039 C 
ENDROOT
BRANCH  10  14
HETATM   14  C13 UNL     1      -6.906 -11.262  19.500  1.00  0.00     0.033 C 
HETATM   15  C14 UNL     1      -8.356 -11.470  19.178  1.00  0.00     0.009 C 
HETATM   16  C15 UNL     1      -9.193 -10.822  20.246  1.00  0.00     0.013 C 
HETATM   17  C16 UNL     1      -8.284 -10.707  21.397  1.00  0.00    -0.005 C 
HETATM   18  C17 UNL     1      -8.471  -9.321  22.029  1.00  0.00     0.019 C 
HETATM   19  C18 UNL     1      -8.668 -11.680  22.455  1.00  0.00     0.007 C 
HETATM   20  C23 UNL     1      -6.863 -10.983  20.941  1.00  0.00     0.108 C 
HETATM   21  C21 UNL     1      -7.351 -11.822  23.183  1.00  0.00     0.009 C 
HETATM   22  C22 UNL     1      -6.450 -11.929  21.966  1.00  0.00     0.043 C 
BRANCH  19  23
HETATM   23  C19 UNL     1      -9.179 -13.005  22.064  1.00  0.00     0.118 C 
BRANCH  23  24
HETATM   24  C20 UNL     1      -9.382 -13.918  23.239  1.00  0.00     0.172 C 
HETATM   25  O4  UNL     1     -10.243 -13.722  24.094  1.00  0.00    -0.648 OA
HETATM   26  O5  UNL     1      -8.552 -15.027  23.351  1.00  0.00    -0.648 OA
ENDBRANCH  23  24
ENDBRANCH  19  23
BRANCH  20  27
HETATM   27  O6  UNL     1      -6.137  -9.813  21.184  1.00  0.00    -0.231 OA
BRANCH  27  28
HETATM   28  O7  UNL     1      -4.927  -9.903  21.541  1.00  0.00    -0.250 OA
ATOM     29  H7  UNL     1      -4.576 -10.754  21.776  1.00  0.00     0.253 HD
ENDBRANCH  27  28
ENDBRANCH  20  27
ENDBRANCH  10  14
BRANCH   1  30
HETATM   30  O2  UNL     1      -6.612 -14.007  15.304  1.00  0.00    -0.316 OA
BRANCH  30  31
HETATM   31  C2  UNL     1      -6.484 -15.276  15.813  1.00  0.00     0.255 C 
HETATM   32  C1  UNL     1      -7.548 -16.274  15.538  1.00  0.00     0.126 C 
HETATM   33  O1  UNL     1      -5.464 -15.535  16.493  1.00  0.00    -0.266 OA
ENDBRANCH  30  31
ENDBRANCH   1  30
TORSDOF 7
ENDMDL
MODEL 4
REMARK VINA RESULT: -8.375104783      2.545      5.175
REMARK  7 active torsions:
REMARK  status: ('A' for Active; 'I' for Inactive)
REMARK    1  A    between atoms: C2_2  and  O2_4 
REMARK    2  A    between atoms: O2_4  and  C3_5 
REMARK    3  A    between atoms: C11_14  and  C13_16 
REMARK    4  A    between atoms: C18_21  and  C19_22 
REMARK    5  A    between atoms: C19_22  and  C20_23 
REMARK    6  A    between atoms: C23_28  and  O6_29 
REMARK    7  A    between atoms: O6_29  and  O7_30 
ROOT
HETATM    1  C3  UNL     1      -9.209 -12.359  22.458  1.00  0.00     0.139 C 
HETATM    2  C4  UNL     1      -9.699 -13.710  21.925  1.00  0.00     0.111 C 
HETATM    3  C5  UNL     1      -9.160 -13.839  20.516  1.00  0.00     0.134 C 
HETATM    4  O3  UNL     1      -9.819 -14.301  19.630  1.00  0.00    -0.297 OA
HETATM    5  C6  UNL     1      -7.753 -13.338  20.366  1.00  0.00     0.060 C 
HETATM    6  C7  UNL     1      -7.244 -13.767  19.047  1.00  0.00     0.013 C 
HETATM    7  C8  UNL     1      -5.882 -13.186  18.731  1.00  0.00     0.006 C 
HETATM    8  C9  UNL     1      -5.714 -11.918  19.521  1.00  0.00    -0.010 C 
HETATM    9  C10 UNL     1      -4.356 -11.297  19.323  1.00  0.00     0.011 C 
HETATM   10  C11 UNL     1      -6.891 -11.027  19.679  1.00  0.00    -0.030 C 
HETATM   11  C12 UNL     1      -6.394  -9.840  20.513  1.00  0.00     0.016 C 
HETATM   12  C24 UNL     1      -7.706 -11.869  20.676  1.00  0.00     0.008 C 
HETATM   13  C25 UNL     1      -8.953 -11.443  21.233  1.00  0.00     0.039 C 
ENDROOT
BRANCH  10  14
HETATM   14  C13 UNL     1      -7.677 -10.531  18.567  1.00  0.00     0.033 C 
HETATM   15  C14 UNL     1      -8.983  -9.913  18.969  1.00  0.00     0.009 C 
HETATM   16  C15 UNL     1      -9.560  -9.177  17.790  1.00  0.00     0.013 C 
HETATM   17  C16 UNL     1      -8.403  -8.934  16.915  1.00  0.00    -0.005 C 
HETATM   18  C17 UNL     1      -8.818  -9.226  15.467  1.00  0.00     0.019 C 
HETATM   19  C18 UNL     1      -8.034  -7.492  16.938  1.00  0.00     0.007 C 
HETATM   20  C23 UNL     1      -7.229  -9.769  17.393  1.00  0.00     0.108 C 
HETATM   21  C21 UNL     1      -6.582  -7.578  16.527  1.00  0.00     0.009 C 
HETATM   22  C22 UNL     1      -6.186  -8.754  17.401  1.00  0.00     0.043 C 
BRANCH  19  23
HETATM   23  C19 UNL     1      -8.164  -6.737  18.195  1.00  0.00     0.118 C 
BRANCH  23  24
HETATM   24  C20 UNL     1      -9.195  -5.647  18.112  1.00  0.00     0.172 C 
HETATM   25  O4  UNL     1     -10.325  -5.831  17.667  1.00  0.00    -0.648 OA
HETATM   26  O5  UNL     1      -8.839  -4.381  18.561  1.00  0.00    -0.648 OA
ENDBRANCH  23  24
ENDBRANCH  19  23
BRANCH  20  27
HETATM   27  O6  UNL     1      -6.911 -10.638  16.346  1.00  0.00    -0.231 OA
BRANCH  27  28
HETATM   28  O7  UNL     1      -5.696 -10.910  16.119  1.00  0.00    -0.250 OA
ATOM     29  H7  UNL     1      -5.043 -10.688  16.772  1.00  0.00     0.253 HD
ENDBRANCH  27  28
ENDBRANCH  20  27
ENDBRANCH  10  14
BRANCH   1  30
HETATM   30  O2  UNL     1      -8.034 -12.447  23.195  1.00  0.00    -0.316 OA
BRANCH  30  31
HETATM   31  C2  UNL     1      -7.892 -11.969  24.474  1.00  0.00     0.255 C 
HETATM   32  C1  UNL     1      -7.418 -10.576  24.674  1.00  0.00     0.126 C 
HETATM   33  O1  UNL     1      -8.173 -12.737  25.422  1.00  0.00    -0.266 OA
ENDBRANCH  30  31
ENDBRANCH   1  30
TORSDOF 7
ENDMDL
MODEL 5
REMARK VINA RESULT: -8.217881670      2.417      5.646
REMARK  7 active torsions:
REMARK  status: ('A' for Active; 'I' for Inactive)
REMARK    1  A    between atoms: C2_2  and  O2_4 
REMARK    2  A    between atoms: O2_4  and  C3_5 
REMARK    3  A    between atoms: C11_14  and  C13_16 
REMARK    4  A    between atoms: C18_21  and  C19_22 
REMARK    5  A    between atoms: C19_22  and  C20_23 
REMARK    6  A    between atoms: C23_28  and  O6_29 
REMARK    7  A    between atoms: O6_29  and  O7_30 
ROOT
HETATM    1  C3  UNL     1      -8.643  -9.998  16.566  1.00  0.00     0.139 C 
HETATM    2  C4  UNL     1      -8.733  -8.473  16.451  1.00  0.00     0.111 C 
HETATM    3  C5  UNL     1      -7.873  -7.905  17.561  1.00  0.00     0.134 C 
HETATM    4  O3  UNL     1      -8.213  -6.947  18.194  1.00  0.00    -0.297 OA
HETATM    5  C6  UNL     1      -6.591  -8.656  17.767  1.00  0.00     0.060 C 
HETATM    6  C7  UNL     1      -5.722  -7.861  18.660  1.00  0.00     0.013 C 
HETATM    7  C8  UNL     1      -4.461  -8.598  19.054  1.00  0.00     0.006 C 
HETATM    8  C9  UNL     1      -4.720 -10.074  18.942  1.00  0.00    -0.010 C 
HETATM    9  C10 UNL     1      -3.495 -10.895  19.252  1.00  0.00     0.011 C 
HETATM   10  C11 UNL     1      -6.049 -10.588  19.358  1.00  0.00    -0.030 C 
HETATM   11  C12 UNL     1      -5.989 -12.103  19.131  1.00  0.00     0.016 C 
HETATM   12  C24 UNL     1      -6.895 -10.067  18.183  1.00  0.00     0.008 C 
HETATM   13  C25 UNL     1      -8.293 -10.333  18.040  1.00  0.00     0.039 C 
ENDROOT
BRANCH  10  14
HETATM   14  C13 UNL     1      -6.640 -10.324  20.655  1.00  0.00     0.033 C 
HETATM   15  C14 UNL     1      -8.031  -9.766  20.590  1.00  0.00     0.009 C 
HETATM   16  C15 UNL     1      -8.644  -9.818  21.962  1.00  0.00     0.013 C 
HETATM   17  C16 UNL     1      -7.855 -10.835  22.672  1.00  0.00    -0.005 C 
HETATM   18  C17 UNL     1      -7.555 -10.319  24.087  1.00  0.00     0.019 C 
HETATM   19  C18 UNL     1      -8.661 -12.071  22.864  1.00  0.00     0.007 C 
HETATM   20  C23 UNL     1      -6.611 -11.157  21.864  1.00  0.00     0.108 C 
HETATM   21  C21 UNL     1      -7.557 -13.093  23.015  1.00  0.00     0.009 C 
HETATM   22  C22 UNL     1      -6.668 -12.611  21.883  1.00  0.00     0.043 C 
BRANCH  19  23
HETATM   23  C19 UNL     1      -9.600 -12.488  21.809  1.00  0.00     0.118 C 
BRANCH  23  24
HETATM   24  C20 UNL     1     -10.275 -13.794  22.118  1.00  0.00     0.172 C 
HETATM   25  O4  UNL     1     -10.626 -14.585  21.246  1.00  0.00    -0.648 OA
HETATM   26  O5  UNL     1     -10.505 -14.106  23.453  1.00  0.00    -0.648 OA
ENDBRANCH  23  24
ENDBRANCH  19  23
BRANCH  20  27
HETATM   27  O6  UNL     1      -5.519 -10.806  22.664  1.00  0.00    -0.231 OA
BRANCH  27  28
HETATM   28  O7  UNL     1      -4.426 -11.427  22.520  1.00  0.00    -0.250 OA
ATOM     29  H7  UNL     1      -4.048 -11.502  21.652  1.00  0.00     0.253 HD
ENDBRANCH  27  28
ENDBRANCH  20  27
ENDBRANCH  10  14
BRANCH   1  30
HETATM   30  O2  UNL     1      -7.671 -10.559  15.745  1.00  0.00    -0.316 OA
BRANCH  30  31
HETATM   31  C2  UNL     1      -7.763 -11.812  15.192  1.00  0.00     0.255 C 
HETATM   32  C1  UNL     1      -8.560 -12.852  15.890  1.00  0.00     0.126 C 
HETATM   33  O1  UNL     1      -7.164 -12.022  14.113  1.00  0.00    -0.266 OA
ENDBRANCH  30  31
ENDBRANCH   1  30
TORSDOF 7
ENDMDL
