MODEL 1
REMARK VINA RESULT: -9.629017362      0.000      0.000
REMARK  7 active torsions:
REMARK  status: ('A' for Active; 'I' for Inactive)
REMARK    1  A    between atoms: C4_5  and  C5_6 
REMARK    2  A    between atoms: C7_9  and  N2_10 
REMARK    3  A    between atoms: N2_10  and  C8_11 
REMARK    4  A    between atoms: N2_10  and  C14_19 
REMARK    5  A    between atoms: C8_11  and  C9_12 
REMARK    6  A    between atoms: C14_19  and  N4_21 
REMARK       I    between atoms: N4_21  and  C15_23 
REMARK    7  A    between atoms: C15_23  and  C16_25 
ROOT
HETATM    1  N2  UNL     1      -6.292 -12.235  17.847  1.00  0.00    -0.300 N 
ENDROOT
BRANCH   1   2
HETATM    2  C7  UNL     1      -6.581 -10.867  18.161  1.00  0.00     0.153 A 
HETATM    3  S1  UNL     1      -5.700  -9.445  17.828  1.00  0.00    -0.063 SA
HETATM    4  C6  UNL     1      -6.756  -8.314  18.552  1.00  0.00     0.083 A 
HETATM    5  C5  UNL     1      -7.758  -9.127  19.023  1.00  0.00     0.051 A 
HETATM    6  N5  UNL     1      -7.635 -10.406  18.806  1.00  0.00    -0.335 N 
ATOM      7  H5  UNL     1      -8.354 -11.051  19.135  1.00  0.00     0.168 HD
BRANCH   5   8
HETATM    8  C4  UNL     1      -8.925  -8.569  19.747  1.00  0.00    -0.009 A 
HETATM    9  C3  UNL     1      -9.609  -7.484  19.288  1.00  0.00     0.015 A 
HETATM   10  C2  UNL     1     -10.698  -6.997  20.009  1.00  0.00     0.027 A 
HETATM   11  C1  UNL     1     -11.132  -7.563  21.187  1.00  0.00     0.046 A 
HETATM   12  N1  UNL     1     -12.252  -7.041  21.904  1.00  0.00    -0.102 NA
HETATM   13  C23 UNL     1     -10.439  -8.661  21.651  1.00  0.00     0.027 A 
HETATM   14  C22 UNL     1      -9.352  -9.142  20.924  1.00  0.00     0.015 A 
ENDBRANCH   5   8
ENDBRANCH   1   2
BRANCH   1  15
HETATM   15  C8  UNL     1      -6.297 -12.639  16.467  1.00  0.00     0.172 C 
BRANCH  15  16
HETATM   16  C9  UNL     1      -7.539 -13.379  16.134  1.00  0.00    -0.037 A 
HETATM   17  C10 UNL     1      -8.806 -12.892  16.406  1.00  0.00     0.026 A 
HETATM   18  C11 UNL     1      -9.923 -13.621  16.073  1.00  0.00     0.088 A 
HETATM   19  N3  UNL     1      -9.786 -14.813  15.479  1.00  0.00    -0.375 N 
HETATM   20  C12 UNL     1      -8.577 -15.293  15.210  1.00  0.00     0.088 A 
ATOM     21  H3  UNL     1     -10.614 -15.356  15.232  1.00  0.00     0.164 HD
HETATM   22  C13 UNL     1      -7.456 -14.596  15.529  1.00  0.00     0.026 A 
ENDBRANCH  15  16
ENDBRANCH   1  15
BRANCH   1  23
HETATM   23  C14 UNL     1      -6.017 -13.148  18.883  1.00  0.00     0.183 C 
HETATM   24  S2  UNL     1      -4.820 -14.263  18.692  1.00  0.00    -0.040 SA
BRANCH  23  25
HETATM   25  N4  UNL     1      -6.763 -13.115  20.088  1.00  0.00    -0.299 N 
HETATM   26  C15 UNL     1      -6.418 -12.286  21.185  1.00  0.00     0.257 C 
HETATM   27  O1  UNL     1      -5.391 -11.525  21.103  1.00  0.00    -0.267 OA
ATOM     28  H4  UNL     1      -7.585 -13.715  20.170  1.00  0.00     0.171 HD
BRANCH  26  29
HETATM   29  C16 UNL     1      -7.186 -12.251  22.428  1.00  0.00     0.032 A 
HETATM   30  C17 UNL     1      -8.119 -13.207  22.752  1.00  0.00     0.017 A 
HETATM   31  C18 UNL     1      -8.809 -13.125  23.947  1.00  0.00     0.001 A 
HETATM   32  C19 UNL     1      -8.598 -12.099  24.858  1.00  0.00     0.000 A 
HETATM   33  C20 UNL     1      -7.650 -11.162  24.487  1.00  0.00     0.001 A 
HETATM   34  C21 UNL     1      -6.955 -11.221  23.311  1.00  0.00     0.017 A 
ENDBRANCH  26  29
ENDBRANCH  23  25
ENDBRANCH   1  23
TORSDOF 7
ENDMDL
MODEL 2
REMARK VINA RESULT: -9.553223459      1.649      5.861
REMARK  7 active torsions:
REMARK  status: ('A' for Active; 'I' for Inactive)
REMARK    1  A    between atoms: C4_5  and  C5_6 
REMARK    2  A    between atoms: C7_9  and  N2_10 
REMARK    3  A    between atoms: N2_10  and  C8_11 
REMARK    4  A    between atoms: N2_10  and  C14_19 
REMARK    5  A    between atoms: C8_11  and  C9_12 
REMARK    6  A    between atoms: C14_19  and  N4_21 
REMARK       I    between atoms: N4_21  and  C15_23 
REMARK    7  A    between atoms: C15_23  and  C16_25 
ROOT
HETATM    1  N2  UNL     1      -6.375  -9.011  18.665  1.00  0.00    -0.300 N 
ENDROOT
BRANCH   1   2
HETATM    2  C7  UNL     1      -6.920  -9.644  17.500  1.00  0.00     0.153 A 
HETATM    3  S1  UNL     1      -7.385  -8.985  15.997  1.00  0.00    -0.063 SA
HETATM    4  C6  UNL     1      -7.913 -10.422  15.240  1.00  0.00     0.083 A 
HETATM    5  C5  UNL     1      -7.693 -11.355  16.223  1.00  0.00     0.051 A 
HETATM    6  N5  UNL     1      -7.192 -10.926  17.347  1.00  0.00    -0.335 N 
ATOM      7  H5  UNL     1      -7.009 -11.581  18.108  1.00  0.00     0.168 HD
BRANCH   5   8
HETATM    8  C4  UNL     1      -8.016 -12.787  16.011  1.00  0.00    -0.009 A 
HETATM    9  C3  UNL     1      -9.300 -13.238  15.963  1.00  0.00     0.015 A 
HETATM   10  C2  UNL     1      -9.549 -14.595  15.763  1.00  0.00     0.027 A 
HETATM   11  C1  UNL     1      -8.547 -15.527  15.609  1.00  0.00     0.046 A 
HETATM   12  N1  UNL     1      -8.833 -16.912  15.405  1.00  0.00    -0.102 NA
HETATM   13  C23 UNL     1      -7.248 -15.069  15.657  1.00  0.00     0.027 A 
HETATM   14  C22 UNL     1      -7.007 -13.711  15.857  1.00  0.00     0.015 A 
ENDBRANCH   5   8
ENDBRANCH   1   2
BRANCH   1  15
HETATM   15  C8  UNL     1      -6.646  -7.616  18.878  1.00  0.00     0.172 C 
BRANCH  15  16
HETATM   16  C9  UNL     1      -8.078  -7.394  19.191  1.00  0.00    -0.037 A 
HETATM   17  C10 UNL     1      -8.775  -8.144  20.121  1.00  0.00     0.026 A 
HETATM   18  C11 UNL     1     -10.104  -7.893  20.372  1.00  0.00     0.088 A 
HETATM   19  N3  UNL     1     -10.730  -6.912  19.711  1.00  0.00    -0.375 N 
HETATM   20  C12 UNL     1     -10.075  -6.182  18.817  1.00  0.00     0.088 A 
ATOM     21  H3  UNL     1     -11.716  -6.724  19.896  1.00  0.00     0.164 HD
HETATM   22  C13 UNL     1      -8.763  -6.408  18.547  1.00  0.00     0.026 A 
ENDBRANCH  15  16
ENDBRANCH   1  15
BRANCH   1  23
HETATM   23  C14 UNL     1      -5.589  -9.758  19.563  1.00  0.00     0.183 C 
HETATM   24  S2  UNL     1      -4.055 -10.188  19.142  1.00  0.00    -0.040 SA
BRANCH  23  25
HETATM   25  N4  UNL     1      -6.107 -10.143  20.825  1.00  0.00    -0.299 N 
HETATM   26  C15 UNL     1      -6.864 -11.326  21.018  1.00  0.00     0.257 C 
HETATM   27  O1  UNL     1      -7.100 -12.094  20.020  1.00  0.00    -0.267 OA
ATOM     28  H4  UNL     1      -5.927  -9.542  21.631  1.00  0.00     0.171 HD
BRANCH  26  29
HETATM   29  C16 UNL     1      -7.399 -11.725  22.318  1.00  0.00     0.032 A 
HETATM   30  C17 UNL     1      -8.126 -12.876  22.502  1.00  0.00     0.017 A 
HETATM   31  C18 UNL     1      -8.599 -13.204  23.758  1.00  0.00     0.001 A 
HETATM   32  C19 UNL     1      -8.369 -12.407  24.871  1.00  0.00     0.000 A 
HETATM   33  C20 UNL     1      -7.633 -11.259  24.635  1.00  0.00     0.001 A 
HETATM   34  C21 UNL     1      -7.155 -10.913  23.402  1.00  0.00     0.017 A 
ENDBRANCH  26  29
ENDBRANCH  23  25
ENDBRANCH   1  23
TORSDOF 7
ENDMDL
MODEL 3
REMARK VINA RESULT: -9.305882714      2.427      5.895
REMARK  7 active torsions:
REMARK  status: ('A' for Active; 'I' for Inactive)
REMARK    1  A    between atoms: C4_5  and  C5_6 
REMARK    2  A    between atoms: C7_9  and  N2_10 
REMARK    3  A    between atoms: N2_10  and  C8_11 
REMARK    4  A    between atoms: N2_10  and  C14_19 
REMARK    5  A    between atoms: C8_11  and  C9_12 
REMARK    6  A    between atoms: C14_19  and  N4_21 
REMARK       I    between atoms: N4_21  and  C15_23 
REMARK    7  A    between atoms: C15_23  and  C16_25 
ROOT
HETATM    1  N2  UNL     1      -7.288  -8.690  18.574  1.00  0.00    -0.300 N 
ENDROOT
BRANCH   1   2
HETATM    2  C7  UNL     1      -7.609  -9.407  17.375  1.00  0.00     0.153 A 
HETATM    3  S1  UNL     1      -7.858  -8.847  15.783  1.00  0.00    -0.063 SA
HETATM    4  C6  UNL     1      -8.189 -10.346  15.034  1.00  0.00     0.083 A 
HETATM    5  C5  UNL     1      -8.085 -11.217  16.090  1.00  0.00     0.051 A 
HETATM    6  N5  UNL     1      -7.791 -10.708  17.253  1.00  0.00    -0.335 N 
ATOM      7  H5  UNL     1      -7.701 -11.314  18.068  1.00  0.00     0.168 HD
BRANCH   5   8
HETATM    8  C4  UNL     1      -8.301 -12.673  15.910  1.00  0.00    -0.009 A 
HETATM    9  C3  UNL     1      -9.543 -13.229  15.945  1.00  0.00     0.015 A 
HETATM   10  C2  UNL     1      -9.692 -14.604  15.772  1.00  0.00     0.027 A 
HETATM   11  C1  UNL     1      -8.628 -15.453  15.563  1.00  0.00     0.046 A 
HETATM   12  N1  UNL     1      -8.810 -16.859  15.389  1.00  0.00    -0.102 NA
HETATM   13  C23 UNL     1      -7.370 -14.890  15.529  1.00  0.00     0.027 A 
HETATM   14  C22 UNL     1      -7.231 -13.514  15.701  1.00  0.00     0.015 A 
ENDBRANCH   5   8
ENDBRANCH   1   2
BRANCH   1  15
HETATM   15  C8  UNL     1      -5.931  -8.261  18.776  1.00  0.00     0.172 C 
BRANCH  15  16
HETATM   16  C9  UNL     1      -5.047  -9.415  19.066  1.00  0.00    -0.037 A 
HETATM   17  C10 UNL     1      -4.381 -10.125  18.083  1.00  0.00     0.026 A 
HETATM   18  C11 UNL     1      -3.570 -11.186  18.412  1.00  0.00     0.088 A 
HETATM   19  N3  UNL     1      -3.423 -11.537  19.695  1.00  0.00    -0.375 N 
HETATM   20  C12 UNL     1      -4.054 -10.865  20.650  1.00  0.00     0.088 A 
ATOM     21  H3  UNL     1      -2.823 -12.325  19.940  1.00  0.00     0.164 HD
HETATM   22  C13 UNL     1      -4.861  -9.813  20.356  1.00  0.00     0.026 A 
ENDBRANCH  15  16
ENDBRANCH   1  15
BRANCH   1  23
HETATM   23  C14 UNL     1      -8.295  -8.427  19.523  1.00  0.00     0.183 C 
HETATM   24  S2  UNL     1      -9.497  -7.360  19.162  1.00  0.00    -0.040 SA
BRANCH  23  25
HETATM   25  N4  UNL     1      -8.282  -9.073  20.785  1.00  0.00    -0.299 N 
HETATM   26  C15 UNL     1      -8.595 -10.446  20.950  1.00  0.00     0.257 C 
HETATM   27  O1  UNL     1      -8.904 -11.151  19.926  1.00  0.00    -0.267 OA
ATOM     28  H4  UNL     1      -8.037  -8.526  21.610  1.00  0.00     0.171 HD
BRANCH  26  29
HETATM   29  C16 UNL     1      -8.582 -11.113  22.250  1.00  0.00     0.032 A 
HETATM   30  C17 UNL     1      -8.633 -12.480  22.385  1.00  0.00     0.017 A 
HETATM   31  C18 UNL     1      -8.609 -13.054  23.643  1.00  0.00     0.001 A 
HETATM   32  C19 UNL     1      -8.535 -12.296  24.803  1.00  0.00     0.000 A 
HETATM   33  C20 UNL     1      -8.487 -10.927  24.616  1.00  0.00     0.001 A 
HETATM   34  C21 UNL     1      -8.509 -10.336  23.383  1.00  0.00     0.017 A 
ENDBRANCH  26  29
ENDBRANCH  23  25
ENDBRANCH   1  23
TORSDOF 7
ENDMDL
MODEL 4
REMARK VINA RESULT: -9.290245931      2.425      5.924
REMARK  7 active torsions:
REMARK  status: ('A' for Active; 'I' for Inactive)
REMARK    1  A    between atoms: C4_5  and  C5_6 
REMARK    2  A    between atoms: C7_9  and  N2_10 
REMARK    3  A    between atoms: N2_10  and  C8_11 
REMARK    4  A    between atoms: N2_10  and  C14_19 
REMARK    5  A    between atoms: C8_11  and  C9_12 
REMARK    6  A    between atoms: C14_19  and  N4_21 
REMARK       I    between atoms: N4_21  and  C15_23 
REMARK    7  A    between atoms: C15_23  and  C16_25 
ROOT
HETATM    1  N2  UNL     1      -7.275  -8.689  18.592  1.00  0.00    -0.300 N 
ENDROOT
BRANCH   1   2
HETATM    2  C7  UNL     1      -7.596  -9.407  17.394  1.00  0.00     0.153 A 
HETATM    3  S1  UNL     1      -7.891  -8.844  15.811  1.00  0.00    -0.063 SA
HETATM    4  C6  UNL     1      -8.190 -10.347  15.057  1.00  0.00     0.083 A 
HETATM    5  C5  UNL     1      -8.040 -11.222  16.104  1.00  0.00     0.051 A 
HETATM    6  N5  UNL     1      -7.740 -10.712  17.265  1.00  0.00    -0.335 N 
ATOM      7  H5  UNL     1      -7.617 -11.321  18.074  1.00  0.00     0.168 HD
BRANCH   5   8
HETATM    8  C4  UNL     1      -8.214 -12.683  15.917  1.00  0.00    -0.009 A 
HETATM    9  C3  UNL     1      -7.157 -13.517  15.716  1.00  0.00     0.015 A 
HETATM   10  C2  UNL     1      -7.376 -14.883  15.543  1.00  0.00     0.027 A 
HETATM   11  C1  UNL     1      -8.631 -15.450  15.564  1.00  0.00     0.046 A 
HETATM   12  N1  UNL     1      -8.825 -16.854  15.384  1.00  0.00    -0.102 NA
HETATM   13  C23 UNL     1      -9.701 -14.605  15.767  1.00  0.00     0.027 A 
HETATM   14  C22 UNL     1      -9.473 -13.241  15.940  1.00  0.00     0.015 A 
ENDBRANCH   5   8
ENDBRANCH   1   2
BRANCH   1  15
HETATM   15  C8  UNL     1      -5.920  -8.252  18.789  1.00  0.00     0.172 C 
BRANCH  15  16
HETATM   16  C9  UNL     1      -5.035  -9.396  19.117  1.00  0.00    -0.037 A 
HETATM   17  C10 UNL     1      -4.851  -9.866  20.406  1.00  0.00     0.026 A 
HETATM   18  C11 UNL     1      -4.019 -10.933  20.651  1.00  0.00     0.088 A 
HETATM   19  N3  UNL     1      -3.381 -11.525  19.634  1.00  0.00    -0.375 N 
HETATM   20  C12 UNL     1      -3.548 -11.087  18.392  1.00  0.00     0.088 A 
ATOM     21  H3  UNL     1      -2.762 -12.316  19.815  1.00  0.00     0.164 HD
HETATM   22  C13 UNL     1      -4.362 -10.034  18.120  1.00  0.00     0.026 A 
ENDBRANCH  15  16
ENDBRANCH   1  15
BRANCH   1  23
HETATM   23  C14 UNL     1      -8.281  -8.433  19.544  1.00  0.00     0.183 C 
HETATM   24  S2  UNL     1      -9.502  -7.390  19.179  1.00  0.00    -0.040 SA
BRANCH  23  25
HETATM   25  N4  UNL     1      -8.249  -9.063  20.813  1.00  0.00    -0.299 N 
HETATM   26  C15 UNL     1      -8.547 -10.438  20.998  1.00  0.00     0.257 C 
HETATM   27  O1  UNL     1      -8.860 -11.157  19.985  1.00  0.00    -0.267 OA
ATOM     28  H4  UNL     1      -8.000  -8.504  21.630  1.00  0.00     0.171 HD
BRANCH  26  29
HETATM   29  C16 UNL     1      -8.514 -11.089  22.305  1.00  0.00     0.032 A 
HETATM   30  C17 UNL     1      -8.490 -10.386  23.485  1.00  0.00     0.017 A 
HETATM   31  C18 UNL     1      -8.468 -11.059  24.693  1.00  0.00     0.001 A 
HETATM   32  C19 UNL     1      -8.470 -12.445  24.771  1.00  0.00     0.000 A 
HETATM   33  C20 UNL     1      -8.495 -13.107  23.558  1.00  0.00     0.001 A 
HETATM   34  C21 UNL     1      -8.517 -12.464  22.351  1.00  0.00     0.017 A 
ENDBRANCH  26  29
ENDBRANCH  23  25
ENDBRANCH   1  23
TORSDOF 7
ENDMDL
MODEL 5
REMARK VINA RESULT: -9.182718971      1.441      1.953
REMARK  7 active torsions:
REMARK  status: ('A' for Active; 'I' for Inactive)
REMARK    1  A    between atoms: C4_5  and  C5_6 
REMARK    2  A    between atoms: C7_9  and  N2_10 
REMARK    3  A    between atoms: N2_10  and  C8_11 
REMARK    4  A    between atoms: N2_10  and  C14_19 
REMARK    5  A    between atoms: C8_11  and  C9_12 
REMARK    6  A    between atoms: C14_19  and  N4_21 
REMARK       I    between atoms: N4_21  and  C15_23 
REMARK    7  A    between atoms: C15_23  and  C16_25 
ROOT
HETATM    1  N2  UNL     1      -5.051 -10.618  18.424  1.00  0.00    -0.300 N 
ENDROOT
BRANCH   1   2
HETATM    2  C7  UNL     1      -6.020  -9.569  18.298  1.00  0.00     0.153 A 
HETATM    3  S1  UNL     1      -6.137  -8.302  17.161  1.00  0.00    -0.063 SA
HETATM    4  C6  UNL     1      -7.551  -7.553  17.760  1.00  0.00     0.083 A 
HETATM    5  C5  UNL     1      -7.858  -8.350  18.835  1.00  0.00     0.051 A 
HETATM    6  N5  UNL     1      -7.064  -9.355  19.074  1.00  0.00    -0.335 N 
ATOM      7  H5  UNL     1      -7.251  -9.977  19.861  1.00  0.00     0.168 HD
BRANCH   5   8
HETATM    8  C4  UNL     1      -9.041  -8.072  19.685  1.00  0.00    -0.009 A 
HETATM    9  C3  UNL     1      -9.349  -8.838  20.768  1.00  0.00     0.015 A 
HETATM   10  C2  UNL     1     -10.474  -8.536  21.533  1.00  0.00     0.027 A 
HETATM   11  C1  UNL     1     -11.313  -7.481  21.248  1.00  0.00     0.046 A 
HETATM   12  N1  UNL     1     -12.460  -7.195  22.050  1.00  0.00    -0.102 NA
HETATM   13  C23 UNL     1     -11.001  -6.706  20.151  1.00  0.00     0.027 A 
HETATM   14  C22 UNL     1      -9.874  -7.015  19.393  1.00  0.00     0.015 A 
ENDBRANCH   5   8
ENDBRANCH   1   2
BRANCH   1  15
HETATM   15  C8  UNL     1      -4.646 -11.325  17.240  1.00  0.00     0.172 C 
BRANCH  15  16
HETATM   16  C9  UNL     1      -5.813 -11.938  16.561  1.00  0.00    -0.037 A 
HETATM   17  C10 UNL     1      -6.648 -12.856  17.173  1.00  0.00     0.026 A 
HETATM   18  C11 UNL     1      -7.719 -13.392  16.495  1.00  0.00     0.088 A 
HETATM   19  N3  UNL     1      -7.956 -13.022  15.231  1.00  0.00    -0.375 N 
HETATM   20  C12 UNL     1      -7.164 -12.142  14.630  1.00  0.00     0.088 A 
ATOM     21  H3  UNL     1      -8.749 -13.419  14.726  1.00  0.00     0.164 HD
HETATM   22  C13 UNL     1      -6.100 -11.597  15.274  1.00  0.00     0.026 A 
ENDBRANCH  15  16
ENDBRANCH   1  15
BRANCH   1  23
HETATM   23  C14 UNL     1      -4.526 -10.936  19.691  1.00  0.00     0.183 C 
HETATM   24  S2  UNL     1      -2.940 -11.357  19.835  1.00  0.00    -0.040 SA
BRANCH  23  25
HETATM   25  N4  UNL     1      -5.352 -10.899  20.843  1.00  0.00    -0.299 N 
HETATM   26  C15 UNL     1      -6.116 -12.011  21.278  1.00  0.00     0.257 C 
HETATM   27  O1  UNL     1      -6.071 -13.107  20.616  1.00  0.00    -0.267 OA
ATOM     28  H4  UNL     1      -5.399 -10.034  21.382  1.00  0.00     0.171 HD
BRANCH  26  29
HETATM   29  C16 UNL     1      -6.968 -11.974  22.465  1.00  0.00     0.032 A 
HETATM   30  C17 UNL     1      -7.800 -13.010  22.816  1.00  0.00     0.017 A 
HETATM   31  C18 UNL     1      -8.577 -12.920  23.956  1.00  0.00     0.001 A 
HETATM   32  C19 UNL     1      -8.555 -11.806  24.783  1.00  0.00     0.000 A 
HETATM   33  C20 UNL     1      -7.703 -10.791  24.389  1.00  0.00     0.001 A 
HETATM   34  C21 UNL     1      -6.926 -10.856  23.266  1.00  0.00     0.017 A 
ENDBRANCH  26  29
ENDBRANCH  23  25
ENDBRANCH   1  23
TORSDOF 7
ENDMDL
