MODEL 1
REMARK VINA RESULT: -5.866559210      0.000      0.000
REMARK  11 active torsions:
REMARK  status: ('A' for Active; 'I' for Inactive)
REMARK    1  A    between atoms: S1_2  and  C2_3 
REMARK    2  A    between atoms: C2_3  and  C3_4 
REMARK    3  A    between atoms: C3_4  and  C4_5 
REMARK    4  A    between atoms: C4_5  and  C5_6 
REMARK    5  A    between atoms: C5_6  and  C6_7 
REMARK    6  A    between atoms: C6_7  and  C7_8 
REMARK    7  A    between atoms: C9_13  and  C10_14 
REMARK    8  A    between atoms: C12_20  and  C13_21 
REMARK    9  A    between atoms: C13_21  and  C14_22 
REMARK   10  A    between atoms: C17_26  and  C18_27 
REMARK   11  A    between atoms: C21_31  and  C22_32 
ROOT
HETATM    1  C7  UNL     1      29.101  17.938  26.688  1.00  0.00     0.176 C 
HETATM    2  N1  UNL     1      29.765  16.843  26.038  1.00  0.00    -0.346 N 
ATOM      3  H1  UNL     1      30.774  16.822  26.188  1.00  0.00     0.163 HD
HETATM    4  C8  UNL     1      29.286  15.801  25.238  1.00  0.00     0.243 C 
HETATM    5  O1  UNL     1      29.403  14.583  25.658  1.00  0.00    -0.271 OA
HETATM    6  C9  UNL     1      28.630  15.872  23.910  1.00  0.00     0.205 C 
HETATM    7  N2  UNL     1      29.389  15.069  22.982  1.00  0.00    -0.340 N 
ATOM      8  H2  UNL     1      28.953  14.185  22.720  1.00  0.00     0.163 HD
HETATM    9  C11 UNL     1      30.612  15.311  22.397  1.00  0.00     0.265 C 
HETATM   10  O2  UNL     1      31.519  14.411  22.550  1.00  0.00    -0.266 OA
HETATM   11  C12 UNL     1      31.033  16.483  21.602  1.00  0.00     0.081 C 
HETATM   12  N3  UNL     1      32.336  16.900  21.847  1.00  0.00    -0.335 N 
HETATM   13  C17 UNL     1      33.538  16.439  21.430  1.00  0.00     0.091 C 
HETATM   14  C21 UNL     1      32.356  17.678  23.096  1.00  0.00     0.195 C 
HETATM   15  N4  UNL     1      32.238  19.095  22.833  1.00  0.00    -0.337 N 
ATOM     16  H4  UNL     1      32.708  19.460  22.004  1.00  0.00     0.164 HD
HETATM   17  C25 UNL     1      31.518  20.018  23.638  1.00  0.00     0.241 C 
HETATM   18  O3  UNL     1      32.067  21.147  23.846  1.00  0.00    -0.271 OA
HETATM   19  C26 UNL     1      30.183  19.746  24.242  1.00  0.00     0.174 C 
HETATM   20  C27 UNL     1      29.124  20.580  23.506  1.00  0.00     0.042 C 
HETATM   21  N5  UNL     1      30.136  20.076  25.664  1.00  0.00    -0.342 N 
HETATM   22  C28 UNL     1      30.305  21.508  25.964  1.00  0.00     0.153 C 
HETATM   23  C29 UNL     1      29.958  19.160  26.710  1.00  0.00     0.243 C 
HETATM   24  O4  UNL     1      30.603  19.414  27.780  1.00  0.00    -0.271 OA
ENDROOT
BRANCH   1  25
HETATM   25  C6  UNL     1      27.706  18.221  26.244  1.00  0.00     0.035 C 
BRANCH  25  26
HETATM   26  C5  UNL     1      26.964  19.126  27.192  1.00  0.00     0.002 C 
BRANCH  26  27
HETATM   27  C4  UNL     1      26.640  20.480  26.558  1.00  0.00     0.001 C 
BRANCH  27  28
HETATM   28  C3  UNL     1      26.905  21.595  27.505  1.00  0.00     0.010 C 
BRANCH  28  29
HETATM   29  C2  UNL     1      27.695  21.291  28.716  1.00  0.00     0.073 C 
BRANCH  29  30
HETATM   30  S1  UNL     1      27.999  22.622  29.856  1.00  0.00    -0.173 SA
HETATM   31  C1  UNL     1      29.749  23.050  29.921  1.00  0.00     0.089 C 
ENDBRANCH  29  30
ENDBRANCH  28  29
ENDBRANCH  27  28
ENDBRANCH  26  27
ENDBRANCH  25  26
ENDBRANCH   1  25
BRANCH   6  32
HETATM   32  C10 UNL     1      27.230  15.258  23.982  1.00  0.00     0.257 C 
HETATM   33  F1  UNL     1      26.935  14.527  22.856  1.00  0.00    -0.253 F 
ENDBRANCH   6  32
BRANCH  11  34
HETATM   34  C13 UNL     1      30.494  16.362  20.242  1.00  0.00     0.067 C 
BRANCH  34  35
HETATM   35  C14 UNL     1      30.569  17.573  19.351  1.00  0.00    -0.017 C 
HETATM   36  C15 UNL     1      29.875  17.442  18.039  1.00  0.00     0.010 C 
HETATM   37  C16 UNL     1      29.924  18.743  20.089  1.00  0.00     0.010 C 
ENDBRANCH  34  35
ENDBRANCH  11  34
BRANCH  14  38
HETATM   38  C22 UNL     1      33.541  17.379  23.944  1.00  0.00     0.029 A 
HETATM   39  C23 UNL     1      33.330  16.373  25.055  1.00  0.00     0.009 A 
HETATM   40  C24 UNL     1      33.497  17.808  25.391  1.00  0.00     0.009 A 
ENDBRANCH  14  38
BRANCH  13  41
HETATM   41  C18 UNL     1      34.158  16.532  20.097  1.00  0.00     0.062 C 
HETATM   42  C19 UNL     1      33.694  15.776  18.937  1.00  0.00     0.038 C 
HETATM   43  C20 UNL     1      34.226  18.021  19.636  1.00  0.00     0.038 C 
HETATM   44 CL1  UNL     1      35.938  16.155  20.340  1.00  0.00    -0.114 Cl
ENDBRANCH  13  41
TORSDOF 11
ENDMDL
MODEL 2
REMARK VINA RESULT: -5.790929988      1.536      2.074
REMARK  11 active torsions:
REMARK  status: ('A' for Active; 'I' for Inactive)
REMARK    1  A    between atoms: S1_2  and  C2_3 
REMARK    2  A    between atoms: C2_3  and  C3_4 
REMARK    3  A    between atoms: C3_4  and  C4_5 
REMARK    4  A    between atoms: C4_5  and  C5_6 
REMARK    5  A    between atoms: C5_6  and  C6_7 
REMARK    6  A    between atoms: C6_7  and  C7_8 
REMARK    7  A    between atoms: C9_13  and  C10_14 
REMARK    8  A    between atoms: C12_20  and  C13_21 
REMARK    9  A    between atoms: C13_21  and  C14_22 
REMARK   10  A    between atoms: C17_26  and  C18_27 
REMARK   11  A    between atoms: C21_31  and  C22_32 
ROOT
HETATM    1  C7  UNL     1      29.052  17.928  26.729  1.00  0.00     0.176 C 
HETATM    2  N1  UNL     1      29.778  16.869  26.084  1.00  0.00    -0.346 N 
ATOM      3  H1  UNL     1      30.786  16.907  26.234  1.00  0.00     0.163 HD
HETATM    4  C8  UNL     1      29.359  15.797  25.290  1.00  0.00     0.243 C 
HETATM    5  O1  UNL     1      29.546  14.590  25.717  1.00  0.00    -0.271 OA
HETATM    6  C9  UNL     1      28.700  15.823  23.963  1.00  0.00     0.205 C 
HETATM    7  N2  UNL     1      29.504  15.059  23.039  1.00  0.00    -0.340 N 
ATOM      8  H2  UNL     1      29.119  14.151  22.782  1.00  0.00     0.163 HD
HETATM    9  C11 UNL     1      30.710  15.368  22.452  1.00  0.00     0.265 C 
HETATM   10  O2  UNL     1      31.668  14.522  22.609  1.00  0.00    -0.266 OA
HETATM   11  C12 UNL     1      31.063  16.557  21.650  1.00  0.00     0.081 C 
HETATM   12  N3  UNL     1      32.341  17.050  21.892  1.00  0.00    -0.335 N 
HETATM   13  C17 UNL     1      33.567  16.656  21.477  1.00  0.00     0.091 C 
HETATM   14  C21 UNL     1      32.316  17.834  23.137  1.00  0.00     0.195 C 
HETATM   15  N4  UNL     1      32.118  19.241  22.865  1.00  0.00    -0.337 N 
ATOM     16  H4  UNL     1      32.566  19.627  22.035  1.00  0.00     0.164 HD
HETATM   17  C25 UNL     1      31.346  20.126  23.666  1.00  0.00     0.241 C 
HETATM   18  O3  UNL     1      31.830  21.285  23.868  1.00  0.00    -0.271 OA
HETATM   19  C26 UNL     1      30.028  19.781  24.272  1.00  0.00     0.174 C 
HETATM   20  C27 UNL     1      28.924  20.549  23.532  1.00  0.00     0.042 C 
HETATM   21  N5  UNL     1      29.963  20.116  25.692  1.00  0.00    -0.342 N 
HETATM   22  C28 UNL     1      30.049  21.557  25.984  1.00  0.00     0.153 C 
HETATM   23  C29 UNL     1      29.838  19.197  26.743  1.00  0.00     0.243 C 
HETATM   24  O4  UNL     1      30.467  19.494  27.812  1.00  0.00    -0.271 OA
ENDROOT
BRANCH   1  25
HETATM   25  C6  UNL     1      27.643  18.128  26.284  1.00  0.00     0.035 C 
BRANCH  25  26
HETATM   26  C5  UNL     1      26.959  19.261  27.003  1.00  0.00     0.002 C 
BRANCH  26  27
HETATM   27  C4  UNL     1      25.992  20.018  26.092  1.00  0.00     0.001 C 
BRANCH  27  28
HETATM   28  C3  UNL     1      24.854  19.153  25.680  1.00  0.00     0.010 C 
BRANCH  28  29
HETATM   29  C2  UNL     1      23.927  19.682  24.659  1.00  0.00     0.073 C 
BRANCH  29  30
HETATM   30  S1  UNL     1      22.573  20.691  25.221  1.00  0.00    -0.173 SA
HETATM   31  C1  UNL     1      22.403  20.630  27.014  1.00  0.00     0.089 C 
ENDBRANCH  29  30
ENDBRANCH  28  29
ENDBRANCH  27  28
ENDBRANCH  26  27
ENDBRANCH  25  26
ENDBRANCH   1  25
BRANCH   6  32
HETATM   32  C10 UNL     1      27.337  15.131  24.038  1.00  0.00     0.257 C 
HETATM   33  F1  UNL     1      26.312  16.036  24.177  1.00  0.00    -0.253 F 
ENDBRANCH   6  32
BRANCH  11  34
HETATM   34  C13 UNL     1      30.532  16.398  20.291  1.00  0.00     0.067 C 
BRANCH  34  35
HETATM   35  C14 UNL     1      30.549  17.603  19.389  1.00  0.00    -0.017 C 
HETATM   36  C15 UNL     1      29.828  17.440  18.095  1.00  0.00     0.010 C 
HETATM   37  C16 UNL     1      29.887  18.760  20.133  1.00  0.00     0.010 C 
ENDBRANCH  34  35
ENDBRANCH  11  34
BRANCH  14  38
HETATM   38  C22 UNL     1      33.517  17.609  23.986  1.00  0.00     0.029 A 
HETATM   39  C23 UNL     1      33.336  16.672  25.161  1.00  0.00     0.009 A 
HETATM   40  C24 UNL     1      33.484  18.128  25.403  1.00  0.00     0.009 A 
ENDBRANCH  14  38
BRANCH  13  41
HETATM   41  C18 UNL     1      34.180  16.777  20.144  1.00  0.00     0.062 C 
HETATM   42  C19 UNL     1      33.811  15.938  19.006  1.00  0.00     0.038 C 
HETATM   43  C20 UNL     1      34.083  18.249  19.636  1.00  0.00     0.038 C 
HETATM   44 CL1  UNL     1      35.990  16.611  20.402  1.00  0.00    -0.114 Cl
ENDBRANCH  13  41
TORSDOF 11
ENDMDL
MODEL 3
REMARK VINA RESULT: -5.761595528      0.906      1.202
REMARK  11 active torsions:
REMARK  status: ('A' for Active; 'I' for Inactive)
REMARK    1  A    between atoms: S1_2  and  C2_3 
REMARK    2  A    between atoms: C2_3  and  C3_4 
REMARK    3  A    between atoms: C3_4  and  C4_5 
REMARK    4  A    between atoms: C4_5  and  C5_6 
REMARK    5  A    between atoms: C5_6  and  C6_7 
REMARK    6  A    between atoms: C6_7  and  C7_8 
REMARK    7  A    between atoms: C9_13  and  C10_14 
REMARK    8  A    between atoms: C12_20  and  C13_21 
REMARK    9  A    between atoms: C13_21  and  C14_22 
REMARK   10  A    between atoms: C17_26  and  C18_27 
REMARK   11  A    between atoms: C21_31  and  C22_32 
ROOT
HETATM    1  C7  UNL     1      29.099  17.910  26.867  1.00  0.00     0.176 C 
HETATM    2  N1  UNL     1      29.828  16.862  26.209  1.00  0.00    -0.346 N 
ATOM      3  H1  UNL     1      30.838  16.910  26.346  1.00  0.00     0.163 HD
HETATM    4  C8  UNL     1      29.412  15.789  25.414  1.00  0.00     0.243 C 
HETATM    5  O1  UNL     1      29.616  14.582  25.833  1.00  0.00    -0.271 OA
HETATM    6  C9  UNL     1      28.736  15.815  24.095  1.00  0.00     0.205 C 
HETATM    7  N2  UNL     1      29.537  15.064  23.158  1.00  0.00    -0.340 N 
ATOM      8  H2  UNL     1      29.158  14.152  22.901  1.00  0.00     0.163 HD
HETATM    9  C11 UNL     1      30.732  15.389  22.558  1.00  0.00     0.265 C 
HETATM   10  O2  UNL     1      31.701  14.552  22.698  1.00  0.00    -0.266 OA
HETATM   11  C12 UNL     1      31.063  16.585  21.757  1.00  0.00     0.081 C 
HETATM   12  N3  UNL     1      32.337  17.091  21.987  1.00  0.00    -0.335 N 
HETATM   13  C17 UNL     1      33.562  16.712  21.554  1.00  0.00     0.091 C 
HETATM   14  C21 UNL     1      32.320  17.869  23.235  1.00  0.00     0.195 C 
HETATM   15  N4  UNL     1      32.103  19.274  22.973  1.00  0.00    -0.337 N 
ATOM     16  H4  UNL     1      32.537  19.670  22.139  1.00  0.00     0.164 HD
HETATM   17  C25 UNL     1      31.331  20.147  23.787  1.00  0.00     0.241 C 
HETATM   18  O3  UNL     1      31.805  21.311  23.989  1.00  0.00    -0.271 OA
HETATM   19  C26 UNL     1      30.025  19.785  24.408  1.00  0.00     0.174 C 
HETATM   20  C27 UNL     1      28.903  20.545  23.685  1.00  0.00     0.042 C 
HETATM   21  N5  UNL     1      29.973  20.113  25.830  1.00  0.00    -0.342 N 
HETATM   22  C28 UNL     1      30.048  21.553  26.128  1.00  0.00     0.153 C 
HETATM   23  C29 UNL     1      29.872  19.187  26.878  1.00  0.00     0.243 C 
HETATM   24  O4  UNL     1      30.510  19.485  27.940  1.00  0.00    -0.271 OA
ENDROOT
BRANCH   1  25
HETATM   25  C6  UNL     1      27.683  18.096  26.441  1.00  0.00     0.035 C 
BRANCH  25  26
HETATM   26  C5  UNL     1      26.990  19.207  27.187  1.00  0.00     0.002 C 
BRANCH  26  27
HETATM   27  C4  UNL     1      26.183  20.109  26.253  1.00  0.00     0.001 C 
BRANCH  27  28
HETATM   28  C3  UNL     1      26.271  21.533  26.673  1.00  0.00     0.010 C 
BRANCH  28  29
HETATM   29  C2  UNL     1      25.582  21.922  27.920  1.00  0.00     0.073 C 
BRANCH  29  30
HETATM   30  S1  UNL     1      26.529  22.800  29.144  1.00  0.00    -0.173 SA
HETATM   31  C1  UNL     1      28.117  22.002  29.448  1.00  0.00     0.089 C 
ENDBRANCH  29  30
ENDBRANCH  28  29
ENDBRANCH  27  28
ENDBRANCH  26  27
ENDBRANCH  25  26
ENDBRANCH   1  25
BRANCH   6  32
HETATM   32  C10 UNL     1      27.381  15.107  24.184  1.00  0.00     0.257 C 
HETATM   33  F1  UNL     1      26.338  16.002  24.199  1.00  0.00    -0.253 F 
ENDBRANCH   6  32
BRANCH  11  34
HETATM   34  C13 UNL     1      30.517  16.427  20.404  1.00  0.00     0.067 C 
BRANCH  34  35
HETATM   35  C14 UNL     1      30.615  15.067  19.766  1.00  0.00    -0.017 C 
HETATM   36  C15 UNL     1      29.339  14.302  19.699  1.00  0.00     0.010 C 
HETATM   37  C16 UNL     1      31.108  15.252  18.333  1.00  0.00     0.010 C 
ENDBRANCH  34  35
ENDBRANCH  11  34
BRANCH  14  38
HETATM   38  C22 UNL     1      33.533  17.652  24.068  1.00  0.00     0.029 A 
HETATM   39  C23 UNL     1      33.363  16.750  25.272  1.00  0.00     0.009 A 
HETATM   40  C24 UNL     1      33.532  18.211  25.471  1.00  0.00     0.009 A 
ENDBRANCH  14  38
BRANCH  13  41
HETATM   41  C18 UNL     1      34.158  16.846  20.214  1.00  0.00     0.062 C 
HETATM   42  C19 UNL     1      34.298  15.734  19.278  1.00  0.00     0.038 C 
HETATM   43  C20 UNL     1      33.449  17.986  19.419  1.00  0.00     0.038 C 
HETATM   44 CL1  UNL     1      35.822  17.578  20.471  1.00  0.00    -0.114 Cl
ENDBRANCH  13  41
TORSDOF 11
ENDMDL
MODEL 4
REMARK VINA RESULT: -5.674528080      1.857      2.592
REMARK  11 active torsions:
REMARK  status: ('A' for Active; 'I' for Inactive)
REMARK    1  A    between atoms: S1_2  and  C2_3 
REMARK    2  A    between atoms: C2_3  and  C3_4 
REMARK    3  A    between atoms: C3_4  and  C4_5 
REMARK    4  A    between atoms: C4_5  and  C5_6 
REMARK    5  A    between atoms: C5_6  and  C6_7 
REMARK    6  A    between atoms: C6_7  and  C7_8 
REMARK    7  A    between atoms: C9_13  and  C10_14 
REMARK    8  A    between atoms: C12_20  and  C13_21 
REMARK    9  A    between atoms: C13_21  and  C14_22 
REMARK   10  A    between atoms: C17_26  and  C18_27 
REMARK   11  A    between atoms: C21_31  and  C22_32 
ROOT
HETATM    1  C7  UNL     1      28.915  17.851  26.674  1.00  0.00     0.176 C 
HETATM    2  N1  UNL     1      29.718  16.855  26.021  1.00  0.00    -0.346 N 
ATOM      3  H1  UNL     1      30.718  16.941  26.207  1.00  0.00     0.163 HD
HETATM    4  C8  UNL     1      29.385  15.790  25.178  1.00  0.00     0.243 C 
HETATM    5  O1  UNL     1      29.623  14.580  25.572  1.00  0.00    -0.271 OA
HETATM    6  C9  UNL     1      28.770  15.826  23.830  1.00  0.00     0.205 C 
HETATM    7  N2  UNL     1      29.645  15.138  22.911  1.00  0.00    -0.340 N 
ATOM      8  H2  UNL     1      29.319  14.220  22.611  1.00  0.00     0.163 HD
HETATM    9  C11 UNL     1      30.851  15.531  22.377  1.00  0.00     0.265 C 
HETATM   10  O2  UNL     1      31.848  14.733  22.539  1.00  0.00    -0.266 OA
HETATM   11  C12 UNL     1      31.165  16.764  21.626  1.00  0.00     0.081 C 
HETATM   12  N3  UNL     1      32.405  17.316  21.929  1.00  0.00    -0.335 N 
HETATM   13  C17 UNL     1      33.663  17.003  21.544  1.00  0.00     0.091 C 
HETATM   14  C21 UNL     1      32.296  18.055  23.197  1.00  0.00     0.195 C 
HETATM   15  N4  UNL     1      32.030  19.457  22.964  1.00  0.00    -0.337 N 
ATOM     16  H4  UNL     1      32.484  19.896  22.163  1.00  0.00     0.164 HD
HETATM   17  C25 UNL     1      31.185  20.272  23.766  1.00  0.00     0.241 C 
HETATM   18  O3  UNL     1      31.598  21.448  24.022  1.00  0.00    -0.271 OA
HETATM   19  C26 UNL     1      29.869  19.837  24.314  1.00  0.00     0.174 C 
HETATM   20  C27 UNL     1      28.749  20.569  23.562  1.00  0.00     0.042 C 
HETATM   21  N5  UNL     1      29.738  20.119  25.741  1.00  0.00    -0.342 N 
HETATM   22  C28 UNL     1      29.736  21.552  26.083  1.00  0.00     0.153 C 
HETATM   23  C29 UNL     1      29.629  19.159  26.757  1.00  0.00     0.243 C 
HETATM   24  O4  UNL     1      30.205  19.452  27.856  1.00  0.00    -0.271 OA
ENDROOT
BRANCH   1  25
HETATM   25  C6  UNL     1      27.513  17.990  26.187  1.00  0.00     0.035 C 
BRANCH  25  26
HETATM   26  C5  UNL     1      26.776  19.127  26.845  1.00  0.00     0.002 C 
BRANCH  26  27
HETATM   27  C4  UNL     1      25.883  19.880  25.858  1.00  0.00     0.001 C 
BRANCH  27  28
HETATM   28  C3  UNL     1      24.729  19.045  25.433  1.00  0.00     0.010 C 
BRANCH  28  29
HETATM   29  C2  UNL     1      23.652  19.705  24.668  1.00  0.00     0.073 C 
BRANCH  29  30
HETATM   30  S1  UNL     1      24.129  20.902  23.442  1.00  0.00    -0.173 SA
HETATM   31  C1  UNL     1      23.028  20.862  22.015  1.00  0.00     0.089 C 
ENDBRANCH  29  30
ENDBRANCH  28  29
ENDBRANCH  27  28
ENDBRANCH  26  27
ENDBRANCH  25  26
ENDBRANCH   1  25
BRANCH   6  32
HETATM   32  C10 UNL     1      27.445  15.059  23.836  1.00  0.00     0.257 C 
HETATM   33  F1  UNL     1      26.383  15.878  24.139  1.00  0.00    -0.253 F 
ENDBRANCH   6  32
BRANCH  11  34
HETATM   34  C13 UNL     1      30.689  16.624  20.245  1.00  0.00     0.067 C 
BRANCH  34  35
HETATM   35  C14 UNL     1      30.697  15.245  19.640  1.00  0.00    -0.017 C 
HETATM   36  C15 UNL     1      29.353  14.648  19.400  1.00  0.00     0.010 C 
HETATM   37  C16 UNL     1      31.405  15.325  18.291  1.00  0.00     0.010 C 
ENDBRANCH  34  35
ENDBRANCH  11  34
BRANCH  14  38
HETATM   38  C22 UNL     1      33.479  17.865  24.080  1.00  0.00     0.029 A 
HETATM   39  C23 UNL     1      33.319  16.862  25.202  1.00  0.00     0.009 A 
HETATM   40  C24 UNL     1      33.362  18.311  25.517  1.00  0.00     0.009 A 
ENDBRANCH  14  38
BRANCH  13  41
HETATM   41  C18 UNL     1      34.313  17.202  20.238  1.00  0.00     0.062 C 
HETATM   42  C19 UNL     1      33.721  17.980  19.152  1.00  0.00     0.038 C 
HETATM   43  C20 UNL     1      35.753  17.770  20.431  1.00  0.00     0.038 C 
HETATM   44 CL1  UNL     1      34.679  15.523  19.592  1.00  0.00    -0.114 Cl
ENDBRANCH  13  41
TORSDOF 11
ENDMDL
MODEL 5
REMARK VINA RESULT: -5.385385889      2.377      3.690
REMARK  11 active torsions:
REMARK  status: ('A' for Active; 'I' for Inactive)
REMARK    1  A    between atoms: S1_2  and  C2_3 
REMARK    2  A    between atoms: C2_3  and  C3_4 
REMARK    3  A    between atoms: C3_4  and  C4_5 
REMARK    4  A    between atoms: C4_5  and  C5_6 
REMARK    5  A    between atoms: C5_6  and  C6_7 
REMARK    6  A    between atoms: C6_7  and  C7_8 
REMARK    7  A    between atoms: C9_13  and  C10_14 
REMARK    8  A    between atoms: C12_20  and  C13_21 
REMARK    9  A    between atoms: C13_21  and  C14_22 
REMARK   10  A    between atoms: C17_26  and  C18_27 
REMARK   11  A    between atoms: C21_31  and  C22_32 
ROOT
HETATM    1  C7  UNL     1      28.744  17.533  26.422  1.00  0.00     0.176 C 
HETATM    2  N1  UNL     1      29.589  16.580  25.759  1.00  0.00    -0.346 N 
ATOM      3  H1  UNL     1      30.578  16.665  25.998  1.00  0.00     0.163 HD
HETATM    4  C8  UNL     1      29.310  15.557  24.848  1.00  0.00     0.243 C 
HETATM    5  O1  UNL     1      29.542  14.331  25.190  1.00  0.00    -0.271 OA
HETATM    6  C9  UNL     1      28.761  15.657  23.475  1.00  0.00     0.205 C 
HETATM    7  N2  UNL     1      29.687  15.026  22.565  1.00  0.00    -0.340 N 
ATOM      8  H2  UNL     1      29.386  14.121  22.203  1.00  0.00     0.163 HD
HETATM    9  C11 UNL     1      30.913  15.456  22.112  1.00  0.00     0.265 C 
HETATM   10  O2  UNL     1      31.910  14.659  22.282  1.00  0.00    -0.266 OA
HETATM   11  C12 UNL     1      31.249  16.729  21.442  1.00  0.00     0.081 C 
HETATM   12  N3  UNL     1      32.467  17.276  21.834  1.00  0.00    -0.335 N 
HETATM   13  C17 UNL     1      33.746  16.994  21.496  1.00  0.00     0.091 C 
HETATM   14  C21 UNL     1      32.288  17.947  23.131  1.00  0.00     0.195 C 
HETATM   15  N4  UNL     1      32.018  19.357  22.957  1.00  0.00    -0.337 N 
ATOM     16  H4  UNL     1      32.505  19.840  22.203  1.00  0.00     0.164 HD
HETATM   17  C25 UNL     1      31.125  20.121  23.757  1.00  0.00     0.241 C 
HETATM   18  O3  UNL     1      31.512  21.286  24.093  1.00  0.00    -0.271 OA
HETATM   19  C26 UNL     1      29.789  19.647  24.217  1.00  0.00     0.174 C 
HETATM   20  C27 UNL     1      28.699  20.407  23.448  1.00  0.00     0.042 C 
HETATM   21  N5  UNL     1      29.586  19.854  25.648  1.00  0.00    -0.342 N 
HETATM   22  C28 UNL     1      29.551  21.267  26.062  1.00  0.00     0.153 C 
HETATM   23  C29 UNL     1      29.439  18.842  26.606  1.00  0.00     0.243 C 
HETATM   24  O4  UNL     1      29.957  19.082  27.746  1.00  0.00    -0.271 OA
ENDROOT
BRANCH   1  25
HETATM   25  C6  UNL     1      27.365  17.685  25.874  1.00  0.00     0.035 C 
BRANCH  25  26
HETATM   26  C5  UNL     1      26.426  16.609  26.351  1.00  0.00     0.002 C 
BRANCH  26  27
HETATM   27  C4  UNL     1      25.133  16.572  25.535  1.00  0.00     0.001 C 
BRANCH  27  28
HETATM   28  C3  UNL     1      24.466  15.247  25.644  1.00  0.00     0.010 C 
BRANCH  28  29
HETATM   29  C2  UNL     1      24.107  14.557  24.388  1.00  0.00     0.073 C 
BRANCH  29  30
HETATM   30  S1  UNL     1      22.960  13.202  24.493  1.00  0.00    -0.173 SA
HETATM   31  C1  UNL     1      23.027  12.164  23.021  1.00  0.00     0.089 C 
ENDBRANCH  29  30
ENDBRANCH  28  29
ENDBRANCH  27  28
ENDBRANCH  26  27
ENDBRANCH  25  26
ENDBRANCH   1  25
BRANCH   6  32
HETATM   32  C10 UNL     1      27.446  14.880  23.376  1.00  0.00     0.257 C 
HETATM   33  F1  UNL     1      27.395  14.106  22.241  1.00  0.00    -0.253 F 
ENDBRANCH   6  32
BRANCH  11  34
HETATM   34  C13 UNL     1      30.843  16.656  20.034  1.00  0.00     0.067 C 
BRANCH  34  35
HETATM   35  C14 UNL     1      30.723  15.291  19.412  1.00  0.00    -0.017 C 
HETATM   36  C15 UNL     1      29.349  14.905  18.985  1.00  0.00     0.010 C 
HETATM   37  C16 UNL     1      31.608  15.257  18.169  1.00  0.00     0.010 C 
ENDBRANCH  34  35
ENDBRANCH  11  34
BRANCH  14  38
HETATM   38  C22 UNL     1      33.428  17.722  24.060  1.00  0.00     0.029 A 
HETATM   39  C23 UNL     1      33.238  16.637  25.098  1.00  0.00     0.009 A 
HETATM   40  C24 UNL     1      33.225  18.060  25.517  1.00  0.00     0.009 A 
ENDBRANCH  14  38
BRANCH  13  41
HETATM   41  C18 UNL     1      34.457  17.266  20.235  1.00  0.00     0.062 C 
HETATM   42  C19 UNL     1      33.907  18.091  19.161  1.00  0.00     0.038 C 
HETATM   43  C20 UNL     1      35.877  17.839  20.528  1.00  0.00     0.038 C 
HETATM   44 CL1  UNL     1      34.877  15.626  19.526  1.00  0.00    -0.114 Cl
ENDBRANCH  13  41
TORSDOF 11
ENDMDL
