MODEL 1
REMARK VINA RESULT: -10.324148413      0.000      0.000
REMARK  13 active torsions:
REMARK  status: ('A' for Active; 'I' for Inactive)
REMARK    1  A    between atoms: C2_2  and  C4_4 
REMARK    2  A    between atoms: C4_4  and  C5_5 
REMARK    3  A    between atoms: C5_5  and  C35_45 
REMARK       I    between atoms: N1_6  and  C6_8 
REMARK    4  A    between atoms: C6_8  and  C7_10 
REMARK    5  A    between atoms: C7_10  and  C8_11 
REMARK    6  A    between atoms: C7_10  and  N2_17 
REMARK    7  A    between atoms: C8_11  and  C9_12 
REMARK    8  A    between atoms: C9_12  and  C10_13 
REMARK    9  A    between atoms: N3_20  and  C16_21 
REMARK   10  A    between atoms: C16_21  and  O2_22 
REMARK   11  A    between atoms: C16_21  and  C17_24 
REMARK   12  A    between atoms: C17_24  and  C18_25 
REMARK   13  A    between atoms: C26_35  and  N4_36 
ROOT
HETATM    1  N2  UNL     1     -13.978  21.429  -6.532  1.00  0.00    -0.377 N 
HETATM    2  C14 UNL     1     -13.622  20.083  -6.722  1.00  0.00     0.143 C 
HETATM    3  C15 UNL     1     -14.205  19.648  -8.083  1.00  0.00     0.145 C 
HETATM    4  N3  UNL     1     -15.668  19.739  -7.852  1.00  0.00    -0.358 N 
HETATM    5  C33 UNL     1     -16.145  21.066  -7.691  1.00  0.00     0.168 C 
HETATM    6  C34 UNL     1     -14.966  22.001  -7.342  1.00  0.00     0.079 C 
ENDROOT
BRANCH   4   7
HETATM    7  C16 UNL     1     -16.396  18.579  -7.822  1.00  0.00     0.127 C 
BRANCH   7   8
HETATM    8  O2  UNL     1     -15.694  17.493  -8.056  1.00  0.00    -0.349 OA
ATOM      9  H2  UNL     1     -15.793  16.813  -7.400  1.00  0.00     0.219 HD
ENDBRANCH   7   8
BRANCH   7  10
HETATM   10  C17 UNL     1     -17.813  18.295  -7.578  1.00  0.00     0.057 C 
HETATM   11  C24 UNL     1     -18.595  19.067  -8.615  1.00  0.00     0.025 C 
HETATM   12  C25 UNL     1     -19.850  18.266  -8.880  1.00  0.00     0.035 C 
HETATM   13  C26 UNL     1     -19.387  16.831  -8.730  1.00  0.00     0.191 C 
HETATM   14  C32 UNL     1     -18.244  16.861  -7.757  1.00  0.00     0.056 C 
BRANCH  10  15
HETATM   15  C18 UNL     1     -18.224  18.788  -6.230  1.00  0.00    -0.003 A 
HETATM   16  C19 UNL     1     -19.110  19.813  -6.020  1.00  0.00     0.014 A 
HETATM   17  C20 UNL     1     -19.434  20.231  -4.726  1.00  0.00     0.043 A 
HETATM   18  C21 UNL     1     -18.851  19.600  -3.674  1.00  0.00     0.119 A 
HETATM   19  F1  UNL     1     -19.112  19.946  -2.372  1.00  0.00    -0.206 F 
HETATM   20  C22 UNL     1     -17.959  18.568  -3.860  1.00  0.00     0.085 A 
HETATM   21  C23 UNL     1     -17.649  18.164  -5.134  1.00  0.00     0.126 A 
HETATM   22  F2  UNL     1     -16.805  17.141  -5.319  1.00  0.00    -0.205 F 
ENDBRANCH  10  15
BRANCH  13  23
HETATM   23  N4  UNL     1     -20.422  15.898  -8.431  1.00  0.00    -0.067 N 
HETATM   24  C27 UNL     1     -20.607  15.075  -9.638  1.00  0.00     0.273 C 
HETATM   25  C28 UNL     1     -20.207  15.057  -7.305  1.00  0.00     0.237 C 
HETATM   26  C29 UNL     1     -21.300  15.262  -6.311  1.00  0.00     0.029 C 
HETATM   27  C30 UNL     1     -22.161  16.347  -6.873  1.00  0.00     0.029 C 
HETATM   28  C31 UNL     1     -21.657  16.612  -8.247  1.00  0.00     0.237 C 
ENDBRANCH  13  23
ENDBRANCH   7  10
ENDBRANCH   4   7
BRANCH   1  29
HETATM   29  C7  UNL     1     -13.423  22.152  -5.462  1.00  0.00     0.176 C 
BRANCH  29  30
HETATM   30  C6  UNL     1     -12.259  22.971  -5.765  1.00  0.00     0.244 C 
HETATM   31  N1  UNL     1     -11.133  22.475  -6.435  1.00  0.00    -0.324 N 
HETATM   32  C5  UNL     1     -10.901  22.691  -7.690  1.00  0.00     0.077 C 
ATOM     33  H1  UNL     1     -10.463  21.916  -5.907  1.00  0.00     0.169 HD
HETATM   34  O1  UNL     1     -12.211  24.203  -5.423  1.00  0.00    -0.271 OA
BRANCH  32  35
HETATM   35  C4  UNL     1     -11.821  23.486  -8.525  1.00  0.00     0.066 C 
BRANCH  35  36
HETATM   36  C2  UNL     1     -11.151  24.610  -9.264  1.00  0.00    -0.017 C 
HETATM   37  C1  UNL     1     -12.053  25.298 -10.259  1.00  0.00     0.010 C 
HETATM   38  C3  UNL     1     -10.740  25.697  -8.251  1.00  0.00     0.010 C 
ENDBRANCH  35  36
ENDBRANCH  32  35
BRANCH  32  39
HETATM   39  C35 UNL     1      -9.673  22.126  -8.235  1.00  0.00     0.277 C 
HETATM   40  N5  UNL     1      -9.640  21.693  -9.586  1.00  0.00    -0.056 NA
HETATM   41  O3  UNL     1      -8.666  22.029  -7.502  1.00  0.00    -0.270 OA
ENDBRANCH  32  39
ENDBRANCH  29  30
BRANCH  29  42
HETATM   42  C8  UNL     1     -14.539  23.041  -4.892  1.00  0.00     0.035 C 
BRANCH  42  43
HETATM   43  C9  UNL     1     -14.765  22.696  -3.438  1.00  0.00     0.011 C 
BRANCH  43  44
HETATM   44  C10 UNL     1     -14.689  23.909  -2.577  1.00  0.00    -0.051 C 
HETATM   45  C11 UNL     1     -13.332  24.101  -1.942  1.00  0.00     0.014 C 
HETATM   46  C12 UNL     1     -14.936  25.133  -3.453  1.00  0.00     0.014 C 
HETATM   47  C13 UNL     1     -15.724  23.888  -1.476  1.00  0.00     0.014 C 
ENDBRANCH  43  44
ENDBRANCH  42  43
ENDBRANCH  29  42
ENDBRANCH   1  29
TORSDOF 13
ENDMDL
MODEL 2
REMARK VINA RESULT: -10.208338997      0.820      1.099
REMARK  13 active torsions:
REMARK  status: ('A' for Active; 'I' for Inactive)
REMARK    1  A    between atoms: C2_2  and  C4_4 
REMARK    2  A    between atoms: C4_4  and  C5_5 
REMARK    3  A    between atoms: C5_5  and  C35_45 
REMARK       I    between atoms: N1_6  and  C6_8 
REMARK    4  A    between atoms: C6_8  and  C7_10 
REMARK    5  A    between atoms: C7_10  and  C8_11 
REMARK    6  A    between atoms: C7_10  and  N2_17 
REMARK    7  A    between atoms: C8_11  and  C9_12 
REMARK    8  A    between atoms: C9_12  and  C10_13 
REMARK    9  A    between atoms: N3_20  and  C16_21 
REMARK   10  A    between atoms: C16_21  and  O2_22 
REMARK   11  A    between atoms: C16_21  and  C17_24 
REMARK   12  A    between atoms: C17_24  and  C18_25 
REMARK   13  A    between atoms: C26_35  and  N4_36 
ROOT
HETATM    1  N2  UNL     1     -13.889  21.380  -6.452  1.00  0.00    -0.377 N 
HETATM    2  C14 UNL     1     -13.702  19.988  -6.388  1.00  0.00     0.143 C 
HETATM    3  C15 UNL     1     -14.126  19.413  -7.755  1.00  0.00     0.145 C 
HETATM    4  N3  UNL     1     -15.580  19.709  -7.794  1.00  0.00    -0.358 N 
HETATM    5  C33 UNL     1     -15.884  21.091  -7.903  1.00  0.00     0.168 C 
HETATM    6  C34 UNL     1     -14.651  21.926  -7.490  1.00  0.00     0.079 C 
ENDROOT
BRANCH   4   7
HETATM    7  C16 UNL     1     -16.461  18.662  -7.729  1.00  0.00     0.127 C 
BRANCH   7   8
HETATM    8  O2  UNL     1     -15.997  17.534  -8.220  1.00  0.00    -0.349 OA
ATOM      9  H2  UNL     1     -15.335  17.644  -8.893  1.00  0.00     0.219 HD
ENDBRANCH   7   8
BRANCH   7  10
HETATM   10  C17 UNL     1     -17.828  18.536  -7.216  1.00  0.00     0.057 C 
HETATM   11  C24 UNL     1     -18.751  18.963  -8.334  1.00  0.00     0.025 C 
HETATM   12  C25 UNL     1     -20.029  18.176  -8.149  1.00  0.00     0.035 C 
HETATM   13  C26 UNL     1     -19.546  16.848  -7.600  1.00  0.00     0.191 C 
HETATM   14  C32 UNL     1     -18.277  17.143  -6.854  1.00  0.00     0.056 C 
BRANCH  10  15
HETATM   15  C18 UNL     1     -18.045  19.459  -6.063  1.00  0.00    -0.003 A 
HETATM   16  C19 UNL     1     -18.885  20.543  -6.088  1.00  0.00     0.014 A 
HETATM   17  C20 UNL     1     -19.023  21.372  -4.972  1.00  0.00     0.043 A 
HETATM   18  C21 UNL     1     -18.305  21.086  -3.855  1.00  0.00     0.119 A 
HETATM   19  F1  UNL     1     -18.380  21.847  -2.717  1.00  0.00    -0.206 F 
HETATM   20  C22 UNL     1     -17.456  20.004  -3.807  1.00  0.00     0.085 A 
HETATM   21  C23 UNL     1     -17.328  19.194  -4.907  1.00  0.00     0.126 A 
HETATM   22  F2  UNL     1     -16.525  18.123  -4.854  1.00  0.00    -0.205 F 
ENDBRANCH  10  15
BRANCH  13  23
HETATM   23  N4  UNL     1     -20.526  16.112  -6.874  1.00  0.00    -0.067 N 
HETATM   24  C27 UNL     1     -20.795  14.890  -7.652  1.00  0.00     0.273 C 
HETATM   25  C28 UNL     1     -20.192  15.764  -5.537  1.00  0.00     0.237 C 
HETATM   26  C29 UNL     1     -21.198  16.344  -4.602  1.00  0.00     0.029 C 
HETATM   27  C30 UNL     1     -22.134  17.139  -5.455  1.00  0.00     0.029 C 
HETATM   28  C31 UNL     1     -21.759  16.853  -6.866  1.00  0.00     0.237 C 
ENDBRANCH  13  23
ENDBRANCH   7  10
ENDBRANCH   4   7
BRANCH   1  29
HETATM   29  C7  UNL     1     -13.407  22.195  -5.413  1.00  0.00     0.176 C 
BRANCH  29  30
HETATM   30  C6  UNL     1     -12.238  23.007  -5.713  1.00  0.00     0.244 C 
HETATM   31  N1  UNL     1     -11.113  22.504  -6.381  1.00  0.00    -0.324 N 
HETATM   32  C5  UNL     1     -10.878  22.720  -7.636  1.00  0.00     0.077 C 
ATOM     33  H1  UNL     1     -10.448  21.940  -5.853  1.00  0.00     0.169 HD
HETATM   34  O1  UNL     1     -12.182  24.238  -5.370  1.00  0.00    -0.271 OA
BRANCH  32  35
HETATM   35  C4  UNL     1     -11.791  23.522  -8.472  1.00  0.00     0.066 C 
BRANCH  35  36
HETATM   36  C2  UNL     1     -11.114  24.645  -9.204  1.00  0.00    -0.017 C 
HETATM   37  C1  UNL     1     -12.015  25.355 -10.184  1.00  0.00     0.010 C 
HETATM   38  C3  UNL     1     -10.681  25.716  -8.183  1.00  0.00     0.010 C 
ENDBRANCH  35  36
ENDBRANCH  32  35
BRANCH  32  39
HETATM   39  C35 UNL     1      -9.652  22.146  -8.179  1.00  0.00     0.277 C 
HETATM   40  N5  UNL     1      -9.621  21.713  -9.530  1.00  0.00    -0.056 NA
HETATM   41  O3  UNL     1      -8.647  22.045  -7.445  1.00  0.00    -0.270 OA
ENDBRANCH  32  39
ENDBRANCH  29  30
BRANCH  29  42
HETATM   42  C8  UNL     1     -14.565  23.109  -4.982  1.00  0.00     0.035 C 
BRANCH  42  43
HETATM   43  C9  UNL     1     -14.952  22.793  -3.555  1.00  0.00     0.011 C 
BRANCH  43  44
HETATM   44  C10 UNL     1     -14.730  23.966  -2.664  1.00  0.00    -0.051 C 
HETATM   45  C11 UNL     1     -14.869  25.289  -3.380  1.00  0.00     0.014 C 
HETATM   46  C12 UNL     1     -15.797  23.948  -1.575  1.00  0.00     0.014 C 
HETATM   47  C13 UNL     1     -13.370  23.929  -2.007  1.00  0.00     0.014 C 
ENDBRANCH  43  44
ENDBRANCH  42  43
ENDBRANCH  29  42
ENDBRANCH   1  29
TORSDOF 13
ENDMDL
MODEL 3
REMARK VINA RESULT: -10.124641885      3.299      9.700
REMARK  13 active torsions:
REMARK  status: ('A' for Active; 'I' for Inactive)
REMARK    1  A    between atoms: C2_2  and  C4_4 
REMARK    2  A    between atoms: C4_4  and  C5_5 
REMARK    3  A    between atoms: C5_5  and  C35_45 
REMARK       I    between atoms: N1_6  and  C6_8 
REMARK    4  A    between atoms: C6_8  and  C7_10 
REMARK    5  A    between atoms: C7_10  and  C8_11 
REMARK    6  A    between atoms: C7_10  and  N2_17 
REMARK    7  A    between atoms: C8_11  and  C9_12 
REMARK    8  A    between atoms: C9_12  and  C10_13 
REMARK    9  A    between atoms: N3_20  and  C16_21 
REMARK   10  A    between atoms: C16_21  and  O2_22 
REMARK   11  A    between atoms: C16_21  and  C17_24 
REMARK   12  A    between atoms: C17_24  and  C18_25 
REMARK   13  A    between atoms: C26_35  and  N4_36 
ROOT
HETATM    1  N2  UNL     1     -19.342  18.656  -4.553  1.00  0.00    -0.377 N 
HETATM    2  C14 UNL     1     -18.506  18.785  -3.431  1.00  0.00     0.143 C 
HETATM    3  C15 UNL     1     -18.822  20.150  -2.787  1.00  0.00     0.145 C 
HETATM    4  N3  UNL     1     -18.386  21.110  -3.833  1.00  0.00    -0.358 N 
HETATM    5  C33 UNL     1     -19.194  21.094  -5.000  1.00  0.00     0.168 C 
HETATM    6  C34 UNL     1     -20.007  19.782  -5.050  1.00  0.00     0.079 C 
ENDROOT
BRANCH   4   7
HETATM    7  C16 UNL     1     -17.292  21.894  -3.582  1.00  0.00     0.127 C 
BRANCH   7   8
HETATM    8  O2  UNL     1     -17.461  22.764  -2.611  1.00  0.00    -0.349 OA
ATOM      9  H2  UNL     1     -16.979  23.575  -2.724  1.00  0.00     0.219 HD
ENDBRANCH   7   8
BRANCH   7  10
HETATM   10  C17 UNL     1     -15.955  21.964  -4.179  1.00  0.00     0.057 C 
HETATM   11  C24 UNL     1     -15.246  20.684  -3.804  1.00  0.00     0.025 C 
HETATM   12  C25 UNL     1     -14.282  20.391  -4.931  1.00  0.00     0.035 C 
HETATM   13  C26 UNL     1     -15.014  20.895  -6.159  1.00  0.00     0.191 C 
HETATM   14  C32 UNL     1     -15.901  22.010  -5.685  1.00  0.00     0.056 C 
BRANCH  10  15
HETATM   15  C18 UNL     1     -15.182  23.105  -3.604  1.00  0.00    -0.003 A 
HETATM   16  C19 UNL     1     -15.006  24.312  -4.231  1.00  0.00     0.014 A 
HETATM   17  C20 UNL     1     -14.253  25.328  -3.636  1.00  0.00     0.043 A 
HETATM   18  C21 UNL     1     -13.695  25.098  -2.419  1.00  0.00     0.119 A 
HETATM   19  F1  UNL     1     -12.942  26.040  -1.765  1.00  0.00    -0.206 F 
HETATM   20  C22 UNL     1     -13.859  23.895  -1.771  1.00  0.00     0.085 A 
HETATM   21  C23 UNL     1     -14.600  22.904  -2.363  1.00  0.00     0.126 A 
HETATM   22  F2  UNL     1     -14.787  21.742  -1.722  1.00  0.00    -0.205 F 
ENDBRANCH  10  15
BRANCH  13  23
HETATM   23  N4  UNL     1     -14.175  21.208  -7.267  1.00  0.00    -0.067 N 
HETATM   24  C27 UNL     1     -13.129  22.113  -6.759  1.00  0.00     0.273 C 
HETATM   25  C28 UNL     1     -13.573  20.107  -7.934  1.00  0.00     0.237 C 
HETATM   26  C29 UNL     1     -13.989  20.100  -9.366  1.00  0.00     0.029 C 
HETATM   27  C30 UNL     1     -14.951  21.234  -9.514  1.00  0.00     0.029 C 
HETATM   28  C31 UNL     1     -14.929  21.973  -8.223  1.00  0.00     0.237 C 
ENDBRANCH  13  23
ENDBRANCH   7  10
ENDBRANCH   4   7
BRANCH   1  29
HETATM   29  C7  UNL     1     -19.411  17.427  -5.232  1.00  0.00     0.176 C 
BRANCH  29  30
HETATM   30  C6  UNL     1     -20.495  16.534  -4.851  1.00  0.00     0.244 C 
HETATM   31  N1  UNL     1     -21.599  16.955  -4.099  1.00  0.00    -0.324 N 
HETATM   32  C5  UNL     1     -22.757  17.212  -4.618  1.00  0.00     0.077 C 
ATOM     33  H1  UNL     1     -21.486  17.066  -3.091  1.00  0.00     0.169 HD
HETATM   34  O1  UNL     1     -20.486  15.300  -5.190  1.00  0.00    -0.271 OA
BRANCH  32  35
HETATM   35  C4  UNL     1     -23.005  17.082  -6.067  1.00  0.00     0.066 C 
BRANCH  35  36
HETATM   36  C2  UNL     1     -23.705  15.809  -6.450  1.00  0.00    -0.017 C 
HETATM   37  C1  UNL     1     -25.090  16.028  -7.007  1.00  0.00     0.010 C 
HETATM   38  C3  UNL     1     -22.906  15.121  -7.575  1.00  0.00     0.010 C 
ENDBRANCH  35  36
ENDBRANCH  32  35
BRANCH  32  39
HETATM   39  C35 UNL     1     -23.812  17.619  -3.698  1.00  0.00     0.277 C 
HETATM   40  N5  UNL     1     -23.595  17.526  -2.298  1.00  0.00    -0.056 NA
HETATM   41  O3  UNL     1     -24.893  18.044  -4.157  1.00  0.00    -0.270 OA
ENDBRANCH  32  39
ENDBRANCH  29  30
BRANCH  29  42
HETATM   42  C8  UNL     1     -19.516  17.745  -6.732  1.00  0.00     0.035 C 
BRANCH  42  43
HETATM   43  C9  UNL     1     -18.504  16.919  -7.494  1.00  0.00     0.011 C 
BRANCH  43  44
HETATM   44  C10 UNL     1     -17.663  17.776  -8.375  1.00  0.00    -0.051 C 
HETATM   45  C11 UNL     1     -17.791  19.249  -8.067  1.00  0.00     0.014 C 
HETATM   46  C12 UNL     1     -16.201  17.410  -8.144  1.00  0.00     0.014 C 
HETATM   47  C13 UNL     1     -17.985  17.573  -9.838  1.00  0.00     0.014 C 
ENDBRANCH  43  44
ENDBRANCH  42  43
ENDBRANCH  29  42
ENDBRANCH   1  29
TORSDOF 13
ENDMDL
MODEL 4
REMARK VINA RESULT: -10.052672293      1.640      4.299
REMARK  13 active torsions:
REMARK  status: ('A' for Active; 'I' for Inactive)
REMARK    1  A    between atoms: C2_2  and  C4_4 
REMARK    2  A    between atoms: C4_4  and  C5_5 
REMARK    3  A    between atoms: C5_5  and  C35_45 
REMARK       I    between atoms: N1_6  and  C6_8 
REMARK    4  A    between atoms: C6_8  and  C7_10 
REMARK    5  A    between atoms: C7_10  and  C8_11 
REMARK    6  A    between atoms: C7_10  and  N2_17 
REMARK    7  A    between atoms: C8_11  and  C9_12 
REMARK    8  A    between atoms: C9_12  and  C10_13 
REMARK    9  A    between atoms: N3_20  and  C16_21 
REMARK   10  A    between atoms: C16_21  and  O2_22 
REMARK   11  A    between atoms: C16_21  and  C17_24 
REMARK   12  A    between atoms: C17_24  and  C18_25 
REMARK   13  A    between atoms: C26_35  and  N4_36 
ROOT
HETATM    1  N2  UNL     1     -14.419  21.988  -7.272  1.00  0.00    -0.377 N 
HETATM    2  C14 UNL     1     -14.316  20.926  -8.185  1.00  0.00     0.143 C 
HETATM    3  C15 UNL     1     -15.695  20.773  -8.859  1.00  0.00     0.145 C 
HETATM    4  N3  UNL     1     -16.564  20.362  -7.728  1.00  0.00    -0.358 N 
HETATM    5  C33 UNL     1     -16.773  21.381  -6.762  1.00  0.00     0.168 C 
HETATM    6  C34 UNL     1     -15.684  22.466  -6.910  1.00  0.00     0.079 C 
ENDROOT
BRANCH   4   7
HETATM    7  C16 UNL     1     -17.069  19.089  -7.723  1.00  0.00     0.127 C 
BRANCH   7   8
HETATM    8  O2  UNL     1     -16.207  18.164  -8.081  1.00  0.00    -0.349 OA
ATOM      9  H2  UNL     1     -16.033  17.511  -7.412  1.00  0.00     0.219 HD
ENDBRANCH   7   8
BRANCH   7  10
HETATM   10  C17 UNL     1     -18.388  18.538  -7.397  1.00  0.00     0.057 C 
HETATM   11  C24 UNL     1     -19.391  19.282  -8.248  1.00  0.00     0.025 C 
HETATM   12  C25 UNL     1     -20.522  18.313  -8.508  1.00  0.00     0.035 C 
HETATM   13  C26 UNL     1     -19.823  16.971  -8.594  1.00  0.00     0.191 C 
HETATM   14  C32 UNL     1     -18.601  17.083  -7.729  1.00  0.00     0.056 C 
BRANCH  10  15
HETATM   15  C18 UNL     1     -18.723  18.790  -5.964  1.00  0.00    -0.003 A 
HETATM   16  C19 UNL     1     -19.682  19.674  -5.540  1.00  0.00     0.014 A 
HETATM   17  C20 UNL     1     -19.928  19.869  -4.178  1.00  0.00     0.043 A 
HETATM   18  C21 UNL     1     -19.196  19.164  -3.277  1.00  0.00     0.119 A 
HETATM   19  F1  UNL     1     -19.373  19.295  -1.922  1.00  0.00    -0.206 F 
HETATM   20  C22 UNL     1     -18.229  18.271  -3.679  1.00  0.00     0.085 A 
HETATM   21  C23 UNL     1     -17.995  18.086  -5.018  1.00  0.00     0.126 A 
HETATM   22  F2  UNL     1     -17.076  17.196  -5.415  1.00  0.00    -0.205 F 
ENDBRANCH  10  15
BRANCH  13  23
HETATM   23  N4  UNL     1     -20.657  15.846  -8.334  1.00  0.00    -0.067 N 
HETATM   24  C27 UNL     1     -20.637  15.018  -9.551  1.00  0.00     0.273 C 
HETATM   25  C28 UNL     1     -20.311  15.051  -7.207  1.00  0.00     0.237 C 
HETATM   26  C29 UNL     1     -21.451  15.019  -6.247  1.00  0.00     0.029 C 
HETATM   27  C30 UNL     1     -22.496  15.915  -6.828  1.00  0.00     0.029 C 
HETATM   28  C31 UNL     1     -22.016  16.294  -8.184  1.00  0.00     0.237 C 
ENDBRANCH  13  23
ENDBRANCH   7  10
ENDBRANCH   4   7
BRANCH   1  29
HETATM   29  C7  UNL     1     -13.262  22.482  -6.644  1.00  0.00     0.176 C 
BRANCH  29  30
HETATM   30  C6  UNL     1     -13.142  22.234  -5.215  1.00  0.00     0.244 C 
HETATM   31  N1  UNL     1     -12.544  23.143  -4.333  1.00  0.00    -0.324 N 
HETATM   32  C5  UNL     1     -13.219  23.932  -3.560  1.00  0.00     0.077 C 
ATOM     33  H1  UNL     1     -11.526  23.186  -4.298  1.00  0.00     0.169 HD
HETATM   34  O1  UNL     1     -13.583  21.153  -4.693  1.00  0.00    -0.271 OA
BRANCH  32  35
HETATM   35  C4  UNL     1     -14.695  23.937  -3.552  1.00  0.00     0.066 C 
BRANCH  35  36
HETATM   36  C2  UNL     1     -15.297  23.048  -2.502  1.00  0.00    -0.017 C 
HETATM   37  C1  UNL     1     -15.867  23.805  -1.327  1.00  0.00     0.010 C 
HETATM   38  C3  UNL     1     -16.484  22.281  -3.120  1.00  0.00     0.010 C 
ENDBRANCH  35  36
ENDBRANCH  32  35
BRANCH  32  39
HETATM   39  C35 UNL     1     -12.449  24.805  -2.682  1.00  0.00     0.277 C 
HETATM   40  N5  UNL     1     -11.076  24.533  -2.453  1.00  0.00    -0.056 NA
HETATM   41  O3  UNL     1     -13.013  25.781  -2.144  1.00  0.00    -0.270 OA
ENDBRANCH  32  39
ENDBRANCH  29  30
BRANCH  29  42
HETATM   42  C8  UNL     1     -12.056  21.868  -7.372  1.00  0.00     0.035 C 
BRANCH  42  43
HETATM   43  C9  UNL     1     -10.958  22.900  -7.488  1.00  0.00     0.011 C 
BRANCH  43  44
HETATM   44  C10 UNL     1     -10.486  23.029  -8.895  1.00  0.00    -0.051 C 
HETATM   45  C11 UNL     1     -11.614  23.168  -9.888  1.00  0.00     0.014 C 
HETATM   46  C12 UNL     1      -9.651  24.300  -9.004  1.00  0.00     0.014 C 
HETATM   47  C13 UNL     1      -9.633  21.854  -9.315  1.00  0.00     0.014 C 
ENDBRANCH  43  44
ENDBRANCH  42  43
ENDBRANCH  29  42
ENDBRANCH   1  29
TORSDOF 13
ENDMDL
MODEL 5
REMARK VINA RESULT: -10.003040319      2.374      5.331
REMARK  13 active torsions:
REMARK  status: ('A' for Active; 'I' for Inactive)
REMARK    1  A    between atoms: C2_2  and  C4_4 
REMARK    2  A    between atoms: C4_4  and  C5_5 
REMARK    3  A    between atoms: C5_5  and  C35_45 
REMARK       I    between atoms: N1_6  and  C6_8 
REMARK    4  A    between atoms: C6_8  and  C7_10 
REMARK    5  A    between atoms: C7_10  and  C8_11 
REMARK    6  A    between atoms: C7_10  and  N2_17 
REMARK    7  A    between atoms: C8_11  and  C9_12 
REMARK    8  A    between atoms: C9_12  and  C10_13 
REMARK    9  A    between atoms: N3_20  and  C16_21 
REMARK   10  A    between atoms: C16_21  and  O2_22 
REMARK   11  A    between atoms: C16_21  and  C17_24 
REMARK   12  A    between atoms: C17_24  and  C18_25 
REMARK   13  A    between atoms: C26_35  and  N4_36 
ROOT
HETATM    1  N2  UNL     1     -12.630  22.184  -7.505  1.00  0.00    -0.377 N 
HETATM    2  C14 UNL     1     -13.720  22.121  -6.620  1.00  0.00     0.143 C 
HETATM    3  C15 UNL     1     -14.068  20.629  -6.436  1.00  0.00     0.145 C 
HETATM    4  N3  UNL     1     -14.517  20.232  -7.794  1.00  0.00    -0.358 N 
HETATM    5  C33 UNL     1     -13.480  20.217  -8.763  1.00  0.00     0.168 C 
HETATM    6  C34 UNL     1     -12.285  21.053  -8.254  1.00  0.00     0.079 C 
ENDROOT
BRANCH   4   7
HETATM    7  C16 UNL     1     -15.839  19.922  -7.978  1.00  0.00     0.127 C 
BRANCH   7   8
HETATM    8  O2  UNL     1     -16.274  20.119  -9.202  1.00  0.00    -0.349 OA
ATOM      9  H2  UNL     1     -16.569  19.330  -9.644  1.00  0.00     0.219 HD
ENDBRANCH   7   8
BRANCH   7  10
HETATM   10  C17 UNL     1     -16.879  19.409  -7.082  1.00  0.00     0.057 C 
HETATM   11  C24 UNL     1     -16.179  18.554  -6.051  1.00  0.00     0.025 C 
HETATM   12  C25 UNL     1     -17.008  18.653  -4.790  1.00  0.00     0.035 C 
HETATM   13  C26 UNL     1     -17.540  20.071  -4.830  1.00  0.00     0.191 C 
HETATM   14  C32 UNL     1     -17.636  20.439  -6.283  1.00  0.00     0.056 C 
BRANCH  10  15
HETATM   15  C18 UNL     1     -17.835  18.538  -7.830  1.00  0.00    -0.003 A 
HETATM   16  C19 UNL     1     -19.161  18.832  -8.017  1.00  0.00     0.014 A 
HETATM   17  C20 UNL     1     -19.999  17.958  -8.716  1.00  0.00     0.043 A 
HETATM   18  C21 UNL     1     -19.473  16.806  -9.207  1.00  0.00     0.119 A 
HETATM   19  F1  UNL     1     -20.225  15.893  -9.904  1.00  0.00    -0.206 F 
HETATM   20  C22 UNL     1     -18.145  16.491  -9.032  1.00  0.00     0.085 A 
HETATM   21  C23 UNL     1     -17.330  17.356  -8.346  1.00  0.00     0.126 A 
HETATM   22  F2  UNL     1     -16.030  17.067  -8.199  1.00  0.00    -0.205 F 
ENDBRANCH  10  15
BRANCH  13  23
HETATM   23  N4  UNL     1     -18.722  20.287  -4.064  1.00  0.00    -0.067 N 
HETATM   24  C27 UNL     1     -18.656  21.674  -3.573  1.00  0.00     0.273 C 
HETATM   25  C28 UNL     1     -19.957  20.074  -4.735  1.00  0.00     0.237 C 
HETATM   26  C29 UNL     1     -20.737  19.020  -4.027  1.00  0.00     0.029 C 
HETATM   27  C30 UNL     1     -19.859  18.544  -2.914  1.00  0.00     0.029 C 
HETATM   28  C31 UNL     1     -18.681  19.452  -2.894  1.00  0.00     0.237 C 
ENDBRANCH  13  23
ENDBRANCH   7  10
ENDBRANCH   4   7
BRANCH   1  29
HETATM   29  C7  UNL     1     -11.972  23.408  -7.714  1.00  0.00     0.176 C 
BRANCH  29  30
HETATM   30  C6  UNL     1     -10.771  23.643  -6.927  1.00  0.00     0.244 C 
HETATM   31  N1  UNL     1     -10.314  24.926  -6.600  1.00  0.00    -0.324 N 
HETATM   32  C5  UNL     1     -10.493  25.469  -5.438  1.00  0.00     0.077 C 
ATOM     33  H1  UNL     1      -9.817  25.460  -7.313  1.00  0.00     0.169 HD
HETATM   34  O1  UNL     1     -10.063  22.668  -6.495  1.00  0.00    -0.271 OA
BRANCH  32  35
HETATM   35  C4  UNL     1     -11.204  24.767  -4.353  1.00  0.00     0.066 C 
BRANCH  35  36
HETATM   36  C2  UNL     1     -12.199  25.626  -3.626  1.00  0.00    -0.017 C 
HETATM   37  C1  UNL     1     -13.629  25.182  -3.814  1.00  0.00     0.010 C 
HETATM   38  C3  UNL     1     -11.928  25.529  -2.111  1.00  0.00     0.010 C 
ENDBRANCH  35  36
ENDBRANCH  32  35
BRANCH  32  39
HETATM   39  C35 UNL     1      -9.937  26.803  -5.247  1.00  0.00     0.277 C 
HETATM   40  N5  UNL     1     -10.337  27.858  -6.108  1.00  0.00    -0.056 NA
HETATM   41  O3  UNL     1      -9.116  26.997  -4.327  1.00  0.00    -0.270 OA
ENDBRANCH  32  39
ENDBRANCH  29  30
BRANCH  29  42
HETATM   42  C8  UNL     1     -11.626  23.485  -9.209  1.00  0.00     0.035 C 
BRANCH  42  43
HETATM   43  C9  UNL     1     -12.576  24.438  -9.898  1.00  0.00     0.011 C 
BRANCH  43  44
HETATM   44  C10 UNL     1     -11.836  25.525 -10.598  1.00  0.00    -0.051 C 
HETATM   45  C11 UNL     1     -10.980  26.353  -9.670  1.00  0.00     0.014 C 
HETATM   46  C12 UNL     1     -10.889  24.885 -11.608  1.00  0.00     0.014 C 
HETATM   47  C13 UNL     1     -12.767  26.459 -11.336  1.00  0.00     0.014 C 
ENDBRANCH  43  44
ENDBRANCH  42  43
ENDBRANCH  29  42
ENDBRANCH   1  29
TORSDOF 13
ENDMDL
