MODEL 1
REMARK VINA RESULT: -9.685901686      0.000      0.000
REMARK  13 active torsions:
REMARK  status: ('A' for Active; 'I' for Inactive)
REMARK    1  A    between atoms: C2_2  and  C3_3 
REMARK       I    between atoms: N1_5  and  C5_6 
REMARK       I    between atoms: C5_6  and  N2_8 
REMARK    2  A    between atoms: N2_8  and  C6_10 
REMARK    3  A    between atoms: N3_17  and  C12_18 
REMARK    4  A    between atoms: C12_18  and  C13_19 
REMARK    5  A    between atoms: N4_25  and  C17_26 
REMARK    6  A    between atoms: C17_26  and  C18_27 
REMARK       I    between atoms: C18_27  and  N5_29 
REMARK    7  A    between atoms: N5_29  and  C19_30 
REMARK    8  A    between atoms: N5_29  and  C21_32 
REMARK    9  A    between atoms: C25_36  and  C26_37 
REMARK   10  A    between atoms: C26_37  and  O4_38 
REMARK   11  A    between atoms: C26_37  and  N6_40 
REMARK   12  A    between atoms: N6_40  and  C27_41 
REMARK   13  A    between atoms: N6_40  and  C30_44 
ROOT
HETATM    1  C13 UNL     1     -13.475  21.843  -8.077  1.00  0.00     0.128 C 
HETATM    2  C14 UNL     1     -14.810  22.129  -8.800  1.00  0.00     0.111 C 
HETATM    3  C15 UNL     1     -15.204  20.845  -9.401  1.00  0.00     0.261 C 
HETATM    4  F1  UNL     1     -16.528  20.497  -9.152  1.00  0.00    -0.204 F 
HETATM    5  F2  UNL     1     -15.065  20.894 -10.794  1.00  0.00    -0.204 F 
HETATM    6  C16 UNL     1     -14.359  19.791  -8.778  1.00  0.00     0.202 C 
HETATM    7  N4  UNL     1     -13.626  20.486  -7.748  1.00  0.00    -0.370 N 
ENDROOT
BRANCH   7   8
HETATM    8  C17 UNL     1     -13.704  19.969  -6.475  1.00  0.00     0.161 C 
BRANCH   8   9
HETATM    9  C18 UNL     1     -14.165  20.806  -5.339  1.00  0.00     0.259 C 
HETATM   10  O3  UNL     1     -13.427  21.457  -4.658  1.00  0.00    -0.267 OA
HETATM   11  N5  UNL     1     -15.602  20.834  -5.057  1.00  0.00    -0.343 N 
BRANCH  11  12
HETATM   12  C19 UNL     1     -16.019  21.670  -3.958  1.00  0.00     0.122 C 
HETATM   13  C20 UNL     1     -16.120  23.125  -4.267  1.00  0.00     0.026 C 
ENDBRANCH  11  12
BRANCH  11  14
HETATM   14  C21 UNL     1     -16.568  20.077  -5.801  1.00  0.00     0.088 C 
HETATM   15  C22 UNL     1     -17.740  20.983  -6.062  1.00  0.00     0.025 C 
HETATM   16  C23 UNL     1     -18.908  20.253  -6.665  1.00  0.00     0.003 C 
HETATM   17  C24 UNL     1     -19.245  19.154  -5.669  1.00  0.00     0.013 C 
HETATM   18  C25 UNL     1     -18.181  18.120  -5.722  1.00  0.00     0.062 C 
HETATM   19  C33 UNL     1     -16.816  18.696  -5.395  1.00  0.00     0.038 C 
BRANCH  18  20
HETATM   20  C26 UNL     1     -18.203  17.381  -6.956  1.00  0.00     0.118 C 
BRANCH  20  21
HETATM   21  O4  UNL     1     -16.901  17.177  -7.370  1.00  0.00    -0.349 OA
ATOM     22  H4  UNL     1     -16.861  16.358  -7.850  1.00  0.00     0.219 HD
ENDBRANCH  20  21
BRANCH  20  23
HETATM   23  N6  UNL     1     -19.083  16.825  -7.844  1.00  0.00    -0.357 N 
BRANCH  23  24
HETATM   24  C27 UNL     1     -19.533  17.365  -9.115  1.00  0.00     0.078 C 
HETATM   25  C28 UNL     1     -20.608  18.412  -8.904  1.00  0.00     0.032 C 
HETATM   26  C29 UNL     1     -18.445  17.800 -10.046  1.00  0.00     0.032 C 
ENDBRANCH  23  24
BRANCH  23  27
HETATM   27  C30 UNL     1     -19.693  15.498  -7.499  1.00  0.00     0.078 C 
HETATM   28  C31 UNL     1     -20.882  15.651  -6.629  1.00  0.00     0.032 C 
HETATM   29  C32 UNL     1     -20.101  14.821  -8.802  1.00  0.00     0.032 C 
ENDBRANCH  23  27
ENDBRANCH  20  23
ENDBRANCH  18  20
ENDBRANCH  11  14
ENDBRANCH   8   9
ENDBRANCH   7   8
BRANCH   1  30
HETATM   30  C12 UNL     1     -12.458  22.000  -9.192  1.00  0.00     0.093 C 
BRANCH  30  31
HETATM   31  N3  UNL     1     -11.463  22.962  -9.163  1.00  0.00    -0.322 N 
HETATM   32  C3  UNL     1     -10.023  22.646  -9.057  1.00  0.00     0.110 C 
HETATM   33  C4  UNL     1      -9.531  23.255  -7.716  1.00  0.00     0.154 C 
HETATM   34  N1  UNL     1     -10.335  24.357  -7.288  1.00  0.00    -0.319 N 
HETATM   35  C5  UNL     1     -10.710  24.490  -5.936  1.00  0.00     0.319 C 
HETATM   36  C9  UNL     1     -10.783  25.260  -8.346  1.00  0.00     0.177 C 
HETATM   37  O1  UNL     1     -10.334  23.654  -5.103  1.00  0.00    -0.247 OA
HETATM   38  N2  UNL     1     -11.532  25.555  -5.426  1.00  0.00    -0.338 N 
ATOM     39  H2  UNL     1     -11.849  26.295  -6.052  1.00  0.00     0.164 HD
HETATM   40  C10 UNL     1      -9.653  25.687  -9.200  1.00  0.00     0.043 C 
HETATM   41  C11 UNL     1     -11.770  24.372  -9.105  1.00  0.00     0.246 C 
HETATM   42  O2  UNL     1     -12.730  24.922  -9.601  1.00  0.00    -0.271 OA
BRANCH  32  43
HETATM   43  C2  UNL     1      -9.693  21.201  -8.949  1.00  0.00     0.023 C 
HETATM   44  C1  UNL     1      -8.435  20.744  -9.616  1.00  0.00     0.007 C 
ENDBRANCH  32  43
BRANCH  38  45
HETATM   45  C6  UNL     1     -11.909  25.583  -4.033  1.00  0.00     0.086 A 
HETATM   46  C7  UNL     1     -13.358  25.789  -3.728  1.00  0.00     0.027 A 
HETATM   47  C8  UNL     1     -12.766  24.430  -3.526  1.00  0.00     0.027 A 
ENDBRANCH  38  45
ENDBRANCH  30  31
ENDBRANCH   1  30
TORSDOF 13
ENDMDL
MODEL 2
REMARK VINA RESULT: -9.618532419      0.873      1.294
REMARK  13 active torsions:
REMARK  status: ('A' for Active; 'I' for Inactive)
REMARK    1  A    between atoms: C2_2  and  C3_3 
REMARK       I    between atoms: N1_5  and  C5_6 
REMARK       I    between atoms: C5_6  and  N2_8 
REMARK    2  A    between atoms: N2_8  and  C6_10 
REMARK    3  A    between atoms: N3_17  and  C12_18 
REMARK    4  A    between atoms: C12_18  and  C13_19 
REMARK    5  A    between atoms: N4_25  and  C17_26 
REMARK    6  A    between atoms: C17_26  and  C18_27 
REMARK       I    between atoms: C18_27  and  N5_29 
REMARK    7  A    between atoms: N5_29  and  C19_30 
REMARK    8  A    between atoms: N5_29  and  C21_32 
REMARK    9  A    between atoms: C25_36  and  C26_37 
REMARK   10  A    between atoms: C26_37  and  O4_38 
REMARK   11  A    between atoms: C26_37  and  N6_40 
REMARK   12  A    between atoms: N6_40  and  C27_41 
REMARK   13  A    between atoms: N6_40  and  C30_44 
ROOT
HETATM    1  C13 UNL     1     -13.441  21.975  -8.187  1.00  0.00     0.128 C 
HETATM    2  C14 UNL     1     -14.726  22.213  -9.012  1.00  0.00     0.111 C 
HETATM    3  C15 UNL     1     -15.064  20.899  -9.582  1.00  0.00     0.261 C 
HETATM    4  F1  UNL     1     -16.399  20.545  -9.409  1.00  0.00    -0.204 F 
HETATM    5  F2  UNL     1     -14.830  20.890 -10.963  1.00  0.00    -0.204 F 
HETATM    6  C16 UNL     1     -14.254  19.883  -8.858  1.00  0.00     0.202 C 
HETATM    7  N4  UNL     1     -13.601  20.632  -7.811  1.00  0.00    -0.370 N 
ENDROOT
BRANCH   7   8
HETATM    8  C17 UNL     1     -13.761  20.168  -6.525  1.00  0.00     0.161 C 
BRANCH   8   9
HETATM    9  C18 UNL     1     -14.044  21.104  -5.407  1.00  0.00     0.259 C 
HETATM   10  O3  UNL     1     -13.198  21.747  -4.857  1.00  0.00    -0.267 OA
HETATM   11  N5  UNL     1     -15.436  21.244  -4.975  1.00  0.00    -0.343 N 
BRANCH  11  12
HETATM   12  C19 UNL     1     -15.679  22.173  -3.899  1.00  0.00     0.122 C 
HETATM   13  C20 UNL     1     -15.286  21.692  -2.543  1.00  0.00     0.026 C 
ENDBRANCH  11  12
BRANCH  11  14
HETATM   14  C21 UNL     1     -16.521  20.505  -5.556  1.00  0.00     0.088 C 
HETATM   15  C22 UNL     1     -17.431  21.501  -6.223  1.00  0.00     0.025 C 
HETATM   16  C23 UNL     1     -18.712  20.876  -6.703  1.00  0.00     0.003 C 
HETATM   17  C24 UNL     1     -19.344  20.265  -5.463  1.00  0.00     0.013 C 
HETATM   18  C25 UNL     1     -18.556  19.071  -5.064  1.00  0.00     0.062 C 
HETATM   19  C33 UNL     1     -17.108  19.421  -4.772  1.00  0.00     0.038 C 
BRANCH  18  20
HETATM   20  C26 UNL     1     -18.700  17.989  -6.000  1.00  0.00     0.118 C 
BRANCH  20  21
HETATM   21  O4  UNL     1     -18.365  16.809  -5.364  1.00  0.00    -0.349 OA
ATOM     22  H4  UNL     1     -17.515  16.525  -5.680  1.00  0.00     0.219 HD
ENDBRANCH  20  21
BRANCH  20  23
HETATM   23  N6  UNL     1     -19.051  17.750  -7.301  1.00  0.00    -0.357 N 
BRANCH  23  24
HETATM   24  C27 UNL     1     -20.384  17.591  -7.853  1.00  0.00     0.078 C 
HETATM   25  C28 UNL     1     -21.374  17.213  -6.769  1.00  0.00     0.032 C 
HETATM   26  C29 UNL     1     -20.852  18.711  -8.730  1.00  0.00     0.032 C 
ENDBRANCH  23  24
BRANCH  23  27
HETATM   27  C30 UNL     1     -17.954  17.618  -8.317  1.00  0.00     0.078 C 
HETATM   28  C31 UNL     1     -16.621  17.542  -7.677  1.00  0.00     0.032 C 
HETATM   29  C32 UNL     1     -18.209  16.345  -9.114  1.00  0.00     0.032 C 
ENDBRANCH  23  27
ENDBRANCH  20  23
ENDBRANCH  18  20
ENDBRANCH  11  14
ENDBRANCH   8   9
ENDBRANCH   7   8
BRANCH   1  30
HETATM   30  C12 UNL     1     -12.352  22.097  -9.236  1.00  0.00     0.093 C 
BRANCH  30  31
HETATM   31  N3  UNL     1     -11.355  23.056  -9.166  1.00  0.00    -0.322 N 
HETATM   32  C3  UNL     1      -9.920  22.735  -9.015  1.00  0.00     0.110 C 
HETATM   33  C4  UNL     1      -9.472  23.332  -7.654  1.00  0.00     0.154 C 
HETATM   34  N1  UNL     1     -10.286  24.433  -7.245  1.00  0.00    -0.319 N 
HETATM   35  C5  UNL     1     -10.706  24.558  -5.905  1.00  0.00     0.319 C 
HETATM   36  C9  UNL     1     -10.696  25.345  -8.310  1.00  0.00     0.177 C 
HETATM   37  O1  UNL     1     -10.360  23.715  -5.066  1.00  0.00    -0.247 OA
HETATM   38  N2  UNL     1     -11.541  25.622  -5.415  1.00  0.00    -0.338 N 
ATOM     39  H2  UNL     1     -11.835  26.368  -6.046  1.00  0.00     0.164 HD
HETATM   40  C10 UNL     1      -9.536  25.775  -9.123  1.00  0.00     0.043 C 
HETATM   41  C11 UNL     1     -11.659  24.467  -9.109  1.00  0.00     0.246 C 
HETATM   42  O2  UNL     1     -12.601  25.023  -9.633  1.00  0.00    -0.271 OA
BRANCH  32  43
HETATM   43  C2  UNL     1      -9.599  21.288  -8.907  1.00  0.00     0.023 C 
HETATM   44  C1  UNL     1      -8.463  20.784  -9.739  1.00  0.00     0.007 C 
ENDBRANCH  32  43
BRANCH  38  45
HETATM   45  C6  UNL     1     -11.964  25.641  -4.035  1.00  0.00     0.086 A 
HETATM   46  C7  UNL     1     -13.424  25.839  -3.778  1.00  0.00     0.027 A 
HETATM   47  C8  UNL     1     -12.832  24.482  -3.563  1.00  0.00     0.027 A 
ENDBRANCH  38  45
ENDBRANCH  30  31
ENDBRANCH   1  30
TORSDOF 13
ENDMDL
MODEL 3
REMARK VINA RESULT: -9.303640330      1.453      3.099
REMARK  13 active torsions:
REMARK  status: ('A' for Active; 'I' for Inactive)
REMARK    1  A    between atoms: C2_2  and  C3_3 
REMARK       I    between atoms: N1_5  and  C5_6 
REMARK       I    between atoms: C5_6  and  N2_8 
REMARK    2  A    between atoms: N2_8  and  C6_10 
REMARK    3  A    between atoms: N3_17  and  C12_18 
REMARK    4  A    between atoms: C12_18  and  C13_19 
REMARK    5  A    between atoms: N4_25  and  C17_26 
REMARK    6  A    between atoms: C17_26  and  C18_27 
REMARK       I    between atoms: C18_27  and  N5_29 
REMARK    7  A    between atoms: N5_29  and  C19_30 
REMARK    8  A    between atoms: N5_29  and  C21_32 
REMARK    9  A    between atoms: C25_36  and  C26_37 
REMARK   10  A    between atoms: C26_37  and  O4_38 
REMARK   11  A    between atoms: C26_37  and  N6_40 
REMARK   12  A    between atoms: N6_40  and  C27_41 
REMARK   13  A    between atoms: N6_40  and  C30_44 
ROOT
HETATM    1  C13 UNL     1     -14.723  21.810  -6.844  1.00  0.00     0.128 C 
HETATM    2  C14 UNL     1     -15.739  21.522  -7.972  1.00  0.00     0.111 C 
HETATM    3  C15 UNL     1     -15.188  20.367  -8.699  1.00  0.00     0.261 C 
HETATM    4  F1  UNL     1     -16.117  19.356  -8.922  1.00  0.00    -0.204 F 
HETATM    5  F2  UNL     1     -14.721  20.759  -9.960  1.00  0.00    -0.204 F 
HETATM    6  C16 UNL     1     -14.116  19.784  -7.849  1.00  0.00     0.202 C 
HETATM    7  N4  UNL     1     -14.196  20.530  -6.616  1.00  0.00    -0.370 N 
ENDROOT
BRANCH   7   8
HETATM    8  C17 UNL     1     -14.326  19.799  -5.456  1.00  0.00     0.161 C 
BRANCH   8   9
HETATM    9  C18 UNL     1     -14.970  20.386  -4.254  1.00  0.00     0.259 C 
HETATM   10  O3  UNL     1     -14.359  20.925  -3.377  1.00  0.00    -0.267 OA
HETATM   11  N5  UNL     1     -16.428  20.303  -4.157  1.00  0.00    -0.343 N 
BRANCH  11  12
HETATM   12  C19 UNL     1     -17.024  20.897  -2.985  1.00  0.00     0.122 C 
HETATM   13  C20 UNL     1     -17.178  22.380  -3.032  1.00  0.00     0.026 C 
ENDBRANCH  11  12
BRANCH  11  14
HETATM   14  C21 UNL     1     -17.251  19.662  -5.144  1.00  0.00     0.088 C 
HETATM   15  C22 UNL     1     -18.344  20.629  -5.508  1.00  0.00     0.025 C 
HETATM   16  C23 UNL     1     -19.390  20.006  -6.391  1.00  0.00     0.003 C 
HETATM   17  C24 UNL     1     -19.918  18.818  -5.603  1.00  0.00     0.013 C 
HETATM   18  C25 UNL     1     -18.874  17.761  -5.578  1.00  0.00     0.062 C 
HETATM   19  C33 UNL     1     -17.585  18.254  -4.947  1.00  0.00     0.038 C 
BRANCH  18  20
HETATM   20  C26 UNL     1     -18.679  17.162  -6.871  1.00  0.00     0.118 C 
BRANCH  20  21
HETATM   21  O4  UNL     1     -17.321  17.068  -7.112  1.00  0.00    -0.349 OA
ATOM     22  H4  UNL     1     -17.192  16.724  -7.988  1.00  0.00     0.219 HD
ENDBRANCH  20  21
BRANCH  20  23
HETATM   23  N6  UNL     1     -19.390  16.664  -7.929  1.00  0.00    -0.357 N 
BRANCH  23  24
HETATM   24  C27 UNL     1     -19.720  17.328  -9.177  1.00  0.00     0.078 C 
HETATM   25  C28 UNL     1     -20.735  18.430  -8.949  1.00  0.00     0.032 C 
HETATM   26  C29 UNL     1     -18.547  17.754 -10.004  1.00  0.00     0.032 C 
ENDBRANCH  23  24
BRANCH  23  27
HETATM   27  C30 UNL     1     -19.926  15.266  -7.826  1.00  0.00     0.078 C 
HETATM   28  C31 UNL     1     -21.150  15.208  -6.993  1.00  0.00     0.032 C 
HETATM   29  C32 UNL     1     -20.248  14.786  -9.235  1.00  0.00     0.032 C 
ENDBRANCH  23  27
ENDBRANCH  20  23
ENDBRANCH  18  20
ENDBRANCH  11  14
ENDBRANCH   8   9
ENDBRANCH   7   8
BRANCH   1  30
HETATM   30  C12 UNL     1     -13.696  22.681  -7.543  1.00  0.00     0.093 C 
BRANCH  30  31
HETATM   31  N3  UNL     1     -12.343  22.613  -7.256  1.00  0.00    -0.322 N 
HETATM   32  C3  UNL     1     -11.767  22.972  -5.943  1.00  0.00     0.110 C 
HETATM   33  C4  UNL     1     -10.831  24.187  -6.186  1.00  0.00     0.154 C 
HETATM   34  N1  UNL     1     -10.342  24.241  -7.528  1.00  0.00    -0.319 N 
HETATM   35  C5  UNL     1     -10.285  25.466  -8.223  1.00  0.00     0.319 C 
HETATM   36  C9  UNL     1      -9.990  22.955  -8.124  1.00  0.00     0.177 C 
HETATM   37  O1  UNL     1     -10.650  26.512  -7.668  1.00  0.00    -0.247 OA
HETATM   38  N2  UNL     1      -9.826  25.606  -9.579  1.00  0.00    -0.338 N 
ATOM     39  H2  UNL     1      -9.480  24.790 -10.085  1.00  0.00     0.164 HD
HETATM   40  C10 UNL     1      -9.100  22.177  -7.233  1.00  0.00     0.043 C 
HETATM   41  C11 UNL     1     -11.364  22.302  -8.272  1.00  0.00     0.246 C 
HETATM   42  O2  UNL     1     -11.524  21.573  -9.228  1.00  0.00    -0.271 OA
BRANCH  32  43
HETATM   43  C2  UNL     1     -12.740  23.454  -4.930  1.00  0.00     0.023 C 
HETATM   44  C1  UNL     1     -12.177  24.110  -3.710  1.00  0.00     0.007 C 
ENDBRANCH  32  43
BRANCH  38  45
HETATM   45  C6  UNL     1      -9.851  26.895 -10.229  1.00  0.00     0.086 A 
HETATM   46  C7  UNL     1      -8.927  27.085 -11.390  1.00  0.00     0.027 A 
HETATM   47  C8  UNL     1     -10.394  26.940 -11.651  1.00  0.00     0.027 A 
ENDBRANCH  38  45
ENDBRANCH  30  31
ENDBRANCH   1  30
TORSDOF 13
ENDMDL
MODEL 4
REMARK VINA RESULT: -9.150443594      1.034      1.487
REMARK  13 active torsions:
REMARK  status: ('A' for Active; 'I' for Inactive)
REMARK    1  A    between atoms: C2_2  and  C3_3 
REMARK       I    between atoms: N1_5  and  C5_6 
REMARK       I    between atoms: C5_6  and  N2_8 
REMARK    2  A    between atoms: N2_8  and  C6_10 
REMARK    3  A    between atoms: N3_17  and  C12_18 
REMARK    4  A    between atoms: C12_18  and  C13_19 
REMARK    5  A    between atoms: N4_25  and  C17_26 
REMARK    6  A    between atoms: C17_26  and  C18_27 
REMARK       I    between atoms: C18_27  and  N5_29 
REMARK    7  A    between atoms: N5_29  and  C19_30 
REMARK    8  A    between atoms: N5_29  and  C21_32 
REMARK    9  A    between atoms: C25_36  and  C26_37 
REMARK   10  A    between atoms: C26_37  and  O4_38 
REMARK   11  A    between atoms: C26_37  and  N6_40 
REMARK   12  A    between atoms: N6_40  and  C27_41 
REMARK   13  A    between atoms: N6_40  and  C30_44 
ROOT
HETATM    1  C13 UNL     1     -13.458  21.864  -8.165  1.00  0.00     0.128 C 
HETATM    2  C14 UNL     1     -14.714  22.164  -9.013  1.00  0.00     0.111 C 
HETATM    3  C15 UNL     1     -15.077  20.877  -9.630  1.00  0.00     0.261 C 
HETATM    4  F1  UNL     1     -16.425  20.558  -9.499  1.00  0.00    -0.204 F 
HETATM    5  F2  UNL     1     -14.809  20.901 -11.004  1.00  0.00    -0.204 F 
HETATM    6  C16 UNL     1     -14.315  19.818  -8.916  1.00  0.00     0.202 C 
HETATM    7  N4  UNL     1     -13.666  20.516  -7.833  1.00  0.00    -0.370 N 
ENDROOT
BRANCH   7   8
HETATM    8  C17 UNL     1     -13.871  20.021  -6.565  1.00  0.00     0.161 C 
BRANCH   8   9
HETATM    9  C18 UNL     1     -14.098  20.935  -5.417  1.00  0.00     0.259 C 
HETATM   10  O3  UNL     1     -13.286  21.727  -5.036  1.00  0.00    -0.267 OA
HETATM   11  N5  UNL     1     -15.390  20.858  -4.734  1.00  0.00    -0.343 N 
BRANCH  11  12
HETATM   12  C19 UNL     1     -15.585  21.771  -3.634  1.00  0.00     0.122 C 
HETATM   13  C20 UNL     1     -16.973  22.292  -3.477  1.00  0.00     0.026 C 
ENDBRANCH  11  12
BRANCH  11  14
HETATM   14  C21 UNL     1     -16.424  19.932  -5.100  1.00  0.00     0.088 C 
HETATM   15  C22 UNL     1     -15.872  18.546  -4.899  1.00  0.00     0.025 C 
HETATM   16  C23 UNL     1     -16.789  17.481  -5.433  1.00  0.00     0.003 C 
HETATM   17  C24 UNL     1     -16.974  17.816  -6.904  1.00  0.00     0.013 C 
HETATM   18  C25 UNL     1     -17.823  19.029  -7.014  1.00  0.00     0.062 C 
HETATM   19  C33 UNL     1     -17.207  20.217  -6.299  1.00  0.00     0.038 C 
BRANCH  18  20
HETATM   20  C26 UNL     1     -19.184  18.775  -6.623  1.00  0.00     0.118 C 
BRANCH  20  21
HETATM   21  O4  UNL     1     -19.555  19.718  -5.684  1.00  0.00    -0.349 OA
ATOM     22  H4  UNL     1     -19.662  19.285  -4.845  1.00  0.00     0.219 HD
ENDBRANCH  20  21
BRANCH  20  23
HETATM   23  N6  UNL     1     -20.216  17.912  -6.872  1.00  0.00    -0.357 N 
BRANCH  23  24
HETATM   24  C27 UNL     1     -20.766  17.521  -8.157  1.00  0.00     0.078 C 
HETATM   25  C28 UNL     1     -21.001  18.734  -9.034  1.00  0.00     0.032 C 
HETATM   26  C29 UNL     1     -20.041  16.410  -8.851  1.00  0.00     0.032 C 
ENDBRANCH  23  24
BRANCH  23  27
HETATM   27  C30 UNL     1     -20.904  17.276  -5.699  1.00  0.00     0.078 C 
HETATM   28  C31 UNL     1     -22.326  16.982  -5.992  1.00  0.00     0.032 C 
HETATM   29  C32 UNL     1     -20.173  15.978  -5.379  1.00  0.00     0.032 C 
ENDBRANCH  23  27
ENDBRANCH  20  23
ENDBRANCH  18  20
ENDBRANCH  11  14
ENDBRANCH   8   9
ENDBRANCH   7   8
BRANCH   1  30
HETATM   30  C12 UNL     1     -12.340  21.984  -9.184  1.00  0.00     0.093 C 
BRANCH  30  31
HETATM   31  N3  UNL     1     -11.364  22.963  -9.106  1.00  0.00    -0.322 N 
HETATM   32  C3  UNL     1      -9.923  22.671  -8.950  1.00  0.00     0.110 C 
HETATM   33  C4  UNL     1      -9.493  23.273  -7.585  1.00  0.00     0.154 C 
HETATM   34  N1  UNL     1     -10.332  24.355  -7.175  1.00  0.00    -0.319 N 
HETATM   35  C5  UNL     1     -10.760  24.466  -5.837  1.00  0.00     0.319 C 
HETATM   36  C9  UNL     1     -10.756  25.262  -8.239  1.00  0.00     0.177 C 
HETATM   37  O1  UNL     1     -10.401  23.627  -5.000  1.00  0.00    -0.247 OA
HETATM   38  N2  UNL     1     -11.619  25.511  -5.347  1.00  0.00    -0.338 N 
ATOM     39  H2  UNL     1     -11.926  26.252  -5.976  1.00  0.00     0.164 HD
HETATM   40  C10 UNL     1      -9.602  25.720  -9.045  1.00  0.00     0.043 C 
HETATM   41  C11 UNL     1     -11.698  24.367  -9.045  1.00  0.00     0.246 C 
HETATM   42  O2  UNL     1     -12.648  24.905  -9.571  1.00  0.00    -0.271 OA
BRANCH  32  43
HETATM   43  C2  UNL     1      -9.572  21.231  -8.845  1.00  0.00     0.023 C 
HETATM   44  C1  UNL     1      -8.427  20.753  -9.679  1.00  0.00     0.007 C 
ENDBRANCH  32  43
BRANCH  38  45
HETATM   45  C6  UNL     1     -12.048  25.516  -3.969  1.00  0.00     0.086 A 
HETATM   46  C7  UNL     1     -13.485  25.842  -3.709  1.00  0.00     0.027 A 
HETATM   47  C8  UNL     1     -13.026  24.427  -3.546  1.00  0.00     0.027 A 
ENDBRANCH  38  45
ENDBRANCH  30  31
ENDBRANCH   1  30
TORSDOF 13
ENDMDL
MODEL 5
REMARK VINA RESULT: -9.064692629      2.995      5.109
REMARK  13 active torsions:
REMARK  status: ('A' for Active; 'I' for Inactive)
REMARK    1  A    between atoms: C2_2  and  C3_3 
REMARK       I    between atoms: N1_5  and  C5_6 
REMARK       I    between atoms: C5_6  and  N2_8 
REMARK    2  A    between atoms: N2_8  and  C6_10 
REMARK    3  A    between atoms: N3_17  and  C12_18 
REMARK    4  A    between atoms: C12_18  and  C13_19 
REMARK    5  A    between atoms: N4_25  and  C17_26 
REMARK    6  A    between atoms: C17_26  and  C18_27 
REMARK       I    between atoms: C18_27  and  N5_29 
REMARK    7  A    between atoms: N5_29  and  C19_30 
REMARK    8  A    between atoms: N5_29  and  C21_32 
REMARK    9  A    between atoms: C25_36  and  C26_37 
REMARK   10  A    between atoms: C26_37  and  O4_38 
REMARK   11  A    between atoms: C26_37  and  N6_40 
REMARK   12  A    between atoms: N6_40  and  C27_41 
REMARK   13  A    between atoms: N6_40  and  C30_44 
ROOT
HETATM    1  C13 UNL     1     -14.510  21.937  -5.813  1.00  0.00     0.128 C 
HETATM    2  C14 UNL     1     -14.396  21.516  -4.331  1.00  0.00     0.111 C 
HETATM    3  C15 UNL     1     -15.344  22.383  -3.612  1.00  0.00     0.261 C 
HETATM    4  F1  UNL     1     -16.180  21.690  -2.741  1.00  0.00    -0.204 F 
HETATM    5  F2  UNL     1     -14.655  23.321  -2.834  1.00  0.00    -0.204 F 
HETATM    6  C16 UNL     1     -16.220  23.018  -4.633  1.00  0.00     0.202 C 
HETATM    7  N4  UNL     1     -15.841  22.381  -5.871  1.00  0.00    -0.370 N 
ENDROOT
BRANCH   7   8
HETATM    8  C17 UNL     1     -16.852  21.806  -6.608  1.00  0.00     0.161 C 
BRANCH   8   9
HETATM    9  C18 UNL     1     -16.548  20.852  -7.704  1.00  0.00     0.259 C 
HETATM   10  O3  UNL     1     -15.855  21.124  -8.641  1.00  0.00    -0.267 OA
HETATM   11  N5  UNL     1     -17.124  19.509  -7.612  1.00  0.00    -0.343 N 
BRANCH  11  12
HETATM   12  C19 UNL     1     -16.797  18.601  -8.684  1.00  0.00     0.122 C 
HETATM   13  C20 UNL     1     -17.951  18.157  -9.517  1.00  0.00     0.026 C 
ENDBRANCH  11  12
BRANCH  11  14
HETATM   14  C21 UNL     1     -17.982  19.088  -6.541  1.00  0.00     0.088 C 
HETATM   15  C22 UNL     1     -17.438  17.786  -6.019  1.00  0.00     0.025 C 
HETATM   16  C23 UNL     1     -18.358  17.138  -5.022  1.00  0.00     0.003 C 
HETATM   17  C24 UNL     1     -19.675  16.953  -5.759  1.00  0.00     0.013 C 
HETATM   18  C25 UNL     1     -20.312  18.283  -5.939  1.00  0.00     0.062 C 
HETATM   19  C33 UNL     1     -19.424  19.234  -6.721  1.00  0.00     0.038 C 
BRANCH  18  20
HETATM   20  C26 UNL     1     -20.775  18.835  -4.695  1.00  0.00     0.118 C 
BRANCH  20  21
HETATM   21  O4  UNL     1     -20.519  20.192  -4.693  1.00  0.00    -0.349 OA
ATOM     22  H4  UNL     1     -21.304  20.649  -4.413  1.00  0.00     0.219 HD
ENDBRANCH  20  21
BRANCH  20  23
HETATM   23  N6  UNL     1     -21.376  18.457  -3.524  1.00  0.00    -0.357 N 
BRANCH  23  24
HETATM   24  C27 UNL     1     -20.743  18.018  -2.294  1.00  0.00     0.078 C 
HETATM   25  C28 UNL     1     -20.503  16.522  -2.317  1.00  0.00     0.032 C 
HETATM   26  C29 UNL     1     -19.546  18.811  -1.872  1.00  0.00     0.032 C 
ENDBRANCH  23  24
BRANCH  23  27
HETATM   27  C30 UNL     1     -22.875  18.473  -3.462  1.00  0.00     0.078 C 
HETATM   28  C31 UNL     1     -23.470  17.419  -4.316  1.00  0.00     0.032 C 
HETATM   29  C32 UNL     1     -23.284  18.243  -2.013  1.00  0.00     0.032 C 
ENDBRANCH  23  27
ENDBRANCH  20  23
ENDBRANCH  18  20
ENDBRANCH  11  14
ENDBRANCH   8   9
ENDBRANCH   7   8
BRANCH   1  30
HETATM   30  C12 UNL     1     -13.562  23.118  -5.892  1.00  0.00     0.093 C 
BRANCH  30  31
HETATM   31  N3  UNL     1     -12.219  22.976  -6.198  1.00  0.00    -0.322 N 
HETATM   32  C3  UNL     1     -11.126  23.474  -5.336  1.00  0.00     0.110 C 
HETATM   33  C4  UNL     1     -10.369  24.553  -6.157  1.00  0.00     0.154 C 
HETATM   34  N1  UNL     1     -10.508  24.365  -7.567  1.00  0.00    -0.319 N 
HETATM   35  C5  UNL     1     -10.739  25.464  -8.419  1.00  0.00     0.319 C 
HETATM   36  C9  UNL     1     -10.467  22.979  -8.026  1.00  0.00     0.177 C 
HETATM   37  O1  UNL     1     -10.813  26.608  -7.950  1.00  0.00    -0.247 OA
HETATM   38  N2  UNL     1     -10.909  25.360  -9.844  1.00  0.00    -0.338 N 
ATOM     39  H2  UNL     1     -10.828  24.452 -10.300  1.00  0.00     0.164 HD
HETATM   40  C10 UNL     1      -9.292  22.267  -7.477  1.00  0.00     0.043 C 
HETATM   41  C11 UNL     1     -11.780  22.434  -7.463  1.00  0.00     0.246 C 
HETATM   42  O2  UNL     1     -12.348  21.588  -8.120  1.00  0.00    -0.271 OA
BRANCH  32  43
HETATM   43  C2  UNL     1     -11.559  24.184  -4.104  1.00  0.00     0.023 C 
HETATM   44  C1  UNL     1     -11.588  25.678  -4.161  1.00  0.00     0.007 C 
ENDBRANCH  32  43
BRANCH  38  45
HETATM   45  C6  UNL     1     -11.194  26.536 -10.632  1.00  0.00     0.086 A 
HETATM   46  C7  UNL     1     -11.231  26.362 -12.117  1.00  0.00     0.027 A 
HETATM   47  C8  UNL     1     -12.519  26.560 -11.382  1.00  0.00     0.027 A 
ENDBRANCH  38  45
ENDBRANCH  30  31
ENDBRANCH   1  30
TORSDOF 13
ENDMDL
