MODEL 1
REMARK VINA RESULT: -9.215325294      0.000      0.000
REMARK  12 active torsions:
REMARK  status: ('A' for Active; 'I' for Inactive)
REMARK    1  A    between atoms: N1_2  and  C2_3 
REMARK    2  A    between atoms: N1_2  and  C4_6 
REMARK    3  A    between atoms: N1_2  and  C6_9 
REMARK    4  A    between atoms: C2_3  and  C3_4 
REMARK    5  A    between atoms: C4_6  and  C5_7 
REMARK    6  A    between atoms: C6_9  and  C7_10 
REMARK    7  A    between atoms: C7_10  and  N2_11 
REMARK       I    between atoms: N3_14  and  C10_15 
REMARK       I    between atoms: C10_15  and  N4_17 
REMARK    8  A    between atoms: N4_17  and  C11_19 
REMARK    9  A    between atoms: N5_22  and  C14_23 
REMARK   10  A    between atoms: C14_23  and  O2_24 
REMARK   11  A    between atoms: C14_23  and  C15_26 
REMARK   12  A    between atoms: C25_36  and  C26_37 
ROOT
HETATM    1  C11 UNL     1     -13.590  20.196  -7.716  1.00  0.00     0.089 C 
HETATM    2  C12 UNL     1     -14.690  20.170  -8.712  1.00  0.00     0.045 C 
HETATM    3  C13 UNL     1     -15.541  18.948  -8.454  1.00  0.00     0.127 C 
HETATM    4  N5  UNL     1     -15.876  18.834  -7.070  1.00  0.00    -0.356 N 
HETATM    5  C25 UNL     1     -15.309  19.634  -6.007  1.00  0.00     0.122 C 
HETATM    6  C31 UNL     1     -14.119  20.431  -6.313  1.00  0.00     0.055 C 
ENDROOT
BRANCH   1   7
HETATM    7  N4  UNL     1     -12.584  21.224  -7.987  1.00  0.00    -0.338 N 
HETATM    8  C10 UNL     1     -12.865  22.358  -8.760  1.00  0.00     0.319 C 
HETATM    9  N3  UNL     1     -11.986  23.405  -9.080  1.00  0.00    -0.328 N 
HETATM   10  O1  UNL     1     -14.051  22.455  -9.230  1.00  0.00    -0.247 OA
HETATM   11  C9  UNL     1     -12.409  24.516  -9.924  1.00  0.00     0.172 C 
HETATM   12  C32 UNL     1     -10.616  23.430  -8.561  1.00  0.00     0.148 C 
HETATM   13  C8  UNL     1     -11.542  25.719  -9.758  1.00  0.00     0.083 C 
HETATM   14  N2  UNL     1     -10.745  25.815  -8.623  1.00  0.00    -0.369 N 
HETATM   15  C33 UNL     1     -10.573  24.734  -7.752  1.00  0.00     0.147 C 
ATOM     16  H4  UNL     1     -11.647  21.112  -7.599  1.00  0.00     0.164 HD
BRANCH  14  17
HETATM   17  C7  UNL     1     -10.104  27.030  -8.321  1.00  0.00     0.091 C 
BRANCH  17  18
HETATM   18  C6  UNL     1      -8.940  26.971  -7.406  1.00  0.00     0.281 C 
BRANCH  18  19
HETATM   19  N1  UNL     1      -8.872  28.070  -6.461  1.00  0.00    -0.065 N 
HETATM   20  C1  UNL     1      -7.531  28.060  -5.911  1.00  0.00     0.273 C 
BRANCH  19  21
HETATM   21  C2  UNL     1      -9.159  29.262  -7.221  1.00  0.00     0.252 C 
BRANCH  21  22
HETATM   22  C3  UNL     1      -8.031  29.862  -7.969  1.00  0.00     0.142 C 
HETATM   23 CL1  UNL     1      -8.164  29.852  -9.715  1.00  0.00    -0.129 Cl
ENDBRANCH  21  22
ENDBRANCH  19  21
BRANCH  19  24
HETATM   24  C4  UNL     1      -9.834  27.995  -5.399  1.00  0.00     0.252 C 
BRANCH  24  25
HETATM   25  C5  UNL     1      -9.879  26.700  -4.660  1.00  0.00     0.142 C 
HETATM   26 CL2  UNL     1     -11.590  26.139  -4.604  1.00  0.00    -0.129 Cl
ENDBRANCH  24  25
ENDBRANCH  19  24
ENDBRANCH  18  19
ENDBRANCH  17  18
ENDBRANCH  14  17
ENDBRANCH   1   7
BRANCH   5  27
HETATM   27  C26 UNL     1     -16.374  20.496  -5.415  1.00  0.00    -0.020 A 
HETATM   28  C27 UNL     1     -16.976  21.494  -6.140  1.00  0.00     0.012 A 
HETATM   29  C28 UNL     1     -17.941  22.270  -5.571  1.00  0.00     0.018 A 
HETATM   30  C29 UNL     1     -18.322  22.058  -4.250  1.00  0.00     0.087 A 
HETATM   31  N6  UNL     1     -17.715  21.078  -3.573  1.00  0.00    -0.375 N 
HETATM   32  C30 UNL     1     -16.762  20.303  -4.116  1.00  0.00     0.096 A 
ATOM     33  H6  UNL     1     -17.986  20.913  -2.604  1.00  0.00     0.164 HD
ENDBRANCH   5  27
BRANCH   4  34
HETATM   34  C14 UNL     1     -16.822  17.866  -6.664  1.00  0.00     0.123 C 
BRANCH  34  35
HETATM   35  O2  UNL     1     -16.457  17.211  -5.596  1.00  0.00    -0.349 OA
ATOM     36  H2  UNL     1     -16.651  17.675  -4.790  1.00  0.00     0.219 HD
ENDBRANCH  34  35
BRANCH  34  37
HETATM   37  C15 UNL     1     -18.108  17.464  -7.197  1.00  0.00     0.026 C 
HETATM   38  C16 UNL     1     -18.917  16.684  -6.203  1.00  0.00     0.022 C 
HETATM   39  C17 UNL     1     -20.390  16.543  -6.620  1.00  0.00    -0.013 C 
HETATM   40  C18 UNL     1     -20.349  15.766  -7.923  1.00  0.00     0.009 C 
HETATM   41  C22 UNL     1     -21.065  17.847  -6.862  1.00  0.00     0.009 C 
HETATM   42  C19 UNL     1     -19.531  16.498  -8.934  1.00  0.00    -0.013 C 
HETATM   43  C20 UNL     1     -20.181  17.842  -9.207  1.00  0.00     0.009 C 
HETATM   44  C24 UNL     1     -18.095  16.740  -8.510  1.00  0.00     0.022 C 
HETATM   45  C21 UNL     1     -20.258  18.594  -7.907  1.00  0.00    -0.013 C 
HETATM   46  C23 UNL     1     -18.896  18.800  -7.366  1.00  0.00     0.022 C 
ENDBRANCH  34  37
ENDBRANCH   4  34
TORSDOF 12
ENDMDL
MODEL 2
REMARK VINA RESULT: -9.206211184      5.229     12.573
REMARK  12 active torsions:
REMARK  status: ('A' for Active; 'I' for Inactive)
REMARK    1  A    between atoms: N1_2  and  C2_3 
REMARK    2  A    between atoms: N1_2  and  C4_6 
REMARK    3  A    between atoms: N1_2  and  C6_9 
REMARK    4  A    between atoms: C2_3  and  C3_4 
REMARK    5  A    between atoms: C4_6  and  C5_7 
REMARK    6  A    between atoms: C6_9  and  C7_10 
REMARK    7  A    between atoms: C7_10  and  N2_11 
REMARK       I    between atoms: N3_14  and  C10_15 
REMARK       I    between atoms: C10_15  and  N4_17 
REMARK    8  A    between atoms: N4_17  and  C11_19 
REMARK    9  A    between atoms: N5_22  and  C14_23 
REMARK   10  A    between atoms: C14_23  and  O2_24 
REMARK   11  A    between atoms: C14_23  and  C15_26 
REMARK   12  A    between atoms: C25_36  and  C26_37 
ROOT
HETATM    1  C11 UNL     1     -17.914  19.137  -5.831  1.00  0.00     0.089 C 
HETATM    2  C12 UNL     1     -18.146  20.578  -5.554  1.00  0.00     0.045 C 
HETATM    3  C13 UNL     1     -17.100  21.051  -4.573  1.00  0.00     0.127 C 
HETATM    4  N5  UNL     1     -15.792  20.639  -4.972  1.00  0.00    -0.356 N 
HETATM    5  C25 UNL     1     -15.501  19.708  -6.040  1.00  0.00     0.122 C 
HETATM    6  C31 UNL     1     -16.612  18.921  -6.579  1.00  0.00     0.055 C 
ENDROOT
BRANCH   1   7
HETATM    7  N4  UNL     1     -18.983  18.516  -6.614  1.00  0.00    -0.338 N 
HETATM    8  C10 UNL     1     -19.509  17.258  -6.295  1.00  0.00     0.319 C 
HETATM    9  N3  UNL     1     -20.531  16.571  -6.968  1.00  0.00    -0.328 N 
HETATM   10  O1  UNL     1     -19.006  16.665  -5.279  1.00  0.00    -0.247 OA
HETATM   11  C9  UNL     1     -20.962  15.246  -6.538  1.00  0.00     0.172 C 
HETATM   12  C32 UNL     1     -21.218  17.168  -8.117  1.00  0.00     0.148 C 
HETATM   13  C8  UNL     1     -22.324  14.899  -7.039  1.00  0.00     0.083 C 
HETATM   14  N2  UNL     1     -23.155  15.925  -7.476  1.00  0.00    -0.369 N 
HETATM   15  C33 UNL     1     -22.681  17.229  -7.656  1.00  0.00     0.147 C 
ATOM     16  H4  UNL     1     -19.358  19.016  -7.420  1.00  0.00     0.164 HD
BRANCH  14  17
HETATM   17  C7  UNL     1     -24.514  15.663  -7.727  1.00  0.00     0.091 C 
BRANCH  17  18
HETATM   18  C6  UNL     1     -25.279  14.976  -6.661  1.00  0.00     0.281 C 
BRANCH  18  19
HETATM   19  N1  UNL     1     -26.083  15.863  -5.841  1.00  0.00    -0.065 N 
HETATM   20  C1  UNL     1     -27.328  15.170  -5.579  1.00  0.00     0.273 C 
BRANCH  19  21
HETATM   21  C2  UNL     1     -25.311  16.102  -4.646  1.00  0.00     0.252 C 
BRANCH  21  22
HETATM   22  C3  UNL     1     -24.713  17.448  -4.496  1.00  0.00     0.142 C 
HETATM   23 CL1  UNL     1     -22.999  17.503  -4.144  1.00  0.00    -0.129 Cl
ENDBRANCH  21  22
ENDBRANCH  19  21
BRANCH  19  24
HETATM   24  C4  UNL     1     -26.352  17.138  -6.442  1.00  0.00     0.252 C 
BRANCH  24  25
HETATM   25  C5  UNL     1     -27.786  17.549  -6.466  1.00  0.00     0.142 C 
HETATM   26 CL2  UNL     1     -28.063  18.709  -5.115  1.00  0.00    -0.129 Cl
ENDBRANCH  24  25
ENDBRANCH  19  24
ENDBRANCH  18  19
ENDBRANCH  17  18
ENDBRANCH  14  17
ENDBRANCH   1   7
BRANCH   5  27
HETATM   27  C26 UNL     1     -14.788  20.422  -7.139  1.00  0.00    -0.020 A 
HETATM   28  C27 UNL     1     -13.467  20.176  -7.417  1.00  0.00     0.012 A 
HETATM   29  C28 UNL     1     -12.840  20.848  -8.424  1.00  0.00     0.018 A 
HETATM   30  C29 UNL     1     -13.534  21.789  -9.176  1.00  0.00     0.087 A 
HETATM   31  N6  UNL     1     -14.820  22.004  -8.879  1.00  0.00    -0.375 N 
HETATM   32  C30 UNL     1     -15.455  21.352  -7.891  1.00  0.00     0.096 A 
ATOM     33  H6  UNL     1     -15.340  22.691  -9.424  1.00  0.00     0.164 HD
ENDBRANCH   5  27
BRANCH   4  34
HETATM   34  C14 UNL     1     -14.665  21.149  -4.287  1.00  0.00     0.123 C 
BRANCH  34  35
HETATM   35  O2  UNL     1     -13.820  20.220  -3.932  1.00  0.00    -0.349 OA
ATOM     36  H2  UNL     1     -13.759  19.513  -4.563  1.00  0.00     0.219 HD
ENDBRANCH  34  35
BRANCH  34  37
HETATM   37  C15 UNL     1     -14.270  22.489  -3.906  1.00  0.00     0.026 C 
HETATM   38  C16 UNL     1     -15.162  23.537  -4.505  1.00  0.00     0.022 C 
HETATM   39  C17 UNL     1     -14.973  24.916  -3.854  1.00  0.00    -0.013 C 
HETATM   40  C18 UNL     1     -13.531  25.288  -4.147  1.00  0.00     0.009 C 
HETATM   41  C22 UNL     1     -15.174  24.909  -2.380  1.00  0.00     0.009 C 
HETATM   42  C19 UNL     1     -12.610  24.255  -3.588  1.00  0.00    -0.013 C 
HETATM   43  C20 UNL     1     -12.787  24.208  -2.081  1.00  0.00     0.009 C 
HETATM   44  C24 UNL     1     -12.836  22.860  -4.138  1.00  0.00     0.022 C 
HETATM   45  C21 UNL     1     -14.226  23.881  -1.792  1.00  0.00    -0.013 C 
HETATM   46  C23 UNL     1     -14.568  22.565  -2.375  1.00  0.00     0.022 C 
ENDBRANCH  34  37
ENDBRANCH   4  34
TORSDOF 12
ENDMDL
MODEL 3
REMARK VINA RESULT: -9.204863155      5.390     12.714
REMARK  12 active torsions:
REMARK  status: ('A' for Active; 'I' for Inactive)
REMARK    1  A    between atoms: N1_2  and  C2_3 
REMARK    2  A    between atoms: N1_2  and  C4_6 
REMARK    3  A    between atoms: N1_2  and  C6_9 
REMARK    4  A    between atoms: C2_3  and  C3_4 
REMARK    5  A    between atoms: C4_6  and  C5_7 
REMARK    6  A    between atoms: C6_9  and  C7_10 
REMARK    7  A    between atoms: C7_10  and  N2_11 
REMARK       I    between atoms: N3_14  and  C10_15 
REMARK       I    between atoms: C10_15  and  N4_17 
REMARK    8  A    between atoms: N4_17  and  C11_19 
REMARK    9  A    between atoms: N5_22  and  C14_23 
REMARK   10  A    between atoms: C14_23  and  O2_24 
REMARK   11  A    between atoms: C14_23  and  C15_26 
REMARK   12  A    between atoms: C25_36  and  C26_37 
ROOT
HETATM    1  C11 UNL     1     -17.923  19.096  -5.817  1.00  0.00     0.089 C 
HETATM    2  C12 UNL     1     -18.162  20.532  -5.523  1.00  0.00     0.045 C 
HETATM    3  C13 UNL     1     -17.111  21.002  -4.546  1.00  0.00     0.127 C 
HETATM    4  N5  UNL     1     -15.803  20.604  -4.961  1.00  0.00    -0.356 N 
HETATM    5  C25 UNL     1     -15.515  19.686  -6.041  1.00  0.00     0.122 C 
HETATM    6  C31 UNL     1     -16.625  18.897  -6.579  1.00  0.00     0.055 C 
ENDROOT
BRANCH   1   7
HETATM    7  N4  UNL     1     -18.994  18.476  -6.598  1.00  0.00    -0.338 N 
HETATM    8  C10 UNL     1     -19.551  17.238  -6.250  1.00  0.00     0.319 C 
HETATM    9  N3  UNL     1     -20.578  16.554  -6.918  1.00  0.00    -0.328 N 
HETATM   10  O1  UNL     1     -19.075  16.664  -5.211  1.00  0.00    -0.247 OA
HETATM   11  C9  UNL     1     -21.044  15.252  -6.457  1.00  0.00     0.172 C 
HETATM   12  C32 UNL     1     -21.236  17.133  -8.094  1.00  0.00     0.148 C 
HETATM   13  C8  UNL     1     -22.406  14.919  -6.968  1.00  0.00     0.083 C 
HETATM   14  N2  UNL     1     -23.209  15.950  -7.445  1.00  0.00    -0.369 N 
HETATM   15  C33 UNL     1     -22.704  17.238  -7.655  1.00  0.00     0.147 C 
ATOM     16  H4  UNL     1     -19.346  18.960  -7.423  1.00  0.00     0.164 HD
BRANCH  14  17
HETATM   17  C7  UNL     1     -24.569  15.709  -7.709  1.00  0.00     0.091 C 
BRANCH  17  18
HETATM   18  C6  UNL     1     -25.547  16.672  -7.148  1.00  0.00     0.281 C 
BRANCH  18  19
HETATM   19  N1  UNL     1     -26.211  16.209  -5.943  1.00  0.00    -0.065 N 
HETATM   20  C1  UNL     1     -27.437  16.973  -5.829  1.00  0.00     0.273 C 
BRANCH  19  21
HETATM   21  C2  UNL     1     -26.445  14.799  -6.139  1.00  0.00     0.252 C 
BRANCH  21  22
HETATM   22  C3  UNL     1     -26.231  13.919  -4.968  1.00  0.00     0.142 C 
HETATM   23 CL1  UNL     1     -25.871  12.241  -5.312  1.00  0.00    -0.129 Cl
ENDBRANCH  21  22
ENDBRANCH  19  21
BRANCH  19  24
HETATM   24  C4  UNL     1     -25.432  16.355  -4.748  1.00  0.00     0.252 C 
BRANCH  24  25
HETATM   25  C5  UNL     1     -24.813  17.696  -4.541  1.00  0.00     0.142 C 
HETATM   26 CL2  UNL     1     -23.073  17.457  -4.133  1.00  0.00    -0.129 Cl
ENDBRANCH  24  25
ENDBRANCH  19  24
ENDBRANCH  18  19
ENDBRANCH  17  18
ENDBRANCH  14  17
ENDBRANCH   1   7
BRANCH   5  27
HETATM   27  C26 UNL     1     -14.817  20.417  -7.139  1.00  0.00    -0.020 A 
HETATM   28  C27 UNL     1     -13.498  20.182  -7.434  1.00  0.00     0.012 A 
HETATM   29  C28 UNL     1     -12.885  20.869  -8.438  1.00  0.00     0.018 A 
HETATM   30  C29 UNL     1     -13.591  21.816  -9.172  1.00  0.00     0.087 A 
HETATM   31  N6  UNL     1     -14.875  22.020  -8.859  1.00  0.00    -0.375 N 
HETATM   32  C30 UNL     1     -15.497  21.353  -7.873  1.00  0.00     0.096 A 
ATOM     33  H6  UNL     1     -15.404  22.712  -9.390  1.00  0.00     0.164 HD
ENDBRANCH   5  27
BRANCH   4  34
HETATM   34  C14 UNL     1     -14.674  21.114  -4.280  1.00  0.00     0.123 C 
BRANCH  34  35
HETATM   35  O2  UNL     1     -13.819  20.188  -3.943  1.00  0.00    -0.349 OA
ATOM     36  H2  UNL     1     -12.937  20.369  -4.245  1.00  0.00     0.219 HD
ENDBRANCH  34  35
BRANCH  34  37
HETATM   37  C15 UNL     1     -14.286  22.453  -3.888  1.00  0.00     0.026 C 
HETATM   38  C16 UNL     1     -15.204  23.500  -4.449  1.00  0.00     0.022 C 
HETATM   39  C17 UNL     1     -15.015  24.871  -3.781  1.00  0.00    -0.013 C 
HETATM   40  C18 UNL     1     -13.585  25.264  -4.104  1.00  0.00     0.009 C 
HETATM   41  C22 UNL     1     -15.180  24.839  -2.303  1.00  0.00     0.009 C 
HETATM   42  C19 UNL     1     -12.638  24.234  -3.583  1.00  0.00    -0.013 C 
HETATM   43  C20 UNL     1     -12.778  24.161  -2.074  1.00  0.00     0.009 C 
HETATM   44  C24 UNL     1     -12.862  22.845  -4.149  1.00  0.00     0.022 C 
HETATM   45  C21 UNL     1     -14.206  23.813  -1.755  1.00  0.00    -0.013 C 
HETATM   46  C23 UNL     1     -14.547  22.502  -2.350  1.00  0.00     0.022 C 
ENDBRANCH  34  37
ENDBRANCH   4  34
TORSDOF 12
ENDMDL
MODEL 4
REMARK VINA RESULT: -9.180531035      0.678      2.397
REMARK  12 active torsions:
REMARK  status: ('A' for Active; 'I' for Inactive)
REMARK    1  A    between atoms: N1_2  and  C2_3 
REMARK    2  A    between atoms: N1_2  and  C4_6 
REMARK    3  A    between atoms: N1_2  and  C6_9 
REMARK    4  A    between atoms: C2_3  and  C3_4 
REMARK    5  A    between atoms: C4_6  and  C5_7 
REMARK    6  A    between atoms: C6_9  and  C7_10 
REMARK    7  A    between atoms: C7_10  and  N2_11 
REMARK       I    between atoms: N3_14  and  C10_15 
REMARK       I    between atoms: C10_15  and  N4_17 
REMARK    8  A    between atoms: N4_17  and  C11_19 
REMARK    9  A    between atoms: N5_22  and  C14_23 
REMARK   10  A    between atoms: C14_23  and  O2_24 
REMARK   11  A    between atoms: C14_23  and  C15_26 
REMARK   12  A    between atoms: C25_36  and  C26_37 
ROOT
HETATM    1  C11 UNL     1     -13.577  20.366  -7.729  1.00  0.00     0.089 C 
HETATM    2  C12 UNL     1     -14.688  20.346  -8.714  1.00  0.00     0.045 C 
HETATM    3  C13 UNL     1     -15.534  19.122  -8.456  1.00  0.00     0.127 C 
HETATM    4  N5  UNL     1     -15.855  18.998  -7.069  1.00  0.00    -0.356 N 
HETATM    5  C25 UNL     1     -15.278  19.790  -6.006  1.00  0.00     0.122 C 
HETATM    6  C31 UNL     1     -14.092  20.590  -6.319  1.00  0.00     0.055 C 
ENDROOT
BRANCH   1   7
HETATM    7  N4  UNL     1     -12.575  21.397  -8.002  1.00  0.00    -0.338 N 
HETATM    8  C10 UNL     1     -12.849  22.510  -8.808  1.00  0.00     0.319 C 
HETATM    9  N3  UNL     1     -11.973  23.557  -9.134  1.00  0.00    -0.328 N 
HETATM   10  O1  UNL     1     -14.026  22.585  -9.305  1.00  0.00    -0.247 OA
HETATM   11  C9  UNL     1     -12.388  24.644 -10.011  1.00  0.00     0.172 C 
HETATM   12  C32 UNL     1     -10.614  23.608  -8.586  1.00  0.00     0.148 C 
HETATM   13  C8  UNL     1     -11.536  25.860  -9.856  1.00  0.00     0.083 C 
HETATM   14  N2  UNL     1     -10.764  25.989  -8.707  1.00  0.00    -0.369 N 
HETATM   15  C33 UNL     1     -10.601  24.930  -7.807  1.00  0.00     0.147 C 
ATOM     16  H4  UNL     1     -11.646  21.303  -7.593  1.00  0.00     0.164 HD
BRANCH  14  17
HETATM   17  C7  UNL     1     -10.140  27.217  -8.420  1.00  0.00     0.091 C 
BRANCH  17  18
HETATM   18  C6  UNL     1      -8.813  27.164  -7.763  1.00  0.00     0.281 C 
BRANCH  18  19
HETATM   19  N1  UNL     1      -8.497  28.338  -6.969  1.00  0.00    -0.065 N 
HETATM   20  C1  UNL     1      -9.581  29.278  -7.173  1.00  0.00     0.273 C 
BRANCH  19  21
HETATM   21  C2  UNL     1      -8.402  27.877  -5.606  1.00  0.00     0.252 C 
BRANCH  21  22
HETATM   22  C3  UNL     1      -9.592  28.080  -4.749  1.00  0.00     0.142 C 
HETATM   23 CL1  UNL     1     -10.724  26.746  -4.661  1.00  0.00    -0.129 Cl
ENDBRANCH  21  22
ENDBRANCH  19  21
BRANCH  19  24
HETATM   24  C4  UNL     1      -7.247  28.956  -7.303  1.00  0.00     0.252 C 
BRANCH  24  25
HETATM   25  C5  UNL     1      -6.693  28.608  -8.644  1.00  0.00     0.142 C 
HETATM   26 CL2  UNL     1      -7.271  29.837  -9.829  1.00  0.00    -0.129 Cl
ENDBRANCH  24  25
ENDBRANCH  19  24
ENDBRANCH  18  19
ENDBRANCH  17  18
ENDBRANCH  14  17
ENDBRANCH   1   7
BRANCH   5  27
HETATM   27  C26 UNL     1     -16.337  20.647  -5.397  1.00  0.00    -0.020 A 
HETATM   28  C27 UNL     1     -16.813  20.411  -4.131  1.00  0.00     0.012 A 
HETATM   29  C28 UNL     1     -17.785  21.207  -3.603  1.00  0.00     0.018 A 
HETATM   30  C29 UNL     1     -18.304  22.264  -4.343  1.00  0.00     0.087 A 
HETATM   31  N6  UNL     1     -17.818  22.466  -5.573  1.00  0.00    -0.375 N 
HETATM   32  C30 UNL     1     -16.860  21.693  -6.110  1.00  0.00     0.096 A 
ATOM     33  H6  UNL     1     -18.190  23.238  -6.125  1.00  0.00     0.164 HD
ENDBRANCH   5  27
BRANCH   4  34
HETATM   34  C14 UNL     1     -16.797  18.026  -6.661  1.00  0.00     0.123 C 
BRANCH  34  35
HETATM   35  O2  UNL     1     -16.368  17.281  -5.678  1.00  0.00    -0.349 OA
ATOM     36  H2  UNL     1     -16.888  17.374  -4.888  1.00  0.00     0.219 HD
ENDBRANCH  34  35
BRANCH  34  37
HETATM   37  C15 UNL     1     -18.132  17.699  -7.116  1.00  0.00     0.026 C 
HETATM   38  C16 UNL     1     -18.121  16.755  -8.283  1.00  0.00     0.022 C 
HETATM   39  C17 UNL     1     -19.502  16.140  -8.559  1.00  0.00    -0.013 C 
HETATM   40  C18 UNL     1     -20.388  17.322  -8.906  1.00  0.00     0.009 C 
HETATM   41  C22 UNL     1     -20.083  15.435  -7.386  1.00  0.00     0.009 C 
HETATM   42  C19 UNL     1     -20.408  18.299  -7.778  1.00  0.00    -0.013 C 
HETATM   43  C20 UNL     1     -20.988  17.618  -6.552  1.00  0.00     0.009 C 
HETATM   44  C24 UNL     1     -19.043  18.852  -7.414  1.00  0.00     0.022 C 
HETATM   45  C21 UNL     1     -20.132  16.423  -6.235  1.00  0.00    -0.013 C 
HETATM   46  C23 UNL     1     -18.747  16.859  -5.953  1.00  0.00     0.022 C 
ENDBRANCH  34  37
ENDBRANCH   4  34
TORSDOF 12
ENDMDL
MODEL 5
REMARK VINA RESULT: -9.115524463      2.343      3.518
REMARK  12 active torsions:
REMARK  status: ('A' for Active; 'I' for Inactive)
REMARK    1  A    between atoms: N1_2  and  C2_3 
REMARK    2  A    between atoms: N1_2  and  C4_6 
REMARK    3  A    between atoms: N1_2  and  C6_9 
REMARK    4  A    between atoms: C2_3  and  C3_4 
REMARK    5  A    between atoms: C4_6  and  C5_7 
REMARK    6  A    between atoms: C6_9  and  C7_10 
REMARK    7  A    between atoms: C7_10  and  N2_11 
REMARK       I    between atoms: N3_14  and  C10_15 
REMARK       I    between atoms: C10_15  and  N4_17 
REMARK    8  A    between atoms: N4_17  and  C11_19 
REMARK    9  A    between atoms: N5_22  and  C14_23 
REMARK   10  A    between atoms: C14_23  and  O2_24 
REMARK   11  A    between atoms: C14_23  and  C15_26 
REMARK   12  A    between atoms: C25_36  and  C26_37 
ROOT
HETATM    1  C11 UNL     1     -13.727  20.531  -7.016  1.00  0.00     0.089 C 
HETATM    2  C12 UNL     1     -14.737  20.517  -8.105  1.00  0.00     0.045 C 
HETATM    3  C13 UNL     1     -15.513  19.224  -8.020  1.00  0.00     0.127 C 
HETATM    4  N5  UNL     1     -15.952  18.970  -6.685  1.00  0.00    -0.356 N 
HETATM    5  C25 UNL     1     -15.535  19.711  -5.515  1.00  0.00     0.122 C 
HETATM    6  C31 UNL     1     -14.386  20.609  -5.652  1.00  0.00     0.055 C 
ENDROOT
BRANCH   1   7
HETATM    7  N4  UNL     1     -12.781  21.644  -7.115  1.00  0.00    -0.338 N 
HETATM    8  C10 UNL     1     -11.764  21.677  -8.078  1.00  0.00     0.319 C 
HETATM    9  N3  UNL     1     -10.808  22.687  -8.267  1.00  0.00    -0.328 N 
HETATM   10  O1  UNL     1     -11.692  20.677  -8.874  1.00  0.00    -0.247 OA
HETATM   11  C9  UNL     1      -9.784  22.575  -9.298  1.00  0.00     0.172 C 
HETATM   12  C32 UNL     1     -10.818  23.903  -7.449  1.00  0.00     0.148 C 
HETATM   13  C8  UNL     1      -9.194  23.897  -9.661  1.00  0.00     0.083 C 
HETATM   14  N2  UNL     1      -9.892  25.052  -9.328  1.00  0.00    -0.369 N 
HETATM   15  C33 UNL     1     -11.008  25.020  -8.485  1.00  0.00     0.147 C 
ATOM     16  H4  UNL     1     -12.866  22.422  -6.461  1.00  0.00     0.164 HD
BRANCH  14  17
HETATM   17  C7  UNL     1      -9.487  26.290  -9.860  1.00  0.00     0.091 C 
BRANCH  17  18
HETATM   18  C6  UNL     1      -8.559  26.259 -11.015  1.00  0.00     0.281 C 
BRANCH  18  19
HETATM   19  N1  UNL     1      -9.190  26.548 -12.290  1.00  0.00    -0.065 N 
HETATM   20  C1  UNL     1      -9.286  27.991 -12.384  1.00  0.00     0.273 C 
BRANCH  19  21
HETATM   21  C2  UNL     1      -8.327  25.976 -13.294  1.00  0.00     0.252 C 
BRANCH  21  22
HETATM   22  C3  UNL     1      -8.755  24.688 -13.885  1.00  0.00     0.142 C 
HETATM   23 CL1  UNL     1      -8.169  23.238 -13.096  1.00  0.00    -0.129 Cl
ENDBRANCH  21  22
ENDBRANCH  19  21
BRANCH  19  24
HETATM   24  C4  UNL     1     -10.489  25.961 -12.452  1.00  0.00     0.252 C 
BRANCH  24  25
HETATM   25  C5  UNL     1     -11.613  26.924 -12.636  1.00  0.00     0.142 C 
HETATM   26 CL2  UNL     1     -12.838  26.614 -11.351  1.00  0.00    -0.129 Cl
ENDBRANCH  24  25
ENDBRANCH  19  24
ENDBRANCH  18  19
ENDBRANCH  17  18
ENDBRANCH  14  17
ENDBRANCH   1   7
BRANCH   5  27
HETATM   27  C26 UNL     1     -16.705  20.447  -4.952  1.00  0.00    -0.020 A 
HETATM   28  C27 UNL     1     -17.266  21.514  -5.609  1.00  0.00     0.012 A 
HETATM   29  C28 UNL     1     -18.330  22.170  -5.067  1.00  0.00     0.018 A 
HETATM   30  C29 UNL     1     -18.855  21.765  -3.845  1.00  0.00     0.087 A 
HETATM   31  N6  UNL     1     -18.284  20.722  -3.233  1.00  0.00    -0.375 N 
HETATM   32  C30 UNL     1     -17.236  20.062  -3.750  1.00  0.00     0.096 A 
ATOM     33  H6  UNL     1     -18.661  20.416  -2.336  1.00  0.00     0.164 HD
ENDBRANCH   5  27
BRANCH   4  34
HETATM   34  C14 UNL     1     -16.854  17.909  -6.442  1.00  0.00     0.123 C 
BRANCH  34  35
HETATM   35  O2  UNL     1     -16.426  17.071  -5.538  1.00  0.00    -0.349 OA
ATOM     36  H2  UNL     1     -17.109  16.785  -4.943  1.00  0.00     0.219 HD
ENDBRANCH  34  35
BRANCH  34  37
HETATM   37  C15 UNL     1     -18.150  17.576  -6.996  1.00  0.00     0.026 C 
HETATM   38  C16 UNL     1     -18.919  18.793  -7.418  1.00  0.00     0.022 C 
HETATM   39  C17 UNL     1     -20.128  18.451  -8.303  1.00  0.00    -0.013 C 
HETATM   40  C18 UNL     1     -21.023  17.600  -7.421  1.00  0.00     0.009 C 
HETATM   41  C22 UNL     1     -19.773  17.670  -9.518  1.00  0.00     0.009 C 
HETATM   42  C19 UNL     1     -20.286  16.387  -6.958  1.00  0.00    -0.013 C 
HETATM   43  C20 UNL     1     -19.895  15.561  -8.170  1.00  0.00     0.009 C 
HETATM   44  C24 UNL     1     -19.030  16.692  -6.164  1.00  0.00     0.022 C 
HETATM   45  C21 UNL     1     -19.043  16.420  -9.063  1.00  0.00    -0.013 C 
HETATM   46  C23 UNL     1     -17.826  16.845  -8.337  1.00  0.00     0.022 C 
ENDBRANCH  34  37
ENDBRANCH   4  34
TORSDOF 12
ENDMDL
