MODEL 1
REMARK VINA RESULT: -9.060652306      0.000      0.000
REMARK  12 active torsions:
REMARK  status: ('A' for Active; 'I' for Inactive)
REMARK    1  A    between atoms: C2_2  and  C4_4 
REMARK    2  A    between atoms: C4_4  and  N1_5 
REMARK    3  A    between atoms: N1_5  and  C6_7 
REMARK    4  A    between atoms: C6_7  and  C7_8 
REMARK    5  A    between atoms: C7_8  and  C8_9 
REMARK    6  A    between atoms: C7_8  and  N4_27 
REMARK    7  A    between atoms: C8_9  and  C9_10 
REMARK    8  A    between atoms: C9_10  and  C10_11 
REMARK       I    between atoms: C10_11  and  N2_13 
REMARK    9  A    between atoms: C14_17  and  C15_18 
REMARK   10  A    between atoms: C15_18  and  O2_19 
REMARK   11  A    between atoms: C15_18  and  N3_21 
REMARK       I    between atoms: N4_27  and  C21_29 
REMARK   12  A    between atoms: C21_29  and  C22_31 
ROOT
HETATM    1  C7  UNL     1     -15.225  22.484  -5.331  1.00  0.00     0.123 C 
ENDROOT
BRANCH   1   2
HETATM    2  C6  UNL     1     -15.621  23.535  -4.361  1.00  0.00     0.087 C 
BRANCH   2   3
HETATM    3  N1  UNL     1     -14.828  23.690  -3.220  1.00  0.00    -0.376 N 
HETATM    4  C5  UNL     1     -15.315  23.205  -2.017  1.00  0.00     0.154 C 
BRANCH   3   5
HETATM    5  C4  UNL     1     -13.902  24.731  -3.275  1.00  0.00     0.066 C 
BRANCH   5   6
HETATM    6  C2  UNL     1     -12.471  24.383  -3.035  1.00  0.00     0.016 C 
HETATM    7  C1  UNL     1     -11.591  24.277  -4.221  1.00  0.00     0.015 C 
HETATM    8  C3  UNL     1     -11.904  25.493  -2.141  1.00  0.00     0.015 C 
ENDBRANCH   5   6
ENDBRANCH   3   5
ENDBRANCH   2   3
ENDBRANCH   1   2
BRANCH   1   9
HETATM    9  C8  UNL     1     -16.513  21.929  -5.968  1.00  0.00     0.040 C 
BRANCH   9  10
HETATM   10  C9  UNL     1     -17.537  21.835  -4.878  1.00  0.00     0.105 C 
BRANCH  10  11
HETATM   11  C10 UNL     1     -18.647  20.936  -5.265  1.00  0.00     0.220 C 
HETATM   12  O1  UNL     1     -19.386  21.175  -6.240  1.00  0.00    -0.273 OA
HETATM   13  N2  UNL     1     -18.895  19.748  -4.509  1.00  0.00    -0.340 N 
HETATM   14  C11 UNL     1     -18.163  19.312  -3.343  1.00  0.00     0.127 C 
HETATM   15  C14 UNL     1     -19.894  18.709  -4.743  1.00  0.00     0.161 C 
HETATM   16  C12 UNL     1     -19.276  18.894  -2.411  1.00  0.00     0.022 C 
HETATM   17  C13 UNL     1     -20.273  18.278  -3.381  1.00  0.00     0.035 C 
BRANCH  15  18
HETATM   18  C15 UNL     1     -19.278  17.770  -5.667  1.00  0.00     0.137 C 
BRANCH  18  19
HETATM   19  O2  UNL     1     -19.197  16.560  -5.112  1.00  0.00    -0.348 OA
ATOM     20  H2  UNL     1     -20.005  16.348  -4.662  1.00  0.00     0.219 HD
ENDBRANCH  18  19
BRANCH  18  21
HETATM   21  N3  UNL     1     -18.774  17.824  -6.942  1.00  0.00    -0.364 N 
HETATM   22  C16 UNL     1     -17.418  17.591  -7.312  1.00  0.00     0.124 C 
HETATM   23  C17 UNL     1     -17.143  18.302  -8.637  1.00  0.00     0.020 C 
HETATM   24  C18 UNL     1     -17.930  17.664  -9.764  1.00  0.00     0.003 C 
HETATM   25  C19 UNL     1     -19.331  17.319  -9.299  1.00  0.00     0.020 C 
HETATM   26  C20 UNL     1     -19.688  18.121  -8.060  1.00  0.00     0.124 C 
ENDBRANCH  18  21
ENDBRANCH  15  18
ENDBRANCH  10  11
ENDBRANCH   9  10
ENDBRANCH   1   9
BRANCH   1  27
HETATM   27  N4  UNL     1     -14.289  22.880  -6.335  1.00  0.00    -0.348 N 
HETATM   28  C21 UNL     1     -13.444  21.993  -7.017  1.00  0.00     0.252 C 
HETATM   29  O3  UNL     1     -13.464  20.744  -6.780  1.00  0.00    -0.268 OA
ATOM     30  H4  UNL     1     -14.232  23.871  -6.570  1.00  0.00     0.163 HD
BRANCH  28  31
HETATM   31  C22 UNL     1     -12.494  22.449  -8.033  1.00  0.00     0.034 A 
HETATM   32  C23 UNL     1     -12.736  23.588  -8.766  1.00  0.00     0.036 A 
HETATM   33  C24 UNL     1     -11.883  24.075  -9.742  1.00  0.00     0.013 A 
HETATM   34 BR1  UNL     1     -12.230  25.642 -10.745  1.00  0.00    -0.051 Br
HETATM   35  C25 UNL     1     -10.711  23.373  -9.998  1.00  0.00     0.038 A 
HETATM   36  C26 UNL     1     -10.454  22.257  -9.294  1.00  0.00     0.013 A 
HETATM   37 BR2  UNL     1      -8.849  21.274  -9.625  1.00  0.00    -0.051 Br
HETATM   38  C27 UNL     1     -11.321  21.777  -8.313  1.00  0.00     0.036 A 
ENDBRANCH  28  31
ENDBRANCH   1  27
TORSDOF 12
ENDMDL
MODEL 2
REMARK VINA RESULT: -9.023615721      0.044      1.543
REMARK  12 active torsions:
REMARK  status: ('A' for Active; 'I' for Inactive)
REMARK    1  A    between atoms: C2_2  and  C4_4 
REMARK    2  A    between atoms: C4_4  and  N1_5 
REMARK    3  A    between atoms: N1_5  and  C6_7 
REMARK    4  A    between atoms: C6_7  and  C7_8 
REMARK    5  A    between atoms: C7_8  and  C8_9 
REMARK    6  A    between atoms: C7_8  and  N4_27 
REMARK    7  A    between atoms: C8_9  and  C9_10 
REMARK    8  A    between atoms: C9_10  and  C10_11 
REMARK       I    between atoms: C10_11  and  N2_13 
REMARK    9  A    between atoms: C14_17  and  C15_18 
REMARK   10  A    between atoms: C15_18  and  O2_19 
REMARK   11  A    between atoms: C15_18  and  N3_21 
REMARK       I    between atoms: N4_27  and  C21_29 
REMARK   12  A    between atoms: C21_29  and  C22_31 
ROOT
HETATM    1  C7  UNL     1     -15.218  22.499  -5.345  1.00  0.00     0.123 C 
ENDROOT
BRANCH   1   2
HETATM    2  C6  UNL     1     -15.603  23.540  -4.360  1.00  0.00     0.087 C 
BRANCH   2   3
HETATM    3  N1  UNL     1     -14.792  23.691  -3.232  1.00  0.00    -0.376 N 
HETATM    4  C5  UNL     1     -15.264  23.209  -2.021  1.00  0.00     0.154 C 
BRANCH   3   5
HETATM    5  C4  UNL     1     -13.861  24.725  -3.302  1.00  0.00     0.066 C 
BRANCH   5   6
HETATM    6  C2  UNL     1     -12.431  24.372  -3.060  1.00  0.00     0.016 C 
HETATM    7  C1  UNL     1     -11.549  24.264  -4.243  1.00  0.00     0.015 C 
HETATM    8  C3  UNL     1     -11.862  25.479  -2.162  1.00  0.00     0.015 C 
ENDBRANCH   5   6
ENDBRANCH   3   5
ENDBRANCH   2   3
ENDBRANCH   1   2
BRANCH   1   9
HETATM    9  C8  UNL     1     -16.514  21.950  -5.974  1.00  0.00     0.040 C 
BRANCH   9  10
HETATM   10  C9  UNL     1     -17.520  21.829  -4.869  1.00  0.00     0.105 C 
BRANCH  10  11
HETATM   11  C10 UNL     1     -18.638  20.942  -5.262  1.00  0.00     0.220 C 
HETATM   12  O1  UNL     1     -19.367  21.188  -6.243  1.00  0.00    -0.273 OA
HETATM   13  N2  UNL     1     -18.906  19.759  -4.505  1.00  0.00    -0.340 N 
HETATM   14  C11 UNL     1     -18.188  19.317  -3.333  1.00  0.00     0.127 C 
HETATM   15  C14 UNL     1     -19.916  18.732  -4.743  1.00  0.00     0.161 C 
HETATM   16  C12 UNL     1     -19.313  18.916  -2.407  1.00  0.00     0.022 C 
HETATM   17  C13 UNL     1     -20.310  18.309  -3.383  1.00  0.00     0.035 C 
BRANCH  15  18
HETATM   18  C15 UNL     1     -19.306  17.783  -5.661  1.00  0.00     0.137 C 
BRANCH  18  19
HETATM   19  O2  UNL     1     -19.243  16.574  -5.103  1.00  0.00    -0.348 OA
ATOM     20  H2  UNL     1     -18.350  16.376  -4.844  1.00  0.00     0.219 HD
ENDBRANCH  18  19
BRANCH  18  21
HETATM   21  N3  UNL     1     -18.791  17.828  -6.932  1.00  0.00    -0.364 N 
HETATM   22  C16 UNL     1     -17.435  17.587  -7.291  1.00  0.00     0.124 C 
HETATM   23  C17 UNL     1     -17.147  18.289  -8.619  1.00  0.00     0.020 C 
HETATM   24  C18 UNL     1     -17.928  17.648  -9.747  1.00  0.00     0.003 C 
HETATM   25  C19 UNL     1     -19.334  17.312  -9.291  1.00  0.00     0.020 C 
HETATM   26  C20 UNL     1     -19.697  18.122  -8.058  1.00  0.00     0.124 C 
ENDBRANCH  18  21
ENDBRANCH  15  18
ENDBRANCH  10  11
ENDBRANCH   9  10
ENDBRANCH   1   9
BRANCH   1  27
HETATM   27  N4  UNL     1     -14.295  22.906  -6.356  1.00  0.00    -0.348 N 
HETATM   28  C21 UNL     1     -13.444  22.029  -7.044  1.00  0.00     0.252 C 
HETATM   29  O3  UNL     1     -13.449  20.779  -6.807  1.00  0.00    -0.268 OA
ATOM     30  H4  UNL     1     -14.250  23.898  -6.592  1.00  0.00     0.163 HD
BRANCH  28  31
HETATM   31  C22 UNL     1     -12.507  22.496  -8.067  1.00  0.00     0.034 A 
HETATM   32  C23 UNL     1     -11.342  21.810  -8.323  1.00  0.00     0.036 A 
HETATM   33  C24 UNL     1     -10.410  22.196  -9.273  1.00  0.00     0.013 A 
HETATM   34 BR1  UNL     1      -8.810  21.244  -9.614  1.00  0.00    -0.051 Br
HETATM   35  C25 UNL     1     -10.666  23.344 -10.013  1.00  0.00     0.038 A 
HETATM   36  C26 UNL     1     -11.799  24.030  -9.779  1.00  0.00     0.013 A 
HETATM   37 BR2  UNL     1     -12.176  25.612 -10.783  1.00  0.00    -0.051 Br
HETATM   38  C27 UNL     1     -12.729  23.631  -8.819  1.00  0.00     0.036 A 
ENDBRANCH  28  31
ENDBRANCH   1  27
TORSDOF 12
ENDMDL
MODEL 3
REMARK VINA RESULT: -8.976356167      1.475      3.316
REMARK  12 active torsions:
REMARK  status: ('A' for Active; 'I' for Inactive)
REMARK    1  A    between atoms: C2_2  and  C4_4 
REMARK    2  A    between atoms: C4_4  and  N1_5 
REMARK    3  A    between atoms: N1_5  and  C6_7 
REMARK    4  A    between atoms: C6_7  and  C7_8 
REMARK    5  A    between atoms: C7_8  and  C8_9 
REMARK    6  A    between atoms: C7_8  and  N4_27 
REMARK    7  A    between atoms: C8_9  and  C9_10 
REMARK    8  A    between atoms: C9_10  and  C10_11 
REMARK       I    between atoms: C10_11  and  N2_13 
REMARK    9  A    between atoms: C14_17  and  C15_18 
REMARK   10  A    between atoms: C15_18  and  O2_19 
REMARK   11  A    between atoms: C15_18  and  N3_21 
REMARK       I    between atoms: N4_27  and  C21_29 
REMARK   12  A    between atoms: C21_29  and  C22_31 
ROOT
HETATM    1  C7  UNL     1     -15.989  21.057  -6.420  1.00  0.00     0.123 C 
ENDROOT
BRANCH   1   2
HETATM    2  C6  UNL     1     -16.402  21.766  -5.183  1.00  0.00     0.087 C 
BRANCH   2   3
HETATM    3  N1  UNL     1     -15.431  21.960  -4.197  1.00  0.00    -0.376 N 
HETATM    4  C5  UNL     1     -14.880  20.841  -3.594  1.00  0.00     0.154 C 
BRANCH   3   5
HETATM    5  C4  UNL     1     -15.472  23.198  -3.557  1.00  0.00     0.066 C 
BRANCH   5   6
HETATM    6  C2  UNL     1     -14.832  23.291  -2.212  1.00  0.00     0.016 C 
HETATM    7  C1  UNL     1     -13.681  24.212  -2.071  1.00  0.00     0.015 C 
HETATM    8  C3  UNL     1     -15.925  23.773  -1.249  1.00  0.00     0.015 C 
ENDBRANCH   5   6
ENDBRANCH   3   5
ENDBRANCH   2   3
ENDBRANCH   1   2
BRANCH   1   9
HETATM    9  C8  UNL     1     -17.256  20.811  -7.262  1.00  0.00     0.040 C 
BRANCH   9  10
HETATM   10  C9  UNL     1     -16.902  19.788  -8.299  1.00  0.00     0.105 C 
BRANCH  10  11
HETATM   11  C10 UNL     1     -17.166  18.417  -7.806  1.00  0.00     0.220 C 
HETATM   12  O1  UNL     1     -16.256  17.675  -7.391  1.00  0.00    -0.273 OA
HETATM   13  N2  UNL     1     -18.503  17.912  -7.796  1.00  0.00    -0.340 N 
HETATM   14  C11 UNL     1     -19.682  18.611  -8.251  1.00  0.00     0.127 C 
HETATM   15  C14 UNL     1     -18.988  16.622  -7.313  1.00  0.00     0.161 C 
HETATM   16  C12 UNL     1     -20.389  17.546  -9.056  1.00  0.00     0.022 C 
HETATM   17  C13 UNL     1     -20.095  16.298  -8.237  1.00  0.00     0.035 C 
BRANCH  15  18
HETATM   18  C15 UNL     1     -19.244  16.803  -5.893  1.00  0.00     0.137 C 
BRANCH  18  19
HETATM   19  O2  UNL     1     -19.742  15.684  -5.366  1.00  0.00    -0.348 OA
ATOM     20  H2  UNL     1     -19.238  15.425  -4.603  1.00  0.00     0.219 HD
ENDBRANCH  18  19
BRANCH  18  21
HETATM   21  N3  UNL     1     -19.101  17.821  -4.984  1.00  0.00    -0.364 N 
HETATM   22  C16 UNL     1     -17.900  18.164  -4.299  1.00  0.00     0.124 C 
HETATM   23  C17 UNL     1     -18.266  18.895  -3.007  1.00  0.00     0.020 C 
HETATM   24  C18 UNL     1     -18.895  20.240  -3.309  1.00  0.00     0.003 C 
HETATM   25  C19 UNL     1     -19.852  20.123  -4.479  1.00  0.00     0.020 C 
HETATM   26  C20 UNL     1     -20.264  18.676  -4.682  1.00  0.00     0.124 C 
ENDBRANCH  18  21
ENDBRANCH  15  18
ENDBRANCH  10  11
ENDBRANCH   9  10
ENDBRANCH   1   9
BRANCH   1  27
HETATM   27  N4  UNL     1     -14.976  21.695  -7.197  1.00  0.00    -0.348 N 
HETATM   28  C21 UNL     1     -13.735  21.117  -7.502  1.00  0.00     0.252 C 
HETATM   29  O3  UNL     1     -13.430  19.951  -7.096  1.00  0.00    -0.268 OA
ATOM     30  H4  UNL     1     -15.166  22.632  -7.555  1.00  0.00     0.163 HD
BRANCH  28  31
HETATM   31  C22 UNL     1     -12.724  21.816  -8.297  1.00  0.00     0.034 A 
HETATM   32  C23 UNL     1     -13.006  23.023  -8.896  1.00  0.00     0.036 A 
HETATM   33  C24 UNL     1     -12.100  23.737  -9.662  1.00  0.00     0.013 A 
HETATM   34 BR1  UNL     1     -12.503  25.395 -10.481  1.00  0.00    -0.051 Br
HETATM   35  C25 UNL     1     -10.829  23.205  -9.837  1.00  0.00     0.038 A 
HETATM   36  C26 UNL     1     -10.530  22.027  -9.262  1.00  0.00     0.013 A 
HETATM   37 BR2  UNL     1      -8.788  21.274  -9.487  1.00  0.00    -0.051 Br
HETATM   38  C27 UNL     1     -11.452  21.317  -8.492  1.00  0.00     0.036 A 
ENDBRANCH  28  31
ENDBRANCH   1  27
TORSDOF 12
ENDMDL
MODEL 4
REMARK VINA RESULT: -8.966989204      1.580      3.715
REMARK  12 active torsions:
REMARK  status: ('A' for Active; 'I' for Inactive)
REMARK    1  A    between atoms: C2_2  and  C4_4 
REMARK    2  A    between atoms: C4_4  and  N1_5 
REMARK    3  A    between atoms: N1_5  and  C6_7 
REMARK    4  A    between atoms: C6_7  and  C7_8 
REMARK    5  A    between atoms: C7_8  and  C8_9 
REMARK    6  A    between atoms: C7_8  and  N4_27 
REMARK    7  A    between atoms: C8_9  and  C9_10 
REMARK    8  A    between atoms: C9_10  and  C10_11 
REMARK       I    between atoms: C10_11  and  N2_13 
REMARK    9  A    between atoms: C14_17  and  C15_18 
REMARK   10  A    between atoms: C15_18  and  O2_19 
REMARK   11  A    between atoms: C15_18  and  N3_21 
REMARK       I    between atoms: N4_27  and  C21_29 
REMARK   12  A    between atoms: C21_29  and  C22_31 
ROOT
HETATM    1  C7  UNL     1     -16.054  21.204  -6.444  1.00  0.00     0.123 C 
ENDROOT
BRANCH   1   2
HETATM    2  C6  UNL     1     -16.548  21.988  -5.285  1.00  0.00     0.087 C 
BRANCH   2   3
HETATM    3  N1  UNL     1     -15.814  21.914  -4.098  1.00  0.00    -0.376 N 
HETATM    4  C5  UNL     1     -15.009  20.804  -3.897  1.00  0.00     0.154 C 
BRANCH   3   5
HETATM    5  C4  UNL     1     -16.325  22.658  -3.035  1.00  0.00     0.066 C 
BRANCH   5   6
HETATM    6  C2  UNL     1     -15.345  23.412  -2.199  1.00  0.00     0.016 C 
HETATM    7  C1  UNL     1     -14.742  24.627  -2.791  1.00  0.00     0.015 C 
HETATM    8  C3  UNL     1     -16.103  23.844  -0.936  1.00  0.00     0.015 C 
ENDBRANCH   5   6
ENDBRANCH   3   5
ENDBRANCH   2   3
ENDBRANCH   1   2
BRANCH   1   9
HETATM    9  C8  UNL     1     -17.276  20.816  -7.300  1.00  0.00     0.040 C 
BRANCH   9  10
HETATM   10  C9  UNL     1     -16.812  19.786  -8.285  1.00  0.00     0.105 C 
BRANCH  10  11
HETATM   11  C10 UNL     1     -17.064  18.417  -7.782  1.00  0.00     0.220 C 
HETATM   12  O1  UNL     1     -16.158  17.711  -7.299  1.00  0.00    -0.273 OA
HETATM   13  N2  UNL     1     -18.383  17.870  -7.843  1.00  0.00    -0.340 N 
HETATM   14  C11 UNL     1     -19.553  18.523  -8.382  1.00  0.00     0.127 C 
HETATM   15  C14 UNL     1     -18.857  16.574  -7.364  1.00  0.00     0.161 C 
HETATM   16  C12 UNL     1     -20.177  17.422  -9.206  1.00  0.00     0.022 C 
HETATM   17  C13 UNL     1     -19.896  16.198  -8.346  1.00  0.00     0.035 C 
BRANCH  15  18
HETATM   18  C15 UNL     1     -19.204  16.772  -5.966  1.00  0.00     0.137 C 
BRANCH  18  19
HETATM   19  O2  UNL     1     -19.752  15.665  -5.463  1.00  0.00    -0.348 OA
ATOM     20  H2  UNL     1     -19.345  15.443  -4.634  1.00  0.00     0.219 HD
ENDBRANCH  18  19
BRANCH  18  21
HETATM   21  N3  UNL     1     -19.106  17.797  -5.059  1.00  0.00    -0.364 N 
HETATM   22  C16 UNL     1     -17.935  18.160  -4.334  1.00  0.00     0.124 C 
HETATM   23  C17 UNL     1     -18.356  18.893  -3.060  1.00  0.00     0.020 C 
HETATM   24  C18 UNL     1     -18.992  20.228  -3.391  1.00  0.00     0.003 C 
HETATM   25  C19 UNL     1     -19.906  20.092  -4.593  1.00  0.00     0.020 C 
HETATM   26  C20 UNL     1     -20.290  18.638  -4.802  1.00  0.00     0.124 C 
ENDBRANCH  18  21
ENDBRANCH  15  18
ENDBRANCH  10  11
ENDBRANCH   9  10
ENDBRANCH   1   9
BRANCH   1  27
HETATM   27  N4  UNL     1     -15.051  21.833  -7.243  1.00  0.00    -0.348 N 
HETATM   28  C21 UNL     1     -13.788  21.281  -7.502  1.00  0.00     0.252 C 
HETATM   29  O3  UNL     1     -13.451  20.149  -7.030  1.00  0.00    -0.268 OA
ATOM     30  H4  UNL     1     -15.268  22.743  -7.652  1.00  0.00     0.163 HD
BRANCH  28  31
HETATM   31  C22 UNL     1     -12.790  21.971  -8.321  1.00  0.00     0.034 A 
HETATM   32  C23 UNL     1     -11.535  21.437  -8.505  1.00  0.00     0.036 A 
HETATM   33  C24 UNL     1     -10.544  22.035  -9.263  1.00  0.00     0.013 A 
HETATM   34 BR1  UNL     1      -8.821  21.289  -9.506  1.00  0.00    -0.051 Br
HETATM   35  C25 UNL     1     -10.831  23.248  -9.877  1.00  0.00     0.038 A 
HETATM   36  C26 UNL     1     -12.050  23.789  -9.711  1.00  0.00     0.013 A 
HETATM   37 BR2  UNL     1     -12.471  25.456 -10.546  1.00  0.00    -0.051 Br
HETATM   38  C27 UNL     1     -13.041  23.176  -8.944  1.00  0.00     0.036 A 
ENDBRANCH  28  31
ENDBRANCH   1  27
TORSDOF 12
ENDMDL
MODEL 5
REMARK VINA RESULT: -8.939570514      0.996      1.531
REMARK  12 active torsions:
REMARK  status: ('A' for Active; 'I' for Inactive)
REMARK    1  A    between atoms: C2_2  and  C4_4 
REMARK    2  A    between atoms: C4_4  and  N1_5 
REMARK    3  A    between atoms: N1_5  and  C6_7 
REMARK    4  A    between atoms: C6_7  and  C7_8 
REMARK    5  A    between atoms: C7_8  and  C8_9 
REMARK    6  A    between atoms: C7_8  and  N4_27 
REMARK    7  A    between atoms: C8_9  and  C9_10 
REMARK    8  A    between atoms: C9_10  and  C10_11 
REMARK       I    between atoms: C10_11  and  N2_13 
REMARK    9  A    between atoms: C14_17  and  C15_18 
REMARK   10  A    between atoms: C15_18  and  O2_19 
REMARK   11  A    between atoms: C15_18  and  N3_21 
REMARK       I    between atoms: N4_27  and  C21_29 
REMARK   12  A    between atoms: C21_29  and  C22_31 
ROOT
HETATM    1  C7  UNL     1     -15.508  21.658  -6.092  1.00  0.00     0.123 C 
ENDROOT
BRANCH   1   2
HETATM    2  C6  UNL     1     -15.606  22.250  -4.735  1.00  0.00     0.087 C 
BRANCH   2   3
HETATM    3  N1  UNL     1     -14.846  21.663  -3.720  1.00  0.00    -0.376 N 
HETATM    4  C5  UNL     1     -14.269  20.428  -3.967  1.00  0.00     0.154 C 
BRANCH   3   5
HETATM    5  C4  UNL     1     -15.147  22.091  -2.427  1.00  0.00     0.066 C 
BRANCH   5   6
HETATM    6  C2  UNL     1     -15.448  23.541  -2.243  1.00  0.00     0.016 C 
HETATM    7  C1  UNL     1     -16.263  23.921  -1.067  1.00  0.00     0.015 C 
HETATM    8  C3  UNL     1     -14.093  24.248  -2.109  1.00  0.00     0.015 C 
ENDBRANCH   5   6
ENDBRANCH   3   5
ENDBRANCH   2   3
ENDBRANCH   1   2
BRANCH   1   9
HETATM    9  C8  UNL     1     -16.909  21.723  -6.732  1.00  0.00     0.040 C 
BRANCH   9  10
HETATM   10  C9  UNL     1     -17.896  21.855  -5.612  1.00  0.00     0.105 C 
BRANCH  10  11
HETATM   11  C10 UNL     1     -18.943  20.811  -5.700  1.00  0.00     0.220 C 
HETATM   12  O1  UNL     1     -19.885  20.882  -6.512  1.00  0.00    -0.273 OA
HETATM   13  N2  UNL     1     -18.887  19.676  -4.833  1.00  0.00    -0.340 N 
HETATM   14  C11 UNL     1     -17.890  19.425  -3.819  1.00  0.00     0.127 C 
HETATM   15  C14 UNL     1     -19.778  18.520  -4.784  1.00  0.00     0.161 C 
HETATM   16  C12 UNL     1     -18.734  18.977  -2.649  1.00  0.00     0.022 C 
HETATM   17  C13 UNL     1     -19.822  18.173  -3.348  1.00  0.00     0.035 C 
BRANCH  15  18
HETATM   18  C15 UNL     1     -19.249  17.573  -5.753  1.00  0.00     0.137 C 
BRANCH  18  19
HETATM   19  O2  UNL     1     -19.201  16.349  -5.226  1.00  0.00    -0.348 OA
ATOM     20  H2  UNL     1     -19.331  15.693  -5.901  1.00  0.00     0.219 HD
ENDBRANCH  18  19
BRANCH  18  21
HETATM   21  N3  UNL     1     -18.799  17.631  -7.048  1.00  0.00    -0.364 N 
HETATM   22  C16 UNL     1     -17.437  17.573  -7.460  1.00  0.00     0.124 C 
HETATM   23  C17 UNL     1     -17.310  18.245  -8.828  1.00  0.00     0.020 C 
HETATM   24  C18 UNL     1     -18.033  17.443  -9.891  1.00  0.00     0.003 C 
HETATM   25  C19 UNL     1     -19.354  16.929  -9.355  1.00  0.00     0.020 C 
HETATM   26  C20 UNL     1     -19.783  17.736  -8.142  1.00  0.00     0.124 C 
ENDBRANCH  18  21
ENDBRANCH  15  18
ENDBRANCH  10  11
ENDBRANCH   9  10
ENDBRANCH   1   9
BRANCH   1  27
HETATM   27  N4  UNL     1     -14.526  22.233  -6.955  1.00  0.00    -0.348 N 
HETATM   28  C21 UNL     1     -13.495  21.507  -7.569  1.00  0.00     0.252 C 
HETATM   29  O3  UNL     1     -13.371  20.254  -7.391  1.00  0.00    -0.268 OA
ATOM     30  H4  UNL     1     -14.579  23.236  -7.138  1.00  0.00     0.163 HD
BRANCH  28  31
HETATM   31  C22 UNL     1     -12.506  22.145  -8.439  1.00  0.00     0.034 A 
HETATM   32  C23 UNL     1     -12.773  23.349  -9.050  1.00  0.00     0.036 A 
HETATM   33  C24 UNL     1     -11.886  24.006  -9.886  1.00  0.00     0.013 A 
HETATM   34 BR1  UNL     1     -12.269  25.662 -10.720  1.00  0.00    -0.051 Br
HETATM   35  C25 UNL     1     -10.651  23.416 -10.124  1.00  0.00     0.038 A 
HETATM   36  C26 UNL     1     -10.368  22.239  -9.539  1.00  0.00     0.013 A 
HETATM   37 BR2  UNL     1      -8.676  21.407  -9.849  1.00  0.00    -0.051 Br
HETATM   38  C27 UNL     1     -11.270  21.587  -8.699  1.00  0.00     0.036 A 
ENDBRANCH  28  31
ENDBRANCH   1  27
TORSDOF 12
ENDMDL
