MODEL 1
REMARK VINA RESULT: -5.613980402      0.000      0.000
REMARK  7 active torsions:
REMARK  status: ('A' for Active; 'I' for Inactive)
REMARK    1  A    between atoms: C2_4  and  C3_5 
REMARK    2  A    between atoms: C3_5  and  N2_6 
REMARK    3  A    between atoms: N2_6  and  C4_9 
REMARK    4  A    between atoms: C4_9  and  C5_10 
REMARK    5  A    between atoms: C5_10  and  N3_11 
REMARK    6  A    between atoms: C5_10  and  C6_15 
REMARK    7  A    between atoms: C6_15  and  N4_16 
ROOT
HETATM    1  N2  UNL     1      18.319  -2.285  61.147  1.00  0.00    -0.067 N 
ATOM      2  H21 UNL     1      19.167  -2.701  61.533  1.00  0.00     0.277 HD
ATOM      3  H22 UNL     1      17.698  -3.083  61.283  1.00  0.00     0.277 HD
ENDROOT
BRANCH   1   4
HETATM    4  C3  UNL     1      18.459  -1.933  59.784  1.00  0.00     0.299 C 
BRANCH   4   5
HETATM    5  C2  UNL     1      17.624  -2.982  59.014  1.00  0.00     0.105 A 
HETATM    6  O1  UNL     1      17.834  -3.311  57.901  1.00  0.00    -0.237 OA
HETATM    7  N1  UNL     1      16.890  -4.268  57.506  1.00  0.00    -0.243 N 
HETATM    8  C1  UNL     1      16.743  -4.880  56.264  1.00  0.00     0.187 C 
HETATM    9  C8  UNL     1      16.086  -4.329  58.613  1.00  0.00     0.141 A 
HETATM   10  C7  UNL     1      16.691  -3.536  59.487  1.00  0.00     0.083 A 
HETATM   11  N5  UNL     1      14.728  -4.815  58.738  1.00  0.00    -0.081 NA
ENDBRANCH   4   5
ENDBRANCH   1   4
BRANCH   1  12
HETATM   12  C4  UNL     1      17.897  -1.133  61.874  1.00  0.00     0.270 C 
BRANCH  12  13
HETATM   13  C5  UNL     1      16.556  -1.367  62.547  1.00  0.00     0.246 C 
BRANCH  13  14
HETATM   14  N3  UNL     1      15.737  -0.200  62.143  1.00  0.00    -0.069 N 
ATOM     15  H33 UNL     1      16.280   0.636  61.926  1.00  0.00     0.275 HD
ATOM     16  H32 UNL     1      15.303  -0.291  61.225  1.00  0.00     0.275 HD
ATOM     17  H31 UNL     1      15.075  -0.082  62.909  1.00  0.00     0.275 HD
ENDBRANCH  13  14
BRANCH  13  18
HETATM   18  C6  UNL     1      16.854  -1.341  63.958  1.00  0.00     0.087 C 
BRANCH  18  19
HETATM   19  N4  UNL     1      17.212  -2.439  64.545  1.00  0.00    -0.409 N 
ATOM     20  H42 UNL     1      17.852  -2.400  65.338  1.00  0.00     0.155 HD
ATOM     21  H41 UNL     1      16.846  -3.327  64.200  1.00  0.00     0.155 HD
ENDBRANCH  18  19
ENDBRANCH  13  18
ENDBRANCH  12  13
ENDBRANCH   1  12
TORSDOF 7
ENDMDL
MODEL 2
REMARK VINA RESULT: -5.448302080      0.961      1.070
REMARK  7 active torsions:
REMARK  status: ('A' for Active; 'I' for Inactive)
REMARK    1  A    between atoms: C2_4  and  C3_5 
REMARK    2  A    between atoms: C3_5  and  N2_6 
REMARK    3  A    between atoms: N2_6  and  C4_9 
REMARK    4  A    between atoms: C4_9  and  C5_10 
REMARK    5  A    between atoms: C5_10  and  N3_11 
REMARK    6  A    between atoms: C5_10  and  C6_15 
REMARK    7  A    between atoms: C6_15  and  N4_16 
ROOT
HETATM    1  N2  UNL     1      17.581  -1.949  60.395  1.00  0.00    -0.067 N 
ATOM      2  H21 UNL     1      17.160  -1.389  59.654  1.00  0.00     0.277 HD
ATOM      3  H22 UNL     1      18.479  -2.126  59.945  1.00  0.00     0.277 HD
ENDROOT
BRANCH   1   4
HETATM    4  C3  UNL     1      16.860  -3.139  60.653  1.00  0.00     0.299 C 
BRANCH   4   5
HETATM    5  C2  UNL     1      16.625  -3.772  59.262  1.00  0.00     0.105 A 
HETATM    6  O1  UNL     1      17.434  -3.812  58.406  1.00  0.00    -0.237 OA
HETATM    7  N1  UNL     1      16.895  -4.444  57.277  1.00  0.00    -0.243 N 
HETATM    8  C1  UNL     1      17.487  -4.655  56.034  1.00  0.00     0.187 C 
HETATM    9  C8  UNL     1      15.606  -4.667  57.681  1.00  0.00     0.141 A 
HETATM   10  C7  UNL     1      15.597  -4.264  58.944  1.00  0.00     0.083 A 
HETATM   11  N5  UNL     1      14.423  -4.924  56.886  1.00  0.00    -0.081 NA
ENDBRANCH   4   5
ENDBRANCH   1   4
BRANCH   1  12
HETATM   12  C4  UNL     1      17.715  -1.224  61.617  1.00  0.00     0.270 C 
BRANCH  12  13
HETATM   13  C5  UNL     1      16.455  -1.325  62.458  1.00  0.00     0.246 C 
BRANCH  13  14
HETATM   14  N3  UNL     1      15.673  -0.121  62.087  1.00  0.00    -0.069 N 
ATOM     15  H33 UNL     1      14.745  -0.324  61.716  1.00  0.00     0.275 HD
ATOM     16  H32 UNL     1      15.356   0.433  62.882  1.00  0.00     0.275 HD
ATOM     17  H31 UNL     1      16.282   0.382  61.441  1.00  0.00     0.275 HD
ENDBRANCH  13  14
BRANCH  13  18
HETATM   18  C6  UNL     1      16.925  -1.251  63.818  1.00  0.00     0.087 C 
BRANCH  18  19
HETATM   19  N4  UNL     1      17.163  -2.350  64.462  1.00  0.00    -0.409 N 
ATOM     20  H42 UNL     1      16.564  -2.614  65.245  1.00  0.00     0.155 HD
ATOM     21  H41 UNL     1      17.947  -2.934  64.171  1.00  0.00     0.155 HD
ENDBRANCH  18  19
ENDBRANCH  13  18
ENDBRANCH  12  13
ENDBRANCH   1  12
TORSDOF 7
ENDMDL
MODEL 3
REMARK VINA RESULT: -5.429648365      0.448      1.497
REMARK  7 active torsions:
REMARK  status: ('A' for Active; 'I' for Inactive)
REMARK    1  A    between atoms: C2_4  and  C3_5 
REMARK    2  A    between atoms: C3_5  and  N2_6 
REMARK    3  A    between atoms: N2_6  and  C4_9 
REMARK    4  A    between atoms: C4_9  and  C5_10 
REMARK    5  A    between atoms: C5_10  and  N3_11 
REMARK    6  A    between atoms: C5_10  and  C6_15 
REMARK    7  A    between atoms: C6_15  and  N4_16 
ROOT
HETATM    1  N2  UNL     1      18.333  -2.425  61.385  1.00  0.00    -0.067 N 
ATOM      2  H21 UNL     1      19.078  -3.048  61.697  1.00  0.00     0.277 HD
ATOM      3  H22 UNL     1      17.555  -3.077  61.484  1.00  0.00     0.277 HD
ENDROOT
BRANCH   1   4
HETATM    4  C3  UNL     1      18.511  -1.994  60.050  1.00  0.00     0.299 C 
BRANCH   4   5
HETATM    5  C2  UNL     1      17.688  -2.987  59.197  1.00  0.00     0.105 A 
HETATM    6  O1  UNL     1      17.935  -3.265  58.078  1.00  0.00    -0.237 OA
HETATM    7  N1  UNL     1      16.990  -4.184  57.601  1.00  0.00    -0.243 N 
HETATM    8  C1  UNL     1      16.881  -4.732  56.325  1.00  0.00     0.187 C 
HETATM    9  C8  UNL     1      16.143  -4.282  58.672  1.00  0.00     0.141 A 
HETATM   10  C7  UNL     1      16.728  -3.545  59.606  1.00  0.00     0.083 A 
HETATM   11  N5  UNL     1      14.772  -4.746  58.721  1.00  0.00    -0.081 NA
ENDBRANCH   4   5
ENDBRANCH   1   4
BRANCH   1  12
HETATM   12  C4  UNL     1      18.196  -1.277  62.220  1.00  0.00     0.270 C 
BRANCH  12  13
HETATM   13  C5  UNL     1      17.033  -1.433  63.184  1.00  0.00     0.246 C 
BRANCH  13  14
HETATM   14  N3  UNL     1      17.141  -2.832  63.661  1.00  0.00    -0.069 N 
ATOM     15  H33 UNL     1      16.720  -3.520  63.038  1.00  0.00     0.275 HD
ATOM     16  H32 UNL     1      18.086  -3.214  63.625  1.00  0.00     0.275 HD
ATOM     17  H31 UNL     1      16.735  -2.809  64.596  1.00  0.00     0.275 HD
ENDBRANCH  13  14
BRANCH  13  18
HETATM   18  C6  UNL     1      15.861  -1.243  62.365  1.00  0.00     0.087 C 
BRANCH  18  19
HETATM   19  N4  UNL     1      15.675  -0.096  61.792  1.00  0.00    -0.409 N 
ATOM     20  H42 UNL     1      16.480   0.439  61.463  1.00  0.00     0.155 HD
ATOM     21  H41 UNL     1      14.723   0.252  61.679  1.00  0.00     0.155 HD
ENDBRANCH  18  19
ENDBRANCH  13  18
ENDBRANCH  12  13
ENDBRANCH   1  12
TORSDOF 7
ENDMDL
MODEL 4
REMARK VINA RESULT: -5.397010343      1.237      1.772
REMARK  7 active torsions:
REMARK  status: ('A' for Active; 'I' for Inactive)
REMARK    1  A    between atoms: C2_4  and  C3_5 
REMARK    2  A    between atoms: C3_5  and  N2_6 
REMARK    3  A    between atoms: N2_6  and  C4_9 
REMARK    4  A    between atoms: C4_9  and  C5_10 
REMARK    5  A    between atoms: C5_10  and  N3_11 
REMARK    6  A    between atoms: C5_10  and  C6_15 
REMARK    7  A    between atoms: C6_15  and  N4_16 
ROOT
HETATM    1  N2  UNL     1      18.168  -2.400  61.109  1.00  0.00    -0.067 N 
ATOM      2  H21 UNL     1      19.105  -2.721  61.354  1.00  0.00     0.277 HD
ATOM      3  H22 UNL     1      17.646  -3.192  61.484  1.00  0.00     0.277 HD
ENDROOT
BRANCH   1   4
HETATM    4  C3  UNL     1      17.994  -2.249  59.713  1.00  0.00     0.299 C 
BRANCH   4   5
HETATM    5  C2  UNL     1      16.811  -3.178  59.356  1.00  0.00     0.105 A 
HETATM    6  O1  UNL     1      15.845  -3.309  60.019  1.00  0.00    -0.237 OA
HETATM    7  N1  UNL     1      14.978  -4.228  59.414  1.00  0.00    -0.243 N 
HETATM    8  C1  UNL     1      13.757  -4.708  59.883  1.00  0.00     0.187 C 
HETATM    9  C8  UNL     1      15.713  -4.619  58.327  1.00  0.00     0.141 A 
HETATM   10  C7  UNL     1      16.789  -3.846  58.379  1.00  0.00     0.083 A 
HETATM   11  N5  UNL     1      15.585  -5.807  57.509  1.00  0.00    -0.081 NA
ENDBRANCH   4   5
ENDBRANCH   1   4
BRANCH   1  12
HETATM   12  C4  UNL     1      17.829  -1.170  61.746  1.00  0.00     0.270 C 
BRANCH  12  13
HETATM   13  C5  UNL     1      16.552  -1.303  62.557  1.00  0.00     0.246 C 
BRANCH  13  14
HETATM   14  N3  UNL     1      15.733  -0.140  62.140  1.00  0.00    -0.069 N 
ATOM     15  H33 UNL     1      16.275   0.694  61.918  1.00  0.00     0.275 HD
ATOM     16  H32 UNL     1      15.302  -0.241  61.222  1.00  0.00     0.275 HD
ATOM     17  H31 UNL     1      15.069  -0.017  62.904  1.00  0.00     0.275 HD
ENDBRANCH  13  14
BRANCH  13  18
HETATM   18  C6  UNL     1      16.984  -1.181  63.927  1.00  0.00     0.087 C 
BRANCH  18  19
HETATM   19  N4  UNL     1      17.154  -2.257  64.631  1.00  0.00    -0.409 N 
ATOM     20  H42 UNL     1      16.340  -2.767  64.973  1.00  0.00     0.155 HD
ATOM     21  H41 UNL     1      18.103  -2.573  64.829  1.00  0.00     0.155 HD
ENDBRANCH  18  19
ENDBRANCH  13  18
ENDBRANCH  12  13
ENDBRANCH   1  12
TORSDOF 7
ENDMDL
MODEL 5
REMARK VINA RESULT: -5.346259898      1.522      2.436
REMARK  7 active torsions:
REMARK  status: ('A' for Active; 'I' for Inactive)
REMARK    1  A    between atoms: C2_4  and  C3_5 
REMARK    2  A    between atoms: C3_5  and  N2_6 
REMARK    3  A    between atoms: N2_6  and  C4_9 
REMARK    4  A    between atoms: C4_9  and  C5_10 
REMARK    5  A    between atoms: C5_10  and  N3_11 
REMARK    6  A    between atoms: C5_10  and  C6_15 
REMARK    7  A    between atoms: C6_15  and  N4_16 
ROOT
HETATM    1  N2  UNL     1      15.605  -0.896  62.439  1.00  0.00    -0.067 N 
ATOM      2  H21 UNL     1      15.134  -1.792  62.567  1.00  0.00     0.277 HD
ATOM      3  H22 UNL     1      14.918  -0.307  62.909  1.00  0.00     0.277 HD
ENDROOT
BRANCH   1   4
HETATM    4  C3  UNL     1      15.765  -0.557  61.075  1.00  0.00     0.299 C 
BRANCH   4   5
HETATM    5  C2  UNL     1      15.887  -1.912  60.339  1.00  0.00     0.105 A 
HETATM    6  O1  UNL     1      16.781  -2.204  59.628  1.00  0.00    -0.237 OA
HETATM    7  N1  UNL     1      16.577  -3.493  59.119  1.00  0.00    -0.243 N 
HETATM    8  C1  UNL     1      17.359  -4.200  58.209  1.00  0.00     0.187 C 
HETATM    9  C8  UNL     1      15.352  -3.803  59.647  1.00  0.00     0.141 A 
HETATM   10  C7  UNL     1      15.075  -2.768  60.428  1.00  0.00     0.083 A 
HETATM   11  N5  UNL     1      14.392  -4.800  59.221  1.00  0.00    -0.081 NA
ENDBRANCH   4   5
ENDBRANCH   1   4
BRANCH   1  12
HETATM   12  C4  UNL     1      16.883  -0.857  63.071  1.00  0.00     0.270 C 
BRANCH  12  13
HETATM   13  C5  UNL     1      17.385  -2.256  63.384  1.00  0.00     0.246 C 
BRANCH  13  14
HETATM   14  N3  UNL     1      17.224  -2.379  64.853  1.00  0.00    -0.069 N 
ATOM     15  H33 UNL     1      16.510  -3.047  65.140  1.00  0.00     0.275 HD
ATOM     16  H32 UNL     1      18.003  -2.841  65.322  1.00  0.00     0.275 HD
ATOM     17  H31 UNL     1      17.055  -1.423  65.166  1.00  0.00     0.275 HD
ENDBRANCH  13  14
BRANCH  13  18
HETATM   18  C6  UNL     1      18.776  -2.230  63.006  1.00  0.00     0.087 C 
BRANCH  18  19
HETATM   19  N4  UNL     1      19.090  -1.910  61.790  1.00  0.00    -0.409 N 
ATOM     20  H42 UNL     1      18.649  -2.400  61.011  1.00  0.00     0.155 HD
ATOM     21  H41 UNL     1      19.776  -1.171  61.634  1.00  0.00     0.155 HD
ENDBRANCH  18  19
ENDBRANCH  13  18
ENDBRANCH  12  13
ENDBRANCH   1  12
TORSDOF 7
ENDMDL
