MODEL 1
REMARK VINA RESULT: -5.650065037      0.000      0.000
REMARK  7 active torsions:
REMARK  status: ('A' for Active; 'I' for Inactive)
REMARK    1  A    between atoms: N1_1  and  C1_5 
REMARK    2  A    between atoms: C1_5  and  C2_6 
REMARK    3  A    between atoms: C2_6  and  N2_7 
REMARK    4  A    between atoms: N2_7  and  C3_10 
REMARK    5  A    between atoms: C3_10  and  C4_11 
REMARK    6  A    between atoms: C4_11  and  N3_12 
REMARK    7  A    between atoms: N3_12  and  C5_14 
ROOT
HETATM    1  C4  UNL     1      18.883  -1.836  58.329  1.00  0.00     0.147 C 
ENDROOT
BRANCH   1   2
HETATM    2  C3  UNL     1      18.924  -3.180  57.581  1.00  0.00     0.251 C 
BRANCH   2   3
HETATM    3  N2  UNL     1      17.696  -3.556  56.982  1.00  0.00    -0.072 N 
ATOM      4  H22 UNL     1      17.810  -3.700  55.979  1.00  0.00     0.277 HD
ATOM      5  H21 UNL     1      17.044  -2.772  56.965  1.00  0.00     0.277 HD
BRANCH   3   6
HETATM    6  C2  UNL     1      17.099  -4.703  57.598  1.00  0.00     0.259 C 
BRANCH   6   7
HETATM    7  C1  UNL     1      15.635  -4.774  57.249  1.00  0.00     0.257 C 
BRANCH   7   8
HETATM    8  N1  UNL     1      14.801  -5.066  58.391  1.00  0.00    -0.078 N 
ATOM      9  H13 UNL     1      15.299  -4.887  59.262  1.00  0.00     0.274 HD
ATOM     10  H12 UNL     1      14.054  -4.379  58.483  1.00  0.00     0.274 HD
ATOM     11  H11 UNL     1      14.425  -6.015  58.374  1.00  0.00     0.274 HD
ENDBRANCH   7   8
ENDBRANCH   6   7
ENDBRANCH   3   6
ENDBRANCH   2   3
ENDBRANCH   1   2
BRANCH   1  12
HETATM   12  N3  UNL     1      18.373  -2.066  59.588  1.00  0.00    -0.388 N 
ATOM     13  H3  UNL     1      18.965  -2.747  60.064  1.00  0.00     0.159 HD
BRANCH  12  14
HETATM   14  C5  UNL     1      17.450  -1.739  60.348  1.00  0.00     0.032 A 
HETATM   15  C6  UNL     1      17.737  -0.920  61.466  1.00  0.00     0.046 A 
HETATM   16  C7  UNL     1      16.775  -0.520  62.350  1.00  0.00     0.091 A 
HETATM   17  N4  UNL     1      15.496  -0.897  62.190  1.00  0.00    -0.354 N 
HETATM   18  C8  UNL     1      15.165  -1.675  61.148  1.00  0.00     0.118 A 
ATOM     19  H4  UNL     1      14.783  -0.594  62.854  1.00  0.00     0.166 HD
HETATM   20  N5  UNL     1      13.797  -2.049  61.031  1.00  0.00    -0.083 NA
HETATM   21  C9  UNL     1      16.126  -2.100  60.225  1.00  0.00     0.074 A 
ENDBRANCH  12  14
ENDBRANCH   1  12
TORSDOF 7
ENDMDL
MODEL 2
REMARK VINA RESULT: -5.496169722      1.812      4.640
REMARK  7 active torsions:
REMARK  status: ('A' for Active; 'I' for Inactive)
REMARK    1  A    between atoms: N1_1  and  C1_5 
REMARK    2  A    between atoms: C1_5  and  C2_6 
REMARK    3  A    between atoms: C2_6  and  N2_7 
REMARK    4  A    between atoms: N2_7  and  C3_10 
REMARK    5  A    between atoms: C3_10  and  C4_11 
REMARK    6  A    between atoms: C4_11  and  N3_12 
REMARK    7  A    between atoms: N3_12  and  C5_14 
ROOT
HETATM    1  C4  UNL     1      18.778  -2.035  59.876  1.00  0.00     0.147 C 
ENDROOT
BRANCH   1   2
HETATM    2  C3  UNL     1      19.511  -1.758  61.199  1.00  0.00     0.251 C 
BRANCH   2   3
HETATM    3  N2  UNL     1      18.818  -0.897  62.087  1.00  0.00    -0.072 N 
ATOM      4  H22 UNL     1      17.902  -0.650  61.712  1.00  0.00     0.277 HD
ATOM      5  H21 UNL     1      19.246   0.028  62.104  1.00  0.00     0.277 HD
BRANCH   3   6
HETATM    6  C2  UNL     1      18.701  -1.431  63.410  1.00  0.00     0.259 C 
BRANCH   6   7
HETATM    7  C1  UNL     1      17.266  -1.375  63.866  1.00  0.00     0.257 C 
BRANCH   7   8
HETATM    8  N1  UNL     1      16.434  -0.577  62.998  1.00  0.00    -0.078 N 
ATOM      9  H13 UNL     1      16.278   0.351  63.393  1.00  0.00     0.274 HD
ATOM     10  H12 UNL     1      16.937  -0.313  62.151  1.00  0.00     0.274 HD
ATOM     11  H11 UNL     1      15.549  -1.030  62.772  1.00  0.00     0.274 HD
ENDBRANCH   7   8
ENDBRANCH   6   7
ENDBRANCH   3   6
ENDBRANCH   2   3
ENDBRANCH   1   2
BRANCH   1  12
HETATM   12  N3  UNL     1      17.468  -2.343  60.174  1.00  0.00    -0.388 N 
ATOM     13  H3  UNL     1      17.151  -1.738  60.931  1.00  0.00     0.159 HD
BRANCH  12  14
HETATM   14  C5  UNL     1      16.537  -3.094  59.847  1.00  0.00     0.032 A 
HETATM   15  C6  UNL     1      16.682  -3.907  58.697  1.00  0.00     0.046 A 
HETATM   16  C7  UNL     1      15.701  -4.757  58.272  1.00  0.00     0.091 A 
HETATM   17  N4  UNL     1      14.539  -4.856  58.939  1.00  0.00    -0.354 N 
HETATM   18  C8  UNL     1      14.347  -4.108  60.037  1.00  0.00     0.118 A 
ATOM     19  H4  UNL     1      13.812  -5.493  58.615  1.00  0.00     0.166 HD
HETATM   20  N5  UNL     1      13.095  -4.248  60.701  1.00  0.00    -0.083 NA
HETATM   21  C9  UNL     1      15.330  -3.229  60.499  1.00  0.00     0.074 A 
ENDBRANCH  12  14
ENDBRANCH   1  12
TORSDOF 7
ENDMDL
MODEL 3
REMARK VINA RESULT: -5.432811294      1.922      3.303
REMARK  7 active torsions:
REMARK  status: ('A' for Active; 'I' for Inactive)
REMARK    1  A    between atoms: N1_1  and  C1_5 
REMARK    2  A    between atoms: C1_5  and  C2_6 
REMARK    3  A    between atoms: C2_6  and  N2_7 
REMARK    4  A    between atoms: N2_7  and  C3_10 
REMARK    5  A    between atoms: C3_10  and  C4_11 
REMARK    6  A    between atoms: C4_11  and  N3_12 
REMARK    7  A    between atoms: N3_12  and  C5_14 
ROOT
HETATM    1  C4  UNL     1      19.387  -1.997  59.039  1.00  0.00     0.147 C 
ENDROOT
BRANCH   1   2
HETATM    2  C3  UNL     1      19.171  -2.504  57.603  1.00  0.00     0.251 C 
BRANCH   2   3
HETATM    3  N2  UNL     1      19.537  -1.581  56.592  1.00  0.00    -0.072 N 
ATOM      4  H22 UNL     1      18.719  -1.083  56.240  1.00  0.00     0.277 HD
ATOM      5  H21 UNL     1      19.817  -2.066  55.740  1.00  0.00     0.277 HD
BRANCH   3   6
HETATM    6  C2  UNL     1      20.553  -0.662  57.012  1.00  0.00     0.259 C 
BRANCH   6   7
HETATM    7  C1  UNL     1      20.302   0.697  56.410  1.00  0.00     0.257 C 
BRANCH   7   8
HETATM    8  N1  UNL     1      19.182   1.379  57.014  1.00  0.00    -0.078 N 
ATOM      9  H13 UNL     1      18.363   0.773  57.053  1.00  0.00     0.274 HD
ATOM     10  H12 UNL     1      19.334   1.516  58.013  1.00  0.00     0.274 HD
ATOM     11  H11 UNL     1      18.961   2.262  56.553  1.00  0.00     0.274 HD
ENDBRANCH   7   8
ENDBRANCH   6   7
ENDBRANCH   3   6
ENDBRANCH   2   3
ENDBRANCH   1   2
BRANCH   1  12
HETATM   12  N3  UNL     1      18.305  -2.391  59.795  1.00  0.00    -0.388 N 
ATOM     13  H3  UNL     1      18.254  -3.410  59.793  1.00  0.00     0.159 HD
BRANCH  12  14
HETATM   14  C5  UNL     1      17.370  -1.946  60.478  1.00  0.00     0.032 A 
HETATM   15  C6  UNL     1      17.652  -1.014  61.505  1.00  0.00     0.046 A 
HETATM   16  C7  UNL     1      16.678  -0.481  62.301  1.00  0.00     0.091 A 
HETATM   17  N4  UNL     1      15.391  -0.828  62.137  1.00  0.00    -0.354 N 
HETATM   18  C8  UNL     1      15.064  -1.709  61.178  1.00  0.00     0.118 A 
ATOM     19  H4  UNL     1      14.669  -0.426  62.735  1.00  0.00     0.166 HD
HETATM   20  N5  UNL     1      13.687  -2.045  61.053  1.00  0.00    -0.083 NA
HETATM   21  C9  UNL     1      16.037  -2.272  60.347  1.00  0.00     0.074 A 
ENDBRANCH  12  14
ENDBRANCH   1  12
TORSDOF 7
ENDMDL
MODEL 4
REMARK VINA RESULT: -5.421027155      1.896      4.817
REMARK  7 active torsions:
REMARK  status: ('A' for Active; 'I' for Inactive)
REMARK    1  A    between atoms: N1_1  and  C1_5 
REMARK    2  A    between atoms: C1_5  and  C2_6 
REMARK    3  A    between atoms: C2_6  and  N2_7 
REMARK    4  A    between atoms: N2_7  and  C3_10 
REMARK    5  A    between atoms: C3_10  and  C4_11 
REMARK    6  A    between atoms: C4_11  and  N3_12 
REMARK    7  A    between atoms: N3_12  and  C5_14 
ROOT
HETATM    1  C4  UNL     1      18.681  -2.053  59.909  1.00  0.00     0.147 C 
ENDROOT
BRANCH   1   2
HETATM    2  C3  UNL     1      19.398  -1.836  61.253  1.00  0.00     0.251 C 
BRANCH   2   3
HETATM    3  N2  UNL     1      18.773  -0.894  62.107  1.00  0.00    -0.072 N 
ATOM      4  H22 UNL     1      17.898  -0.561  61.702  1.00  0.00     0.277 HD
ATOM      5  H21 UNL     1      19.293  -0.017  62.125  1.00  0.00     0.277 HD
BRANCH   3   6
HETATM    6  C2  UNL     1      18.565  -1.391  63.434  1.00  0.00     0.259 C 
BRANCH   6   7
HETATM    7  C1  UNL     1      17.112  -1.263  63.813  1.00  0.00     0.257 C 
BRANCH   7   8
HETATM    8  N1  UNL     1      16.345  -0.515  62.846  1.00  0.00    -0.078 N 
ATOM      9  H13 UNL     1      15.911   0.301  63.276  1.00  0.00     0.274 HD
ATOM     10  H12 UNL     1      16.957  -0.045  62.179  1.00  0.00     0.274 HD
ATOM     11  H11 UNL     1      15.650  -1.086  62.364  1.00  0.00     0.274 HD
ENDBRANCH   7   8
ENDBRANCH   6   7
ENDBRANCH   3   6
ENDBRANCH   2   3
ENDBRANCH   1   2
BRANCH   1  12
HETATM   12  N3  UNL     1      17.389  -2.452  60.178  1.00  0.00    -0.388 N 
ATOM     13  H3  UNL     1      17.044  -1.930  60.983  1.00  0.00     0.159 HD
BRANCH  12  14
HETATM   14  C5  UNL     1      16.498  -3.220  59.787  1.00  0.00     0.032 A 
HETATM   15  C6  UNL     1      15.288  -3.295  60.516  1.00  0.00     0.046 A 
HETATM   16  C7  UNL     1      14.261  -4.119  60.151  1.00  0.00     0.091 A 
HETATM   17  N4  UNL     1      14.362  -4.905  59.067  1.00  0.00    -0.354 N 
HETATM   18  C8  UNL     1      15.489  -4.876  58.337  1.00  0.00     0.118 A 
ATOM     19  H4  UNL     1      13.592  -5.517  58.800  1.00  0.00     0.166 HD
HETATM   20  N5  UNL     1      15.545  -5.734  57.203  1.00  0.00    -0.083 NA
HETATM   21  C9  UNL     1      16.557  -4.044  58.684  1.00  0.00     0.074 A 
ENDBRANCH  12  14
ENDBRANCH   1  12
TORSDOF 7
ENDMDL
MODEL 5
REMARK VINA RESULT: -5.372544777      1.834      4.763
REMARK  7 active torsions:
REMARK  status: ('A' for Active; 'I' for Inactive)
REMARK    1  A    between atoms: N1_1  and  C1_5 
REMARK    2  A    between atoms: C1_5  and  C2_6 
REMARK    3  A    between atoms: C2_6  and  N2_7 
REMARK    4  A    between atoms: N2_7  and  C3_10 
REMARK    5  A    between atoms: C3_10  and  C4_11 
REMARK    6  A    between atoms: C4_11  and  N3_12 
REMARK    7  A    between atoms: N3_12  and  C5_14 
ROOT
HETATM    1  C4  UNL     1      18.339  -1.634  59.959  1.00  0.00     0.147 C 
ENDROOT
BRANCH   1   2
HETATM    2  C3  UNL     1      19.240  -2.054  61.133  1.00  0.00     0.251 C 
BRANCH   2   3
HETATM    3  N2  UNL     1      18.584  -2.106  62.388  1.00  0.00    -0.072 N 
ATOM      4  H22 UNL     1      19.261  -2.122  63.151  1.00  0.00     0.277 HD
ATOM      5  H21 UNL     1      18.147  -3.016  62.533  1.00  0.00     0.277 HD
BRANCH   3   6
HETATM    6  C2  UNL     1      17.634  -1.050  62.569  1.00  0.00     0.259 C 
BRANCH   6   7
HETATM    7  C1  UNL     1      16.952  -1.191  63.906  1.00  0.00     0.257 C 
BRANCH   7   8
HETATM    8  N1  UNL     1      17.198  -2.471  64.527  1.00  0.00    -0.078 N 
ATOM      9  H13 UNL     1      16.713  -3.218  64.029  1.00  0.00     0.274 HD
ATOM     10  H12 UNL     1      18.161  -2.771  64.377  1.00  0.00     0.274 HD
ATOM     11  H11 UNL     1      16.962  -2.481  65.519  1.00  0.00     0.274 HD
ENDBRANCH   7   8
ENDBRANCH   6   7
ENDBRANCH   3   6
ENDBRANCH   2   3
ENDBRANCH   1   2
BRANCH   1  12
HETATM   12  N3  UNL     1      17.882  -2.780  59.344  1.00  0.00    -0.388 N 
ATOM     13  H3  UNL     1      18.669  -3.249  58.896  1.00  0.00     0.159 HD
BRANCH  12  14
HETATM   14  C5  UNL     1      16.854  -3.442  59.141  1.00  0.00     0.032 A 
HETATM   15  C6  UNL     1      16.763  -4.229  57.969  1.00  0.00     0.046 A 
HETATM   16  C7  UNL     1      15.663  -4.983  57.674  1.00  0.00     0.091 A 
HETATM   17  N4  UNL     1      14.604  -5.006  58.500  1.00  0.00    -0.354 N 
HETATM   18  C8  UNL     1      14.634  -4.278  59.627  1.00  0.00     0.118 A 
ATOM     19  H4  UNL     1      13.786  -5.571  58.273  1.00  0.00     0.166 HD
HETATM   20  N5  UNL     1      13.483  -4.335  60.462  1.00  0.00    -0.083 NA
HETATM   21  C9  UNL     1      15.745  -3.497  59.958  1.00  0.00     0.074 A 
ENDBRANCH  12  14
ENDBRANCH   1  12
TORSDOF 7
ENDMDL
