MODEL 1
REMARK VINA RESULT: -5.711781637      0.000      0.000
REMARK  7 active torsions:
REMARK  status: ('A' for Active; 'I' for Inactive)
REMARK    1  A    between atoms: C2_2  and  N1_3 
REMARK    2  A    between atoms: N1_3  and  N2_4 
REMARK    3  A    between atoms: N1_3  and  C3_7 
REMARK    4  A    between atoms: C3_7  and  C4_8 
REMARK    5  A    between atoms: C4_8  and  N3_9 
REMARK    6  A    between atoms: N3_9  and  C5_11 
REMARK    7  A    between atoms: C8_16  and  N5_17 
ROOT
HETATM    1  C5  UNL     1      16.795  -3.388  59.312  1.00  0.00     0.118 A 
HETATM    2  C6  UNL     1      16.880  -4.095  58.126  1.00  0.00     0.066 A 
HETATM    3  C7  UNL     1      15.844  -4.883  57.719  1.00  0.00     0.110 A 
HETATM    4  N4  UNL     1      14.707  -5.022  58.420  1.00  0.00    -0.202 N 
ATOM      5  H4  UNL     1      13.946  -5.617  58.093  1.00  0.00     0.183 HD
HETATM    6  C8  UNL     1      14.620  -4.324  59.596  1.00  0.00     0.677 A 
HETATM    7  N6  UNL     1      15.636  -3.550  59.995  1.00  0.00    -0.177 N 
ATOM      8  H6  UNL     1      15.531  -3.046  60.875  1.00  0.00     0.185 HD
ENDROOT
BRANCH   1   9
HETATM    9  N3  UNL     1      17.735  -2.621  59.755  1.00  0.00    -0.371 N 
ATOM     10  H3  UNL     1      18.667  -3.005  59.914  1.00  0.00     0.161 HD
BRANCH   9  11
HETATM   11  C4  UNL     1      17.479  -1.221  60.028  1.00  0.00     0.167 C 
BRANCH  11  12
HETATM   12  C3  UNL     1      17.810  -0.869  61.447  1.00  0.00     0.102 C 
BRANCH  12  13
HETATM   13  N1  UNL     1      16.758  -0.705  62.338  1.00  0.00    -0.312 N 
BRANCH  13  14
HETATM   14  C2  UNL     1      16.748  -1.522  63.500  1.00  0.00     0.143 C 
HETATM   15  C1  UNL     1      17.872  -1.254  64.453  1.00  0.00     0.028 C 
ENDBRANCH  13  14
BRANCH  13  16
HETATM   16  N2  UNL     1      15.584  -0.172  61.932  1.00  0.00    -0.344 N 
ATOM     17  H22 UNL     1      14.737  -0.740  61.897  1.00  0.00     0.177 HD
ATOM     18  H21 UNL     1      15.471   0.839  62.002  1.00  0.00     0.177 HD
ENDBRANCH  13  16
ENDBRANCH  12  13
ENDBRANCH  11  12
ENDBRANCH   9  11
ENDBRANCH   1   9
BRANCH   6  19
HETATM   19  N5  UNL     1      13.528  -4.456  60.273  1.00  0.00    -0.234 N 
ATOM     20  H52 UNL     1      12.648  -4.019  59.998  1.00  0.00     0.174 HD
ATOM     21  H51 UNL     1      13.575  -5.028  61.116  1.00  0.00     0.174 HD
ENDBRANCH   6  19
TORSDOF 7
ENDMDL
MODEL 2
REMARK VINA RESULT: -5.686673956      0.832      1.657
REMARK  7 active torsions:
REMARK  status: ('A' for Active; 'I' for Inactive)
REMARK    1  A    between atoms: C2_2  and  N1_3 
REMARK    2  A    between atoms: N1_3  and  N2_4 
REMARK    3  A    between atoms: N1_3  and  C3_7 
REMARK    4  A    between atoms: C3_7  and  C4_8 
REMARK    5  A    between atoms: C4_8  and  N3_9 
REMARK    6  A    between atoms: N3_9  and  C5_11 
REMARK    7  A    between atoms: C8_16  and  N5_17 
ROOT
HETATM    1  C5  UNL     1      16.566  -3.335  59.721  1.00  0.00     0.118 A 
HETATM    2  C6  UNL     1      15.411  -3.370  60.482  1.00  0.00     0.066 A 
HETATM    3  C7  UNL     1      14.357  -4.144  60.096  1.00  0.00     0.110 A 
HETATM    4  N4  UNL     1      14.368  -4.901  58.987  1.00  0.00    -0.202 N 
ATOM      5  H4  UNL     1      13.566  -5.472  58.721  1.00  0.00     0.183 HD
HETATM    6  C8  UNL     1      15.509  -4.868  58.230  1.00  0.00     0.677 A 
HETATM    7  N6  UNL     1      16.545  -4.109  58.609  1.00  0.00    -0.177 N 
ATOM      8  H6  UNL     1      17.376  -4.113  58.019  1.00  0.00     0.185 HD
ENDROOT
BRANCH   1   9
HETATM    9  N3  UNL     1      17.602  -2.629  60.029  1.00  0.00    -0.371 N 
ATOM     10  H3  UNL     1      18.489  -3.093  60.227  1.00  0.00     0.161 HD
BRANCH   9  11
HETATM   11  C4  UNL     1      17.519  -1.183  60.095  1.00  0.00     0.167 C 
BRANCH  11  12
HETATM   12  C3  UNL     1      17.799  -0.680  61.479  1.00  0.00     0.102 C 
BRANCH  12  13
HETATM   13  N1  UNL     1      16.733  -0.582  62.363  1.00  0.00    -0.312 N 
BRANCH  13  14
HETATM   14  C2  UNL     1      16.746  -1.427  63.504  1.00  0.00     0.143 C 
HETATM   15  C1  UNL     1      17.962  -1.282  64.366  1.00  0.00     0.028 C 
ENDBRANCH  13  14
BRANCH  13  16
HETATM   16  N2  UNL     1      15.542  -0.087  61.958  1.00  0.00    -0.344 N 
ATOM     17  H22 UNL     1      14.801   0.107  62.632  1.00  0.00     0.177 HD
ATOM     18  H21 UNL     1      15.511   0.408  61.068  1.00  0.00     0.177 HD
ENDBRANCH  13  16
ENDBRANCH  12  13
ENDBRANCH  11  12
ENDBRANCH   9  11
ENDBRANCH   1   9
BRANCH   6  19
HETATM   19  N5  UNL     1      15.523  -5.594  57.163  1.00  0.00    -0.234 N 
ATOM     20  H52 UNL     1      15.845  -6.561  57.153  1.00  0.00     0.174 HD
ATOM     21  H51 UNL     1      15.190  -5.156  56.304  1.00  0.00     0.174 HD
ENDBRANCH   6  19
TORSDOF 7
ENDMDL
MODEL 3
REMARK VINA RESULT: -5.443306738      1.640      2.474
REMARK  7 active torsions:
REMARK  status: ('A' for Active; 'I' for Inactive)
REMARK    1  A    between atoms: C2_2  and  N1_3 
REMARK    2  A    between atoms: N1_3  and  N2_4 
REMARK    3  A    between atoms: N1_3  and  C3_7 
REMARK    4  A    between atoms: C3_7  and  C4_8 
REMARK    5  A    between atoms: C4_8  and  N3_9 
REMARK    6  A    between atoms: N3_9  and  C5_11 
REMARK    7  A    between atoms: C8_16  and  N5_17 
ROOT
HETATM    1  C5  UNL     1      15.371  -2.175  60.873  1.00  0.00     0.118 A 
HETATM    2  C6  UNL     1      16.485  -2.394  60.083  1.00  0.00     0.066 A 
HETATM    3  C7  UNL     1      16.548  -3.487  59.271  1.00  0.00     0.110 A 
HETATM    4  N4  UNL     1      15.563  -4.397  59.186  1.00  0.00    -0.202 N 
ATOM      5  H4  UNL     1      15.635  -5.206  58.569  1.00  0.00     0.183 HD
HETATM    6  C8  UNL     1      14.459  -4.184  59.967  1.00  0.00     0.677 A 
HETATM    7  N6  UNL     1      14.397  -3.110  60.764  1.00  0.00    -0.177 N 
ATOM      8  H6  UNL     1      13.557  -2.987  61.329  1.00  0.00     0.185 HD
ENDROOT
BRANCH   1   9
HETATM    9  N3  UNL     1      15.243  -1.159  61.662  1.00  0.00    -0.371 N 
ATOM     10  H3  UNL     1      14.311  -0.852  61.942  1.00  0.00     0.161 HD
BRANCH   9  11
HETATM   11  C4  UNL     1      16.409  -0.452  62.151  1.00  0.00     0.167 C 
BRANCH  11  12
HETATM   12  C3  UNL     1      16.965  -1.098  63.385  1.00  0.00     0.102 C 
BRANCH  12  13
HETATM   13  N1  UNL     1      18.162  -1.793  63.271  1.00  0.00    -0.312 N 
BRANCH  13  14
HETATM   14  C2  UNL     1      19.310  -1.063  62.864  1.00  0.00     0.143 C 
HETATM   15  C1  UNL     1      19.898  -1.512  61.562  1.00  0.00     0.028 C 
ENDBRANCH  13  14
BRANCH  13  16
HETATM   16  N2  UNL     1      18.169  -3.133  63.089  1.00  0.00    -0.344 N 
ATOM     17  H22 UNL     1      18.911  -3.583  62.554  1.00  0.00     0.177 HD
ATOM     18  H21 UNL     1      17.655  -3.706  63.757  1.00  0.00     0.177 HD
ENDBRANCH  13  16
ENDBRANCH  12  13
ENDBRANCH  11  12
ENDBRANCH   9  11
ENDBRANCH   1   9
BRANCH   6  19
HETATM   19  N5  UNL     1      13.511  -5.056  59.888  1.00  0.00    -0.234 N 
ATOM     20  H52 UNL     1      13.663  -6.055  60.027  1.00  0.00     0.174 HD
ATOM     21  H51 UNL     1      12.578  -4.705  59.676  1.00  0.00     0.174 HD
ENDBRANCH   6  19
TORSDOF 7
ENDMDL
MODEL 4
REMARK VINA RESULT: -5.401646773      1.175      1.928
REMARK  7 active torsions:
REMARK  status: ('A' for Active; 'I' for Inactive)
REMARK    1  A    between atoms: C2_2  and  N1_3 
REMARK    2  A    between atoms: N1_3  and  N2_4 
REMARK    3  A    between atoms: N1_3  and  C3_7 
REMARK    4  A    between atoms: C3_7  and  C4_8 
REMARK    5  A    between atoms: C4_8  and  N3_9 
REMARK    6  A    between atoms: N3_9  and  C5_11 
REMARK    7  A    between atoms: C8_16  and  N5_17 
ROOT
HETATM    1  C5  UNL     1      16.814  -3.497  59.258  1.00  0.00     0.118 A 
HETATM    2  C6  UNL     1      16.883  -4.162  58.047  1.00  0.00     0.066 A 
HETATM    3  C7  UNL     1      15.833  -4.916  57.615  1.00  0.00     0.110 A 
HETATM    4  N4  UNL     1      14.694  -5.059  58.313  1.00  0.00    -0.202 N 
ATOM      5  H4  UNL     1      13.922  -5.628  57.967  1.00  0.00     0.183 HD
HETATM    6  C8  UNL     1      14.622  -4.402  59.513  1.00  0.00     0.677 A 
HETATM    7  N6  UNL     1      15.653  -3.662  59.937  1.00  0.00    -0.177 N 
ATOM      8  H6  UNL     1      15.559  -3.188  60.835  1.00  0.00     0.185 HD
ENDROOT
BRANCH   1   9
HETATM    9  N3  UNL     1      17.769  -2.764  59.726  1.00  0.00    -0.371 N 
ATOM     10  H3  UNL     1      18.484  -2.403  59.094  1.00  0.00     0.161 HD
BRANCH   9  11
HETATM   11  C4  UNL     1      17.835  -2.451  61.140  1.00  0.00     0.167 C 
BRANCH  11  12
HETATM   12  C3  UNL     1      17.741  -0.974  61.379  1.00  0.00     0.102 C 
BRANCH  12  13
HETATM   13  N1  UNL     1      16.567  -0.329  61.012  1.00  0.00    -0.312 N 
BRANCH  13  14
HETATM   14  C2  UNL     1      16.626   0.564  59.910  1.00  0.00     0.143 C 
HETATM   15  C1  UNL     1      18.010   0.841  59.412  1.00  0.00     0.028 C 
ENDBRANCH  13  14
BRANCH  13  16
HETATM   16  N2  UNL     1      15.557  -0.174  61.897  1.00  0.00    -0.344 N 
ATOM     17  H22 UNL     1      14.810  -0.866  61.963  1.00  0.00     0.177 HD
ATOM     18  H21 UNL     1      15.723   0.420  62.709  1.00  0.00     0.177 HD
ENDBRANCH  13  16
ENDBRANCH  12  13
ENDBRANCH  11  12
ENDBRANCH   9  11
ENDBRANCH   1   9
BRANCH   6  19
HETATM   19  N5  UNL     1      13.529  -4.537  60.187  1.00  0.00    -0.234 N 
ATOM     20  H52 UNL     1      13.330  -4.006  61.035  1.00  0.00     0.174 HD
ATOM     21  H51 UNL     1      12.851  -5.213  59.834  1.00  0.00     0.174 HD
ENDBRANCH   6  19
TORSDOF 7
ENDMDL
MODEL 5
REMARK VINA RESULT: -5.325992557      1.582      5.727
REMARK  7 active torsions:
REMARK  status: ('A' for Active; 'I' for Inactive)
REMARK    1  A    between atoms: C2_2  and  N1_3 
REMARK    2  A    between atoms: N1_3  and  N2_4 
REMARK    3  A    between atoms: N1_3  and  C3_7 
REMARK    4  A    between atoms: C3_7  and  C4_8 
REMARK    5  A    between atoms: C4_8  and  N3_9 
REMARK    6  A    between atoms: N3_9  and  C5_11 
REMARK    7  A    between atoms: C8_16  and  N5_17 
ROOT
HETATM    1  C5  UNL     1      16.986  -2.637  61.194  1.00  0.00     0.118 A 
HETATM    2  C6  UNL     1      16.515  -1.368  60.909  1.00  0.00     0.066 A 
HETATM    3  C7  UNL     1      16.305  -0.471  61.915  1.00  0.00     0.110 A 
HETATM    4  N4  UNL     1      16.535  -0.750  63.208  1.00  0.00    -0.202 N 
ATOM      5  H4  UNL     1      16.371  -0.060  63.942  1.00  0.00     0.183 HD
HETATM    6  C8  UNL     1      17.001  -2.006  63.494  1.00  0.00     0.677 A 
HETATM    7  N6  UNL     1      17.208  -2.886  62.507  1.00  0.00    -0.177 N 
ATOM      8  H6  UNL     1      17.557  -3.810  62.761  1.00  0.00     0.185 HD
ENDROOT
BRANCH   1   9
HETATM    9  N3  UNL     1      17.211  -3.534  60.292  1.00  0.00    -0.371 N 
ATOM     10  H3  UNL     1      17.549  -4.455  60.570  1.00  0.00     0.161 HD
BRANCH   9  11
HETATM   11  C4  UNL     1      16.988  -3.244  58.889  1.00  0.00     0.167 C 
BRANCH  11  12
HETATM   12  C3  UNL     1      16.889  -4.501  58.078  1.00  0.00     0.102 C 
BRANCH  12  13
HETATM   13  N1  UNL     1      15.633  -4.887  57.629  1.00  0.00    -0.312 N 
BRANCH  13  14
HETATM   14  C2  UNL     1      15.315  -4.633  56.268  1.00  0.00     0.143 C 
HETATM   15  C1  UNL     1      14.967  -5.856  55.477  1.00  0.00     0.028 C 
ENDBRANCH  13  14
BRANCH  13  16
HETATM   16  N2  UNL     1      14.608  -5.051  58.496  1.00  0.00    -0.344 N 
ATOM     17  H22 UNL     1      14.403  -4.343  59.201  1.00  0.00     0.177 HD
ATOM     18  H21 UNL     1      13.854  -5.682  58.227  1.00  0.00     0.177 HD
ENDBRANCH  13  16
ENDBRANCH  12  13
ENDBRANCH  11  12
ENDBRANCH   9  11
ENDBRANCH   1   9
BRANCH   6  19
HETATM   19  N5  UNL     1      17.223  -2.277  64.736  1.00  0.00    -0.234 N 
ATOM     20  H52 UNL     1      18.143  -2.536  65.092  1.00  0.00     0.174 HD
ATOM     21  H51 UNL     1      16.425  -2.222  65.369  1.00  0.00     0.174 HD
ENDBRANCH   6  19
TORSDOF 7
ENDMDL
