MODEL 1
REMARK VINA RESULT: -5.276745028      0.000      0.000
REMARK  6 active torsions:
REMARK  status: ('A' for Active; 'I' for Inactive)
REMARK    1  A    between atoms: C2_2  and  N1_4 
REMARK    2  A    between atoms: N1_4  and  C4_6 
REMARK    3  A    between atoms: C4_6  and  C5_7 
REMARK    4  A    between atoms: C5_7  and  C6_8 
REMARK    5  A    between atoms: C6_8  and  N2_9 
REMARK    6  A    between atoms: N2_9  and  C7_12 
ROOT
HETATM    1  N2  UNL     1      14.306  -4.982  59.465  1.00  0.00    -0.021 N 
ATOM      2  H21 UNL     1      13.476  -5.496  59.173  1.00  0.00     0.281 HD
ATOM      3  H22 UNL     1      14.787  -5.726  59.971  1.00  0.00     0.281 HD
ENDROOT
BRANCH   1   4
HETATM    4  C6  UNL     1      13.969  -3.903  60.330  1.00  0.00     0.242 C 
BRANCH   4   5
HETATM    5  C5  UNL     1      15.182  -3.173  60.876  1.00  0.00     0.072 C 
BRANCH   5   6
HETATM    6  C4  UNL     1      15.072  -1.700  60.794  1.00  0.00     0.057 C 
BRANCH   6   7
HETATM    7  N1  UNL     1      15.234  -0.924  61.944  1.00  0.00    -0.398 N 
ATOM      8  H1  UNL     1      14.402  -0.587  62.429  1.00  0.00     0.159 HD
BRANCH   7   9
HETATM    9  C2  UNL     1      16.493  -0.590  62.456  1.00  0.00     0.072 C 
HETATM   10  C1  UNL     1      16.971  -1.291  63.682  1.00  0.00     0.031 C 
HETATM   11  C3  UNL     1      17.619  -0.701  61.433  1.00  0.00     0.031 C 
ENDBRANCH   7   9
ENDBRANCH   6   7
ENDBRANCH   5   6
ENDBRANCH   4   5
ENDBRANCH   1   4
BRANCH   1  12
HETATM   12  C7  UNL     1      15.072  -4.541  58.332  1.00  0.00     0.580 C 
HETATM   13  N3  UNL     1      14.624  -4.965  57.054  1.00  0.00    -0.020 N 
HETATM   14  C8  UNL     1      15.751  -4.746  56.167  1.00  0.00     0.264 C 
ATOM     15  H32 UNL     1      14.264  -5.919  57.039  1.00  0.00     0.281 HD
ATOM     16  H31 UNL     1      13.763  -4.511  56.747  1.00  0.00     0.281 HD
HETATM   17  C9  UNL     1      16.947  -4.842  57.069  1.00  0.00     0.264 C 
HETATM   18  N4  UNL     1      16.473  -4.924  58.433  1.00  0.00    -0.020 N 
ATOM     19  H42 UNL     1      17.013  -4.375  59.101  1.00  0.00     0.281 HD
ATOM     20  H41 UNL     1      16.632  -5.826  58.882  1.00  0.00     0.281 HD
ENDBRANCH   1  12
TORSDOF 6
ENDMDL
MODEL 2
REMARK VINA RESULT: -5.220509385      4.031      4.909
REMARK  6 active torsions:
REMARK  status: ('A' for Active; 'I' for Inactive)
REMARK    1  A    between atoms: C2_2  and  N1_4 
REMARK    2  A    between atoms: N1_4  and  C4_6 
REMARK    3  A    between atoms: C4_6  and  C5_7 
REMARK    4  A    between atoms: C5_7  and  C6_8 
REMARK    5  A    between atoms: C6_8  and  N2_9 
REMARK    6  A    between atoms: N2_9  and  C7_12 
ROOT
HETATM    1  N2  UNL     1      17.746   1.150  59.027  1.00  0.00    -0.021 N 
ATOM      2  H21 UNL     1      17.777   2.107  59.376  1.00  0.00     0.281 HD
ATOM      3  H22 UNL     1      16.952   1.235  58.393  1.00  0.00     0.281 HD
ENDROOT
BRANCH   1   4
HETATM    4  C6  UNL     1      17.476   0.225  60.075  1.00  0.00     0.242 C 
BRANCH   4   5
HETATM    5  C5  UNL     1      16.002   0.132  60.424  1.00  0.00     0.072 C 
BRANCH   5   6
HETATM    6  C4  UNL     1      15.704  -0.871  61.470  1.00  0.00     0.057 C 
BRANCH   6   7
HETATM    7  N1  UNL     1      16.196  -0.696  62.765  1.00  0.00    -0.398 N 
ATOM      8  H1  UNL     1      16.098   0.218  63.207  1.00  0.00     0.159 HD
BRANCH   7   9
HETATM    9  C2  UNL     1      16.818  -1.725  63.480  1.00  0.00     0.072 C 
HETATM   10  C1  UNL     1      17.329  -2.907  62.728  1.00  0.00     0.031 C 
HETATM   11  C3  UNL     1      17.969  -1.250  64.362  1.00  0.00     0.031 C 
ENDBRANCH   7   9
ENDBRANCH   6   7
ENDBRANCH   5   6
ENDBRANCH   4   5
ENDBRANCH   1   4
BRANCH   1  12
HETATM   12  C7  UNL     1      18.949   0.815  58.314  1.00  0.00     0.580 C 
HETATM   13  N3  UNL     1      19.110   1.391  57.028  1.00  0.00    -0.020 N 
HETATM   14  C8  UNL     1      20.145   0.601  56.388  1.00  0.00     0.264 C 
ATOM     15  H32 UNL     1      18.245   1.451  56.491  1.00  0.00     0.281 HD
ATOM     16  H31 UNL     1      19.306   2.392  57.045  1.00  0.00     0.281 HD
HETATM   17  C9  UNL     1      20.045  -0.739  57.057  1.00  0.00     0.264 C 
HETATM   18  N4  UNL     1      19.110  -0.622  58.153  1.00  0.00    -0.020 N 
ATOM     19  H42 UNL     1      19.392  -1.113  59.002  1.00  0.00     0.281 HD
ATOM     20  H41 UNL     1      18.237  -1.132  58.020  1.00  0.00     0.281 HD
ENDBRANCH   1  12
TORSDOF 6
ENDMDL
MODEL 3
REMARK VINA RESULT: -5.195136528      1.210      1.714
REMARK  6 active torsions:
REMARK  status: ('A' for Active; 'I' for Inactive)
REMARK    1  A    between atoms: C2_2  and  N1_4 
REMARK    2  A    between atoms: N1_4  and  C4_6 
REMARK    3  A    between atoms: C4_6  and  C5_7 
REMARK    4  A    between atoms: C5_7  and  C6_8 
REMARK    5  A    between atoms: C6_8  and  N2_9 
REMARK    6  A    between atoms: N2_9  and  C7_12 
ROOT
HETATM    1  N2  UNL     1      16.572  -4.422  59.102  1.00  0.00    -0.021 N 
ATOM      2  H21 UNL     1      16.004  -5.036  59.686  1.00  0.00     0.281 HD
ATOM      3  H22 UNL     1      17.479  -4.870  59.231  1.00  0.00     0.281 HD
ENDROOT
BRANCH   1   4
HETATM    4  C6  UNL     1      16.577  -3.090  59.603  1.00  0.00     0.242 C 
BRANCH   4   5
HETATM    5  C5  UNL     1      15.556  -2.861  60.702  1.00  0.00     0.072 C 
BRANCH   5   6
HETATM    6  C4  UNL     1      15.360  -1.434  61.039  1.00  0.00     0.057 C 
BRANCH   6   7
HETATM    7  N1  UNL     1      15.901  -0.915  62.217  1.00  0.00    -0.398 N 
ATOM      8  H1  UNL     1      15.461  -0.100  62.642  1.00  0.00     0.159 HD
BRANCH   7   9
HETATM    9  C2  UNL     1      17.026  -1.472  62.837  1.00  0.00     0.072 C 
HETATM   10  C1  UNL     1      18.377  -1.000  62.418  1.00  0.00     0.031 C 
HETATM   11  C3  UNL     1      16.994  -1.380  64.360  1.00  0.00     0.031 C 
ENDBRANCH   7   9
ENDBRANCH   6   7
ENDBRANCH   5   6
ENDBRANCH   4   5
ENDBRANCH   1   4
BRANCH   1  12
HETATM   12  C7  UNL     1      16.154  -4.476  57.728  1.00  0.00     0.580 C 
HETATM   13  N3  UNL     1      15.365  -5.591  57.344  1.00  0.00    -0.020 N 
HETATM   14  C8  UNL     1      15.431  -5.618  55.894  1.00  0.00     0.264 C 
ATOM     15  H32 UNL     1      15.643  -6.466  57.787  1.00  0.00     0.281 HD
ATOM     16  H31 UNL     1      14.414  -5.570  57.713  1.00  0.00     0.281 HD
HETATM   17  C9  UNL     1      16.742  -4.959  55.578  1.00  0.00     0.264 C 
HETATM   18  N4  UNL     1      17.281  -4.424  56.808  1.00  0.00    -0.020 N 
ATOM     19  H42 UNL     1      17.709  -3.503  56.716  1.00  0.00     0.281 HD
ATOM     20  H41 UNL     1      18.121  -4.898  57.143  1.00  0.00     0.281 HD
ENDBRANCH   1  12
TORSDOF 6
ENDMDL
MODEL 4
REMARK VINA RESULT: -5.191815788      1.979      2.375
REMARK  6 active torsions:
REMARK  status: ('A' for Active; 'I' for Inactive)
REMARK    1  A    between atoms: C2_2  and  N1_4 
REMARK    2  A    between atoms: N1_4  and  C4_6 
REMARK    3  A    between atoms: C4_6  and  C5_7 
REMARK    4  A    between atoms: C5_7  and  C6_8 
REMARK    5  A    between atoms: C6_8  and  N2_9 
REMARK    6  A    between atoms: N2_9  and  C7_12 
ROOT
HETATM    1  N2  UNL     1      16.844  -4.517  58.599  1.00  0.00    -0.021 N 
ATOM      2  H21 UNL     1      16.952  -5.449  58.998  1.00  0.00     0.281 HD
ATOM      3  H22 UNL     1      17.827  -4.291  58.448  1.00  0.00     0.281 HD
ENDROOT
BRANCH   1   4
HETATM    4  C6  UNL     1      16.244  -3.622  59.529  1.00  0.00     0.242 C 
BRANCH   4   5
HETATM    5  C5  UNL     1      17.256  -2.884  60.386  1.00  0.00     0.072 C 
BRANCH   5   6
HETATM    6  C4  UNL     1      16.949  -2.928  61.832  1.00  0.00     0.057 C 
BRANCH   6   7
HETATM    7  N1  UNL     1      17.981  -3.089  62.759  1.00  0.00    -0.398 N 
ATOM      8  H1  UNL     1      18.376  -4.019  62.896  1.00  0.00     0.159 HD
BRANCH   7   9
HETATM    9  C2  UNL     1      18.494  -2.024  63.508  1.00  0.00     0.072 C 
HETATM   10  C1  UNL     1      19.421  -1.065  62.840  1.00  0.00     0.031 C 
HETATM   11  C3  UNL     1      17.420  -1.178  64.186  1.00  0.00     0.031 C 
ENDBRANCH   7   9
ENDBRANCH   6   7
ENDBRANCH   5   6
ENDBRANCH   4   5
ENDBRANCH   1   4
BRANCH   1  12
HETATM   12  C7  UNL     1      16.122  -4.562  57.357  1.00  0.00     0.580 C 
HETATM   13  N3  UNL     1      15.340  -5.721  57.115  1.00  0.00    -0.020 N 
HETATM   14  C8  UNL     1      15.069  -5.702  55.689  1.00  0.00     0.264 C 
ATOM     15  H32 UNL     1      15.771  -6.586  57.442  1.00  0.00     0.281 HD
ATOM     16  H31 UNL     1      14.502  -5.783  57.694  1.00  0.00     0.281 HD
HETATM   17  C9  UNL     1      16.223  -4.937  55.110  1.00  0.00     0.264 C 
HETATM   18  N4  UNL     1      16.998  -4.399  56.206  1.00  0.00    -0.020 N 
ATOM     19  H42 UNL     1      17.330  -3.446  56.060  1.00  0.00     0.281 HD
ATOM     20  H41 UNL     1      17.921  -4.818  56.316  1.00  0.00     0.281 HD
ENDBRANCH   1  12
TORSDOF 6
ENDMDL
MODEL 5
REMARK VINA RESULT: -5.147117923      1.658      2.402
REMARK  6 active torsions:
REMARK  status: ('A' for Active; 'I' for Inactive)
REMARK    1  A    between atoms: C2_2  and  N1_4 
REMARK    2  A    between atoms: N1_4  and  C4_6 
REMARK    3  A    between atoms: C4_6  and  C5_7 
REMARK    4  A    between atoms: C5_7  and  C6_8 
REMARK    5  A    between atoms: C6_8  and  N2_9 
REMARK    6  A    between atoms: N2_9  and  C7_12 
ROOT
HETATM    1  N2  UNL     1      15.783  -5.374  57.756  1.00  0.00    -0.021 N 
ATOM      2  H21 UNL     1      14.996  -5.509  58.391  1.00  0.00     0.281 HD
ATOM      3  H22 UNL     1      16.280  -6.248  57.928  1.00  0.00     0.281 HD
ENDROOT
BRANCH   1   4
HETATM    4  C6  UNL     1      16.568  -4.249  58.135  1.00  0.00     0.242 C 
BRANCH   4   5
HETATM    5  C5  UNL     1      16.188  -3.686  59.492  1.00  0.00     0.072 C 
BRANCH   5   6
HETATM    6  C4  UNL     1      17.076  -2.595  59.950  1.00  0.00     0.057 C 
BRANCH   6   7
HETATM    7  N1  UNL     1      17.254  -2.368  61.316  1.00  0.00    -0.398 N 
ATOM      8  H1  UNL     1      17.985  -2.882  61.808  1.00  0.00     0.159 HD
BRANCH   7   9
HETATM    9  C2  UNL     1      16.469  -1.461  62.037  1.00  0.00     0.072 C 
HETATM   10  C1  UNL     1      16.979  -0.961  63.346  1.00  0.00     0.031 C 
HETATM   11  C3  UNL     1      16.066  -0.228  61.235  1.00  0.00     0.031 C 
ENDBRANCH   7   9
ENDBRANCH   6   7
ENDBRANCH   5   6
ENDBRANCH   4   5
ENDBRANCH   1   4
BRANCH   1  12
HETATM   12  C7  UNL     1      15.343  -5.284  56.391  1.00  0.00     0.580 C 
HETATM   13  N3  UNL     1      15.855  -4.206  55.624  1.00  0.00    -0.020 N 
HETATM   14  C8  UNL     1      14.974  -4.108  54.475  1.00  0.00     0.264 C 
ATOM     15  H32 UNL     1      15.950  -3.335  56.148  1.00  0.00     0.281 HD
ATOM     16  H31 UNL     1      16.841  -4.303  55.381  1.00  0.00     0.281 HD
HETATM   17  C9  UNL     1      13.671  -4.667  54.968  1.00  0.00     0.264 C 
HETATM   18  N4  UNL     1      13.893  -5.223  56.284  1.00  0.00    -0.020 N 
ATOM     19  H42 UNL     1      13.419  -6.110  56.453  1.00  0.00     0.281 HD
ATOM     20  H41 UNL     1      13.436  -4.713  57.040  1.00  0.00     0.281 HD
ENDBRANCH   1  12
TORSDOF 6
ENDMDL
