MODEL 1
REMARK VINA RESULT: -8.577776802      0.000      0.000
REMARK  8 active torsions:
REMARK  status: ('A' for Active; 'I' for Inactive)
REMARK    1  A    between atoms: N1_1  and  C1_4 
REMARK    2  A    between atoms: N3_9  and  C3_10 
REMARK    3  A    between atoms: C4_14  and  C5_15 
REMARK    4  A    between atoms: C5_15  and  N5_16 
REMARK       I    between atoms: N5_16  and  C6_18 
REMARK    5  A    between atoms: C6_18  and  C7_20 
REMARK       I    between atoms: C7_20  and  N6_22 
REMARK    6  A    between atoms: C9_27  and  C10_28 
REMARK    7  A    between atoms: C13_36  and  O6_37 
REMARK    8  A    between atoms: C14_39  and  O7_40 
ROOT
HETATM    1  C3  UNL     1     161.515  47.691  17.779  1.00  0.00     0.344 C 
HETATM    2  N4  UNL     1     161.279  49.110  17.449  1.00  0.00    -0.042 N 
ATOM      3  H41 UNL     1     160.714  49.629  18.121  1.00  0.00     0.280 HD
ATOM      4  H42 UNL     1     160.656  49.280  16.659  1.00  0.00     0.280 HD
HETATM    5  C4  UNL     1     162.626  49.576  17.284  1.00  0.00     0.237 C 
HETATM    6  C13 UNL     1     163.355  48.468  16.588  1.00  0.00     0.183 C 
HETATM    7  C14 UNL     1     162.350  47.302  16.591  1.00  0.00     0.200 C 
ENDROOT
BRANCH   5   8
HETATM    8  C5  UNL     1     162.717  50.890  16.555  1.00  0.00     0.159 C 
BRANCH   8   9
HETATM    9  N5  UNL     1     162.281  50.787  15.180  1.00  0.00    -0.351 N 
HETATM   10  C6  UNL     1     162.338  51.948  14.370  1.00  0.00     0.310 C 
HETATM   11  O2  UNL     1     162.742  53.050  14.805  1.00  0.00    -0.262 OA
ATOM     12  H5  UNL     1     161.943  49.901  14.803  1.00  0.00     0.162 HD
BRANCH  10  13
HETATM   13  C7  UNL     1     161.912  51.854  12.985  1.00  0.00     0.327 C 
HETATM   14  O3  UNL     1     160.709  51.491  12.714  1.00  0.00    -0.261 OA
HETATM   15  N6  UNL     1     162.815  52.157  11.950  1.00  0.00    -0.151 N 
HETATM   16  C8  UNL     1     163.757  51.356  11.617  1.00  0.00     0.688 A 
ATOM     17  H6  UNL     1     162.717  53.041  11.450  1.00  0.00     0.188 HD
HETATM   18  N7  UNL     1     164.621  51.680  10.606  1.00  0.00    -0.186 N 
HETATM   19  N9  UNL     1     163.872  50.191  12.273  1.00  0.00    -0.156 N 
HETATM   20  C9  UNL     1     165.597  50.846  10.251  1.00  0.00     0.119 A 
ATOM     21  H7  UNL     1     164.516  52.570  10.119  1.00  0.00     0.184 HD
HETATM   22  C11 UNL     1     165.732  49.642  10.915  1.00  0.00     0.110 A 
HETATM   23  C12 UNL     1     164.849  49.331  11.934  1.00  0.00     0.261 A 
HETATM   24  O5  UNL     1     164.947  48.244  12.557  1.00  0.00    -0.268 OA
ATOM     25  H9  UNL     1     163.223  49.959  13.025  1.00  0.00     0.187 HD
BRANCH  20  26
HETATM   26  C10 UNL     1     166.507  51.199   9.164  1.00  0.00     0.282 C 
HETATM   27  N8  UNL     1     166.141  50.999   7.817  1.00  0.00    -0.056 NA
HETATM   28  O4  UNL     1     167.640  51.691   9.449  1.00  0.00    -0.269 OA
ENDBRANCH  20  26
ENDBRANCH  10  13
ENDBRANCH   8   9
ENDBRANCH   5   8
BRANCH   6  29
HETATM   29  O6  UNL     1     163.807  48.751  15.324  1.00  0.00    -0.391 OA
ATOM     30  H6  UNL     1     163.878  49.673  15.107  1.00  0.00     0.210 HD
ENDBRANCH   6  29
BRANCH   1  31
HETATM   31  N3  UNL     1     160.319  46.974  17.985  1.00  0.00    -0.095 N 
HETATM   32  C2  UNL     1     160.297  45.965  18.864  1.00  0.00     0.357 A 
HETATM   33  N2  UNL     1     159.166  45.281  19.079  1.00  0.00    -0.139 N 
HETATM   34  O1  UNL     1     161.336  45.657  19.489  1.00  0.00    -0.245 OA
HETATM   35  C1  UNL     1     158.041  45.604  18.411  1.00  0.00     0.717 A 
ATOM     36  H2  UNL     1     159.156  44.513  19.750  1.00  0.00     0.189 HD
HETATM   37  N12 UNL     1     158.055  46.632  17.514  1.00  0.00     0.107 N 
HETATM   38  C15 UNL     1     159.189  47.287  17.323  1.00  0.00     0.744 A 
HETATM   39  N11 UNL     1     157.445  47.402  16.629  1.00  0.00    -0.192 N 
HETATM   40  N10 UNL     1     158.559  48.066  16.424  1.00  0.00    -0.113 N 
ATOM     41  H10 UNL     1     158.833  48.848  15.829  1.00  0.00     0.207 HD
ATOM     42  H11 UNL     1     156.497  47.458  16.258  1.00  0.00     0.210 HD
BRANCH  35  43
HETATM   43  N1  UNL     1     156.941  44.984  18.585  1.00  0.00    -0.232 N 
ATOM     44  H12 UNL     1     156.930  43.979  18.410  1.00  0.00     0.174 HD
ATOM     45  H11 UNL     1     156.089  45.457  18.886  1.00  0.00     0.174 HD
ENDBRANCH  35  43
ENDBRANCH   1  31
BRANCH   7  46
HETATM   46  O7  UNL     1     162.981  46.107  16.792  1.00  0.00    -0.389 OA
ATOM     47  H7  UNL     1     163.675  46.184  17.436  1.00  0.00     0.210 HD
ENDBRANCH   7  46
TORSDOF 8
ENDMDL
MODEL 2
REMARK VINA RESULT: -8.185305406      0.845      1.608
REMARK  8 active torsions:
REMARK  status: ('A' for Active; 'I' for Inactive)
REMARK    1  A    between atoms: N1_1  and  C1_4 
REMARK    2  A    between atoms: N3_9  and  C3_10 
REMARK    3  A    between atoms: C4_14  and  C5_15 
REMARK    4  A    between atoms: C5_15  and  N5_16 
REMARK       I    between atoms: N5_16  and  C6_18 
REMARK    5  A    between atoms: C6_18  and  C7_20 
REMARK       I    between atoms: C7_20  and  N6_22 
REMARK    6  A    between atoms: C9_27  and  C10_28 
REMARK    7  A    between atoms: C13_36  and  O6_37 
REMARK    8  A    between atoms: C14_39  and  O7_40 
ROOT
HETATM    1  C3  UNL     1     161.473  47.775  17.614  1.00  0.00     0.344 C 
HETATM    2  N4  UNL     1     161.376  49.191  17.211  1.00  0.00    -0.042 N 
ATOM      3  H41 UNL     1     160.779  49.774  17.797  1.00  0.00     0.280 HD
ATOM      4  H42 UNL     1     160.856  49.369  16.351  1.00  0.00     0.280 HD
HETATM    5  C4  UNL     1     162.762  49.559  17.182  1.00  0.00     0.237 C 
HETATM    6  C13 UNL     1     163.483  48.377  16.611  1.00  0.00     0.183 C 
HETATM    7  C14 UNL     1     162.404  47.281  16.542  1.00  0.00     0.200 C 
ENDROOT
BRANCH   5   8
HETATM    8  C5  UNL     1     163.025  50.833  16.423  1.00  0.00     0.159 C 
BRANCH   8   9
HETATM    9  N5  UNL     1     162.575  50.757  15.051  1.00  0.00    -0.351 N 
HETATM   10  C6  UNL     1     162.414  51.966  14.330  1.00  0.00     0.310 C 
HETATM   11  O2  UNL     1     162.640  53.086  14.841  1.00  0.00    -0.262 OA
ATOM     12  H5  UNL     1     162.379  49.856  14.613  1.00  0.00     0.162 HD
BRANCH  10  13
HETATM   13  C7  UNL     1     161.971  51.901  12.949  1.00  0.00     0.327 C 
HETATM   14  O3  UNL     1     160.759  51.568  12.686  1.00  0.00    -0.261 OA
HETATM   15  N6  UNL     1     162.869  52.201  11.909  1.00  0.00    -0.151 N 
HETATM   16  C8  UNL     1     163.791  51.385  11.553  1.00  0.00     0.688 A 
ATOM     17  H6  UNL     1     162.784  53.094  11.423  1.00  0.00     0.188 HD
HETATM   18  N7  UNL     1     164.651  51.707  10.538  1.00  0.00    -0.186 N 
HETATM   19  N9  UNL     1     163.890  50.209  12.190  1.00  0.00    -0.156 N 
HETATM   20  C9  UNL     1     165.606  50.859  10.159  1.00  0.00     0.119 A 
ATOM     21  H7  UNL     1     164.559  52.606  10.065  1.00  0.00     0.184 HD
HETATM   22  C11 UNL     1     165.722  49.642  10.805  1.00  0.00     0.110 A 
HETATM   23  C12 UNL     1     164.844  49.334  11.828  1.00  0.00     0.261 A 
HETATM   24  O5  UNL     1     164.927  48.236  12.434  1.00  0.00    -0.268 OA
ATOM     25  H9  UNL     1     163.243  49.979  12.946  1.00  0.00     0.187 HD
BRANCH  20  26
HETATM   26  C10 UNL     1     166.512  51.209   9.069  1.00  0.00     0.282 C 
HETATM   27  N8  UNL     1     166.103  51.099   7.723  1.00  0.00    -0.056 NA
HETATM   28  O4  UNL     1     167.679  51.617   9.348  1.00  0.00    -0.269 OA
ENDBRANCH  20  26
ENDBRANCH  10  13
ENDBRANCH   8   9
ENDBRANCH   5   8
BRANCH   6  29
HETATM   29  O6  UNL     1     164.089  48.576  15.397  1.00  0.00    -0.391 OA
ATOM     30  H6  UNL     1     164.462  49.438  15.256  1.00  0.00     0.210 HD
ENDBRANCH   6  29
BRANCH   1  31
HETATM   31  N3  UNL     1     160.214  47.148  17.710  1.00  0.00    -0.095 N 
HETATM   32  C2  UNL     1     159.223  47.529  16.895  1.00  0.00     0.357 A 
HETATM   33  N2  UNL     1     158.025  46.935  16.965  1.00  0.00    -0.139 N 
HETATM   34  O1  UNL     1     159.415  48.442  16.061  1.00  0.00    -0.245 OA
HETATM   35  C1  UNL     1     157.809  45.950  17.859  1.00  0.00     0.717 A 
ATOM     36  H2  UNL     1     157.274  47.230  16.341  1.00  0.00     0.189 HD
HETATM   37  N12 UNL     1     158.814  45.556  18.694  1.00  0.00     0.107 N 
HETATM   38  C15 UNL     1     159.986  46.163  18.599  1.00  0.00     0.744 A 
HETATM   39  N11 UNL     1     159.274  44.788  19.666  1.00  0.00    -0.192 N 
HETATM   40  N10 UNL     1     160.446  45.376  19.590  1.00  0.00    -0.113 N 
ATOM     41  H10 UNL     1     161.335  45.278  20.079  1.00  0.00     0.207 HD
ATOM     42  H11 UNL     1     158.880  44.043  20.240  1.00  0.00     0.210 HD
BRANCH  35  43
HETATM   43  N1  UNL     1     156.686  45.355  17.961  1.00  0.00    -0.232 N 
ATOM     44  H12 UNL     1     156.376  44.788  17.171  1.00  0.00     0.174 HD
ATOM     45  H11 UNL     1     156.100  45.431  18.793  1.00  0.00     0.174 HD
ENDBRANCH  35  43
ENDBRANCH   1  31
BRANCH   7  46
HETATM   46  O7  UNL     1     162.923  46.056  16.854  1.00  0.00    -0.389 OA
ATOM     47  H7  UNL     1     162.421  45.354  16.459  1.00  0.00     0.210 HD
ENDBRANCH   7  46
TORSDOF 8
ENDMDL
MODEL 3
REMARK VINA RESULT: -8.163411282      6.153      9.902
REMARK  8 active torsions:
REMARK  status: ('A' for Active; 'I' for Inactive)
REMARK    1  A    between atoms: N1_1  and  C1_4 
REMARK    2  A    between atoms: N3_9  and  C3_10 
REMARK    3  A    between atoms: C4_14  and  C5_15 
REMARK    4  A    between atoms: C5_15  and  N5_16 
REMARK       I    between atoms: N5_16  and  C6_18 
REMARK    5  A    between atoms: C6_18  and  C7_20 
REMARK       I    between atoms: C7_20  and  N6_22 
REMARK    6  A    between atoms: C9_27  and  C10_28 
REMARK    7  A    between atoms: C13_36  and  O6_37 
REMARK    8  A    between atoms: C14_39  and  O7_40 
ROOT
HETATM    1  C3  UNL     1     165.736  50.033  10.509  1.00  0.00     0.344 C 
HETATM    2  N4  UNL     1     166.572  50.208   9.306  1.00  0.00    -0.042 N 
ATOM      3  H41 UNL     1     167.226  49.450   9.111  1.00  0.00     0.280 HD
ATOM      4  H42 UNL     1     167.290  50.929   9.371  1.00  0.00     0.280 HD
HETATM    5  C4  UNL     1     165.565  50.427   8.308  1.00  0.00     0.237 C 
HETATM    6  C13 UNL     1     164.522  51.278   8.965  1.00  0.00     0.183 C 
HETATM    7  C14 UNL     1     164.947  51.311  10.445  1.00  0.00     0.200 C 
ENDROOT
BRANCH   5   8
HETATM    8  C5  UNL     1     166.106  51.033   7.039  1.00  0.00     0.159 C 
BRANCH   8   9
HETATM    9  N5  UNL     1     167.398  51.652   7.234  1.00  0.00    -0.351 N 
HETATM   10  C6  UNL     1     167.494  53.060   7.105  1.00  0.00     0.310 C 
HETATM   11  O2  UNL     1     166.506  53.775   6.825  1.00  0.00    -0.262 OA
ATOM     12  H5  UNL     1     168.219  51.090   7.458  1.00  0.00     0.162 HD
BRANCH  10  13
HETATM   13  C7  UNL     1     168.785  53.693   7.307  1.00  0.00     0.327 C 
HETATM   14  O3  UNL     1     169.102  54.129   8.473  1.00  0.00    -0.261 OA
HETATM   15  N6  UNL     1     169.678  53.825   6.229  1.00  0.00    -0.151 N 
HETATM   16  C8  UNL     1     169.501  54.695   5.305  1.00  0.00     0.688 A 
ATOM     17  H6  UNL     1     170.491  53.211   6.180  1.00  0.00     0.188 HD
HETATM   18  N7  UNL     1     170.388  54.799   4.268  1.00  0.00    -0.186 N 
HETATM   19  N9  UNL     1     168.436  55.507   5.382  1.00  0.00    -0.156 N 
HETATM   20  C9  UNL     1     170.213  55.708   3.310  1.00  0.00     0.119 A 
ATOM     21  H7  UNL     1     171.193  54.173   4.228  1.00  0.00     0.184 HD
HETATM   22  C11 UNL     1     169.120  56.552   3.372  1.00  0.00     0.110 A 
HETATM   23  C12 UNL     1     168.235  56.433   4.429  1.00  0.00     0.261 A 
HETATM   24  O5  UNL     1     167.232  57.186   4.511  1.00  0.00    -0.268 OA
ATOM     25  H9  UNL     1     167.780  55.421   6.160  1.00  0.00     0.187 HD
BRANCH  20  26
HETATM   26  C10 UNL     1     171.170  55.815   2.213  1.00  0.00     0.282 C 
HETATM   27  N8  UNL     1     171.030  55.031   1.049  1.00  0.00    -0.056 NA
HETATM   28  O4  UNL     1     172.137  56.628   2.319  1.00  0.00    -0.269 OA
ENDBRANCH  20  26
ENDBRANCH  10  13
ENDBRANCH   8   9
ENDBRANCH   5   8
BRANCH   6  29
HETATM   29  O6  UNL     1     164.366  52.539   8.449  1.00  0.00    -0.391 OA
ATOM     30  H6  UNL     1     164.408  53.251   9.076  1.00  0.00     0.210 HD
ENDBRANCH   6  29
BRANCH   1  31
HETATM   31  N3  UNL     1     166.498  49.807  11.674  1.00  0.00    -0.095 N 
HETATM   32  C2  UNL     1     166.026  48.990  12.623  1.00  0.00     0.357 A 
HETATM   33  N2  UNL     1     166.743  48.756  13.730  1.00  0.00    -0.139 N 
HETATM   34  O1  UNL     1     164.911  48.440  12.479  1.00  0.00    -0.245 OA
HETATM   35  C1  UNL     1     167.945  49.344  13.895  1.00  0.00     0.717 A 
ATOM     36  H2  UNL     1     166.378  48.133  14.450  1.00  0.00     0.189 HD
HETATM   37  N12 UNL     1     168.433  50.178  12.932  1.00  0.00     0.107 N 
HETATM   38  C15 UNL     1     167.699  50.388  11.850  1.00  0.00     0.744 A 
HETATM   39  N11 UNL     1     169.374  50.981  12.467  1.00  0.00    -0.192 N 
HETATM   40  N10 UNL     1     168.664  51.205  11.386  1.00  0.00    -0.113 N 
ATOM     41  H10 UNL     1     168.790  51.765  10.543  1.00  0.00     0.207 HD
ATOM     42  H11 UNL     1     170.281  51.297  12.809  1.00  0.00     0.210 HD
BRANCH  35  43
HETATM   43  N1  UNL     1     168.663  49.149  14.931  1.00  0.00    -0.232 N 
ATOM     44  H12 UNL     1     169.566  48.693  14.802  1.00  0.00     0.174 HD
ATOM     45  H11 UNL     1     168.363  49.429  15.864  1.00  0.00     0.174 HD
ENDBRANCH  35  43
ENDBRANCH   1  31
BRANCH   7  46
HETATM   46  O7  UNL     1     163.860  51.271  11.271  1.00  0.00    -0.389 OA
ATOM     47  H7  UNL     1     163.254  50.586  11.017  1.00  0.00     0.210 HD
ENDBRANCH   7  46
TORSDOF 8
ENDMDL
MODEL 4
REMARK VINA RESULT: -8.157006926      2.046      2.962
REMARK  8 active torsions:
REMARK  status: ('A' for Active; 'I' for Inactive)
REMARK    1  A    between atoms: N1_1  and  C1_4 
REMARK    2  A    between atoms: N3_9  and  C3_10 
REMARK    3  A    between atoms: C4_14  and  C5_15 
REMARK    4  A    between atoms: C5_15  and  N5_16 
REMARK       I    between atoms: N5_16  and  C6_18 
REMARK    5  A    between atoms: C6_18  and  C7_20 
REMARK       I    between atoms: C7_20  and  N6_22 
REMARK    6  A    between atoms: C9_27  and  C10_28 
REMARK    7  A    between atoms: C13_36  and  O6_37 
REMARK    8  A    between atoms: C14_39  and  O7_40 
ROOT
HETATM    1  C3  UNL     1     160.512  50.010  17.277  1.00  0.00     0.344 C 
HETATM    2  N4  UNL     1     160.774  50.509  15.913  1.00  0.00    -0.042 N 
ATOM      3  H41 UNL     1     159.949  50.769  15.374  1.00  0.00     0.280 HD
ATOM      4  H42 UNL     1     161.100  49.810  15.244  1.00  0.00     0.280 HD
HETATM    5  C4  UNL     1     161.694  51.575  16.188  1.00  0.00     0.237 C 
HETATM    6  C13 UNL     1     162.582  51.071  17.285  1.00  0.00     0.183 C 
HETATM    7  C14 UNL     1     161.925  49.746  17.715  1.00  0.00     0.200 C 
ENDROOT
BRANCH   5   8
HETATM    8  C5  UNL     1     162.460  52.030  14.974  1.00  0.00     0.159 C 
BRANCH   8   9
HETATM    9  N5  UNL     1     162.678  50.957  14.028  1.00  0.00    -0.351 N 
HETATM   10  C6  UNL     1     164.009  50.672  13.633  1.00  0.00     0.310 C 
HETATM   11  O2  UNL     1     164.989  51.317  14.067  1.00  0.00    -0.262 OA
ATOM     12  H5  UNL     1     161.894  50.420  13.656  1.00  0.00     0.162 HD
BRANCH  10  13
HETATM   13  C7  UNL     1     164.240  49.591  12.691  1.00  0.00     0.327 C 
HETATM   14  O3  UNL     1     164.417  48.396  13.128  1.00  0.00    -0.261 OA
HETATM   15  N6  UNL     1     164.270  49.857  11.311  1.00  0.00    -0.151 N 
HETATM   16  C8  UNL     1     165.270  50.432  10.753  1.00  0.00     0.688 A 
ATOM     17  H6  UNL     1     163.472  49.585  10.736  1.00  0.00     0.188 HD
HETATM   18  N7  UNL     1     165.269  50.678   9.406  1.00  0.00    -0.186 N 
HETATM   19  N9  UNL     1     166.319  50.777  11.514  1.00  0.00    -0.156 N 
HETATM   20  C9  UNL     1     166.310  51.267   8.821  1.00  0.00     0.119 A 
ATOM     21  H7  UNL     1     164.461  50.407   8.845  1.00  0.00     0.184 HD
HETATM   22  C11 UNL     1     167.400  51.630   9.589  1.00  0.00     0.110 A 
HETATM   23  C12 UNL     1     167.383  51.373  10.948  1.00  0.00     0.261 A 
HETATM   24  O5  UNL     1     168.360  51.693  11.672  1.00  0.00    -0.268 OA
ATOM     25  H9  UNL     1     166.310  50.588  12.517  1.00  0.00     0.187 HD
BRANCH  20  26
HETATM   26  C10 UNL     1     166.301  51.517   7.382  1.00  0.00     0.282 C 
HETATM   27  N8  UNL     1     167.232  52.398   6.794  1.00  0.00    -0.056 NA
HETATM   28  O4  UNL     1     165.440  50.928   6.662  1.00  0.00    -0.269 OA
ENDBRANCH  20  26
ENDBRANCH  10  13
ENDBRANCH   8   9
ENDBRANCH   5   8
BRANCH   6  29
HETATM   29  O6  UNL     1     163.903  50.906  16.958  1.00  0.00    -0.391 OA
ATOM     30  H6  UNL     1     164.519  51.444  17.439  1.00  0.00     0.210 HD
ENDBRANCH   6  29
BRANCH   1  31
HETATM   31  N3  UNL     1     159.620  48.919  17.295  1.00  0.00    -0.095 N 
HETATM   32  C2  UNL     1     158.310  49.139  17.457  1.00  0.00     0.357 A 
HETATM   33  N2  UNL     1     157.448  48.114  17.465  1.00  0.00    -0.139 N 
HETATM   34  O1  UNL     1     157.884  50.308  17.600  1.00  0.00    -0.245 OA
HETATM   35  C1  UNL     1     157.895  46.852  17.311  1.00  0.00     0.717 A 
ATOM     36  H2  UNL     1     156.451  48.289  17.589  1.00  0.00     0.189 HD
HETATM   37  N12 UNL     1     159.229  46.619  17.146  1.00  0.00     0.107 N 
HETATM   38  C15 UNL     1     160.055  47.654  17.143  1.00  0.00     0.744 A 
HETATM   39  N11 UNL     1     160.244  45.792  16.965  1.00  0.00    -0.192 N 
HETATM   40  N10 UNL     1     161.082  46.803  16.959  1.00  0.00    -0.113 N 
ATOM     41  H10 UNL     1     162.091  46.902  16.858  1.00  0.00     0.207 HD
ATOM     42  H11 UNL     1     160.338  44.780  16.870  1.00  0.00     0.210 HD
BRANCH  35  43
HETATM   43  N1  UNL     1     157.113  45.845  17.310  1.00  0.00    -0.232 N 
ATOM     44  H12 UNL     1     156.719  45.549  18.203  1.00  0.00     0.174 HD
ATOM     45  H11 UNL     1     156.877  45.338  16.457  1.00  0.00     0.174 HD
ENDBRANCH  35  43
ENDBRANCH   1  31
BRANCH   7  46
HETATM   46  O7  UNL     1     162.006  49.572  19.068  1.00  0.00    -0.389 OA
ATOM     47  H7  UNL     1     162.081  48.653  19.296  1.00  0.00     0.210 HD
ENDBRANCH   7  46
TORSDOF 8
ENDMDL
MODEL 5
REMARK VINA RESULT: -8.138120238      1.902      2.822
REMARK  8 active torsions:
REMARK  status: ('A' for Active; 'I' for Inactive)
REMARK    1  A    between atoms: N1_1  and  C1_4 
REMARK    2  A    between atoms: N3_9  and  C3_10 
REMARK    3  A    between atoms: C4_14  and  C5_15 
REMARK    4  A    between atoms: C5_15  and  N5_16 
REMARK       I    between atoms: N5_16  and  C6_18 
REMARK    5  A    between atoms: C6_18  and  C7_20 
REMARK       I    between atoms: C7_20  and  N6_22 
REMARK    6  A    between atoms: C9_27  and  C10_28 
REMARK    7  A    between atoms: C13_36  and  O6_37 
REMARK    8  A    between atoms: C14_39  and  O7_40 
ROOT
HETATM    1  C3  UNL     1     160.599  47.792  17.716  1.00  0.00     0.344 C 
HETATM    2  N4  UNL     1     161.169  48.193  16.415  1.00  0.00    -0.042 N 
ATOM      3  H41 UNL     1     160.841  49.086  16.048  1.00  0.00     0.280 HD
ATOM      4  H42 UNL     1     160.857  47.647  15.612  1.00  0.00     0.280 HD
HETATM    5  C4  UNL     1     162.573  48.121  16.702  1.00  0.00     0.237 C 
HETATM    6  C13 UNL     1     162.748  46.913  17.570  1.00  0.00     0.183 C 
HETATM    7  C14 UNL     1     161.308  46.478  17.896  1.00  0.00     0.200 C 
ENDROOT
BRANCH   5   8
HETATM    8  C5  UNL     1     163.433  48.088  15.466  1.00  0.00     0.159 C 
BRANCH   8   9
HETATM    9  N5  UNL     1     163.757  49.413  14.986  1.00  0.00    -0.351 N 
HETATM   10  C6  UNL     1     165.099  49.683  14.619  1.00  0.00     0.310 C 
HETATM   11  O2  UNL     1     166.003  48.821  14.702  1.00  0.00    -0.262 OA
ATOM     12  H5  UNL     1     163.039  50.134  14.914  1.00  0.00     0.162 HD
BRANCH  10  13
HETATM   13  C7  UNL     1     165.434  51.008  14.128  1.00  0.00     0.327 C 
HETATM   14  O3  UNL     1     165.112  52.041  14.819  1.00  0.00    -0.261 OA
HETATM   15  N6  UNL     1     166.108  51.152  12.901  1.00  0.00    -0.151 N 
HETATM   16  C8  UNL     1     165.513  50.989  11.778  1.00  0.00     0.688 A 
ATOM     17  H6  UNL     1     167.099  51.394  12.906  1.00  0.00     0.188 HD
HETATM   18  N7  UNL     1     166.196  51.136  10.601  1.00  0.00    -0.186 N 
HETATM   19  N9  UNL     1     164.207  50.681  11.782  1.00  0.00    -0.156 N 
HETATM   20  C9  UNL     1     165.579  50.975   9.432  1.00  0.00     0.119 A 
ATOM     21  H7  UNL     1     167.188  51.371  10.621  1.00  0.00     0.184 HD
HETATM   22  C11 UNL     1     164.234  50.657   9.415  1.00  0.00     0.110 A 
HETATM   23  C12 UNL     1     163.560  50.514  10.615  1.00  0.00     0.261 A 
HETATM   24  O5  UNL     1     162.338  50.224  10.631  1.00  0.00    -0.268 OA
ATOM     25  H9  UNL     1     163.707  50.575  12.665  1.00  0.00     0.187 HD
BRANCH  20  26
HETATM   26  C10 UNL     1     166.316  51.142   8.182  1.00  0.00     0.282 C 
HETATM   27  N8  UNL     1     165.673  50.994   6.935  1.00  0.00    -0.056 NA
HETATM   28  O4  UNL     1     167.551  51.426   8.231  1.00  0.00    -0.269 OA
ENDBRANCH  20  26
ENDBRANCH  10  13
ENDBRANCH   8   9
ENDBRANCH   5   8
BRANCH   6  29
HETATM   29  O6  UNL     1     163.482  45.889  17.029  1.00  0.00    -0.391 OA
ATOM     30  H6  UNL     1     163.187  45.568  16.186  1.00  0.00     0.210 HD
ENDBRANCH   6  29
BRANCH   1  31
HETATM   31  N3  UNL     1     159.190  47.766  17.709  1.00  0.00    -0.095 N 
HETATM   32  C2  UNL     1     158.508  48.917  17.736  1.00  0.00     0.357 A 
HETATM   33  N2  UNL     1     157.169  48.910  17.718  1.00  0.00    -0.139 N 
HETATM   34  O1  UNL     1     159.121  50.007  17.778  1.00  0.00    -0.245 OA
HETATM   35  C1  UNL     1     156.499  47.741  17.673  1.00  0.00     0.717 A 
ATOM     36  H2  UNL     1     156.655  49.790  17.739  1.00  0.00     0.189 HD
HETATM   37  N12 UNL     1     157.187  46.563  17.644  1.00  0.00     0.107 N 
HETATM   38  C15 UNL     1     158.510  46.605  17.664  1.00  0.00     0.744 A 
HETATM   39  N11 UNL     1     157.216  45.242  17.603  1.00  0.00    -0.192 N 
HETATM   40  N10 UNL     1     158.528  45.259  17.622  1.00  0.00    -0.113 N 
ATOM     41  H10 UNL     1     159.259  44.548  17.610  1.00  0.00     0.207 HD
ATOM     42  H11 UNL     1     156.507  44.509  17.570  1.00  0.00     0.210 HD
BRANCH  35  43
HETATM   43  N1  UNL     1     155.225  47.685  17.651  1.00  0.00    -0.232 N 
ATOM     44  H12 UNL     1     154.763  47.736  16.743  1.00  0.00     0.174 HD
ATOM     45  H11 UNL     1     154.668  47.595  18.501  1.00  0.00     0.174 HD
ENDBRANCH  35  43
ENDBRANCH   1  31
BRANCH   7  46
HETATM   46  O7  UNL     1     161.207  46.027  19.182  1.00  0.00    -0.389 OA
ATOM     47  H7  UNL     1     162.054  45.772  19.529  1.00  0.00     0.210 HD
ENDBRANCH   7  46
TORSDOF 8
ENDMDL
