MODEL 1
REMARK VINA RESULT: -7.246491000      0.000      0.000
REMARK  9 active torsions:
REMARK  status: ('A' for Active; 'I' for Inactive)
REMARK    1  A    between atoms: N1_1  and  N2_4 
REMARK    2  A    between atoms: N2_4  and  N3_5 
REMARK       I    between atoms: N3_5  and  C1_7 
REMARK    3  A    between atoms: C1_7  and  C2_9 
REMARK    4  A    between atoms: C3_11  and  O3_12 
REMARK    5  A    between atoms: C4_14  and  N4_15 
REMARK       I    between atoms: N4_15  and  C5_17 
REMARK    6  A    between atoms: C5_17  and  C6_19 
REMARK    7  A    between atoms: C6_19  and  N5_20 
REMARK    8  A    between atoms: C6_19  and  C7_24 
REMARK    9  A    between atoms: C10_29  and  C11_30 
ROOT
HETATM    1  N4  UNL     1     164.067  50.356  11.466  1.00  0.00    -0.334 N 
ATOM      2  H4  UNL     1     164.140  49.342  11.557  1.00  0.00     0.164 HD
HETATM    3  C5  UNL     1     163.232  51.083  12.341  1.00  0.00     0.251 C 
HETATM    4  O4  UNL     1     163.158  52.327  12.215  1.00  0.00    -0.271 OA
ENDROOT
BRANCH   1   5
HETATM    5  C4  UNL     1     164.813  51.038  10.454  1.00  0.00     0.242 C 
HETATM    6  C3  UNL     1     166.278  50.593  10.616  1.00  0.00     0.301 C 
HETATM    7  O2  UNL     1     167.086  51.218   9.706  1.00  0.00    -0.333 OA
HETATM    8  C2  UNL     1     166.755  51.108   8.392  1.00  0.00     0.309 C 
HETATM    9  C13 UNL     1     165.384  50.660   8.105  1.00  0.00     0.258 C 
HETATM   10  N7  UNL     1     164.439  50.573   9.140  1.00  0.00    -0.333 N 
HETATM   11  O8  UNL     1     165.014  50.342   6.950  1.00  0.00    -0.270 OA
ATOM     12  H7  UNL     1     163.509  50.191   8.966  1.00  0.00     0.164 HD
BRANCH   6  13
HETATM   13  O3  UNL     1     166.665  50.972  11.902  1.00  0.00    -0.367 OA
ATOM     14  H3  UNL     1     167.525  51.374  11.862  1.00  0.00     0.212 HD
ENDBRANCH   6  13
BRANCH   8  15
HETATM   15  C1  UNL     1     166.885  52.464   7.738  1.00  0.00     0.273 C 
HETATM   16  N3  UNL     1     165.752  53.034   7.104  1.00  0.00    -0.252 N 
ATOM     17  H3  UNL     1     164.872  52.519   7.100  1.00  0.00     0.187 HD
HETATM   18  O1  UNL     1     167.981  53.084   7.753  1.00  0.00    -0.269 OA
BRANCH  16  19
HETATM   19  N2  UNL     1     165.812  54.279   6.485  1.00  0.00    -0.027 NA
BRANCH  19  20
HETATM   20  N1  UNL     1     164.966  54.397   5.393  1.00  0.00    -0.329 N 
ATOM     21  H12 UNL     1     164.011  54.040   5.402  1.00  0.00     0.174 HD
ATOM     22  H11 UNL     1     165.392  54.870   4.596  1.00  0.00     0.174 HD
ENDBRANCH  19  20
ENDBRANCH  16  19
ENDBRANCH   8  15
ENDBRANCH   1   5
BRANCH   3  23
HETATM   23  C6  UNL     1     162.461  50.374  13.392  1.00  0.00     0.288 C 
BRANCH  23  24
HETATM   24  N5  UNL     1     161.214  51.042  13.680  1.00  0.00    -0.066 N 
ATOM     25  H53 UNL     1     160.827  51.485  12.847  1.00  0.00     0.275 HD
ATOM     26  H52 UNL     1     160.467  50.373  13.866  1.00  0.00     0.275 HD
ATOM     27  H51 UNL     1     161.313  51.711  14.445  1.00  0.00     0.275 HD
ENDBRANCH  23  24
BRANCH  23  28
HETATM   28  C7  UNL     1     163.321  50.176  14.592  1.00  0.00     0.127 C 
HETATM   29  C8  UNL     1     163.140  51.239  15.648  1.00  0.00     0.103 C 
HETATM   30  S1  UNL     1     164.661  51.342  16.666  1.00  0.00    -0.097 SA
HETATM   31  S2  UNL     1     166.186  50.114  15.847  1.00  0.00    -0.095 SA
HETATM   32  C9  UNL     1     166.198  48.486  16.644  1.00  0.00     0.122 C 
HETATM   33  C10 UNL     1     164.815  48.210  17.179  1.00  0.00     0.195 C 
HETATM   34  N6  UNL     1     163.873  48.045  16.096  1.00  0.00    -0.345 N 
HETATM   35  C12 UNL     1     163.137  48.850  15.209  1.00  0.00     0.225 C 
ATOM     36  H6  UNL     1     163.688  47.057  15.925  1.00  0.00     0.163 HD
HETATM   37  O7  UNL     1     162.036  48.321  14.837  1.00  0.00    -0.273 OA
BRANCH  33  38
HETATM   38  C11 UNL     1     164.806  47.039  18.095  1.00  0.00     0.197 C 
HETATM   39  O5  UNL     1     164.732  45.895  17.568  1.00  0.00    -0.646 OA
HETATM   40  O6  UNL     1     164.873  47.124  19.460  1.00  0.00    -0.646 OA
ENDBRANCH  33  38
ENDBRANCH  23  28
ENDBRANCH   3  23
TORSDOF 9
ENDMDL
MODEL 2
REMARK VINA RESULT: -7.149410651      3.036      9.220
REMARK  9 active torsions:
REMARK  status: ('A' for Active; 'I' for Inactive)
REMARK    1  A    between atoms: N1_1  and  N2_4 
REMARK    2  A    between atoms: N2_4  and  N3_5 
REMARK       I    between atoms: N3_5  and  C1_7 
REMARK    3  A    between atoms: C1_7  and  C2_9 
REMARK    4  A    between atoms: C3_11  and  O3_12 
REMARK    5  A    between atoms: C4_14  and  N4_15 
REMARK       I    between atoms: N4_15  and  C5_17 
REMARK    6  A    between atoms: C5_17  and  C6_19 
REMARK    7  A    between atoms: C6_19  and  N5_20 
REMARK    8  A    between atoms: C6_19  and  C7_24 
REMARK    9  A    between atoms: C10_29  and  C11_30 
ROOT
HETATM    1  N4  UNL     1     163.232  51.087  11.267  1.00  0.00    -0.334 N 
ATOM      2  H4  UNL     1     162.453  50.976  10.618  1.00  0.00     0.164 HD
HETATM    3  C5  UNL     1     164.530  51.340  10.773  1.00  0.00     0.251 C 
HETATM    4  O4  UNL     1     165.473  51.476  11.587  1.00  0.00    -0.271 OA
ENDROOT
BRANCH   1   5
HETATM    5  C4  UNL     1     163.008  50.987  12.676  1.00  0.00     0.242 C 
HETATM    6  C3  UNL     1     161.481  50.939  12.873  1.00  0.00     0.301 C 
HETATM    7  O2  UNL     1     161.157  50.874  14.201  1.00  0.00    -0.333 OA
HETATM    8  C2  UNL     1     161.708  49.870  14.934  1.00  0.00     0.309 C 
HETATM    9  C13 UNL     1     162.869  49.193  14.334  1.00  0.00     0.258 C 
HETATM   10  N7  UNL     1     163.476  49.720  13.183  1.00  0.00    -0.333 N 
HETATM   11  O8  UNL     1     163.350  48.141  14.816  1.00  0.00    -0.270 OA
ATOM     12  H7  UNL     1     164.232  49.218  12.715  1.00  0.00     0.164 HD
BRANCH   6  13
HETATM   13  O3  UNL     1     160.977  52.126  12.340  1.00  0.00    -0.367 OA
ATOM     14  H3  UNL     1     161.414  52.305  11.515  1.00  0.00     0.212 HD
ENDBRANCH   6  13
BRANCH   8  15
HETATM   15  C1  UNL     1     162.200  50.434  16.246  1.00  0.00     0.273 C 
HETATM   16  N3  UNL     1     162.427  49.552  17.333  1.00  0.00    -0.252 N 
ATOM     17  H3  UNL     1     162.255  48.555  17.209  1.00  0.00     0.187 HD
HETATM   18  O1  UNL     1     162.406  51.669  16.379  1.00  0.00    -0.269 OA
BRANCH  16  19
HETATM   19  N2  UNL     1     162.879  50.015  18.565  1.00  0.00    -0.027 NA
BRANCH  19  20
HETATM   20  N1  UNL     1     164.174  50.510  18.530  1.00  0.00    -0.329 N 
ATOM     21  H12 UNL     1     164.470  51.304  19.097  1.00  0.00     0.174 HD
ATOM     22  H11 UNL     1     164.786  50.004  17.891  1.00  0.00     0.174 HD
ENDBRANCH  19  20
ENDBRANCH  16  19
ENDBRANCH   8  15
ENDBRANCH   1   5
BRANCH   3  23
HETATM   23  C6  UNL     1     164.760  51.445   9.312  1.00  0.00     0.288 C 
BRANCH  23  24
HETATM   24  N5  UNL     1     164.214  50.312   8.603  1.00  0.00    -0.066 N 
ATOM     25  H53 UNL     1     163.194  50.324   8.610  1.00  0.00     0.275 HD
ATOM     26  H52 UNL     1     164.367  50.392   7.598  1.00  0.00     0.275 HD
ATOM     27  H51 UNL     1     164.578  49.430   8.965  1.00  0.00     0.275 HD
ENDBRANCH  23  24
BRANCH  23  28
HETATM   28  C7  UNL     1     166.211  51.665   9.051  1.00  0.00     0.127 C 
HETATM   29  C8  UNL     1     167.000  50.388   8.904  1.00  0.00     0.103 C 
HETATM   30  S1  UNL     1     168.756  50.713   9.319  1.00  0.00    -0.097 SA
HETATM   31  S2  UNL     1     168.986  52.683  10.076  1.00  0.00    -0.095 SA
HETATM   32  C9  UNL     1     169.463  53.827   8.753  1.00  0.00     0.122 C 
HETATM   33  C10 UNL     1     168.974  53.267   7.441  1.00  0.00     0.195 C 
HETATM   34  N6  UNL     1     167.529  53.281   7.389  1.00  0.00    -0.345 N 
HETATM   35  C12 UNL     1     166.452  52.517   7.873  1.00  0.00     0.225 C 
ATOM     36  H6  UNL     1     167.195  54.074   6.843  1.00  0.00     0.163 HD
HETATM   37  O7  UNL     1     165.421  52.559   7.120  1.00  0.00    -0.273 OA
BRANCH  33  38
HETATM   38  C11 UNL     1     169.569  53.986   6.283  1.00  0.00     0.197 C 
HETATM   39  O5  UNL     1     168.884  54.042   5.225  1.00  0.00    -0.646 OA
HETATM   40  O6  UNL     1     170.801  54.583   6.295  1.00  0.00    -0.646 OA
ENDBRANCH  33  38
ENDBRANCH  23  28
ENDBRANCH   3  23
TORSDOF 9
ENDMDL
MODEL 3
REMARK VINA RESULT: -7.118786827      1.863      2.253
REMARK  9 active torsions:
REMARK  status: ('A' for Active; 'I' for Inactive)
REMARK    1  A    between atoms: N1_1  and  N2_4 
REMARK    2  A    between atoms: N2_4  and  N3_5 
REMARK       I    between atoms: N3_5  and  C1_7 
REMARK    3  A    between atoms: C1_7  and  C2_9 
REMARK    4  A    between atoms: C3_11  and  O3_12 
REMARK    5  A    between atoms: C4_14  and  N4_15 
REMARK       I    between atoms: N4_15  and  C5_17 
REMARK    6  A    between atoms: C5_17  and  C6_19 
REMARK    7  A    between atoms: C6_19  and  N5_20 
REMARK    8  A    between atoms: C6_19  and  C7_24 
REMARK    9  A    between atoms: C10_29  and  C11_30 
ROOT
HETATM    1  N4  UNL     1     163.063  51.487  13.367  1.00  0.00    -0.334 N 
ATOM      2  H4  UNL     1     163.635  51.355  14.201  1.00  0.00     0.164 HD
HETATM    3  C5  UNL     1     161.669  51.668  13.491  1.00  0.00     0.251 C 
HETATM    4  O4  UNL     1     160.983  51.830  12.454  1.00  0.00    -0.271 OA
ENDROOT
BRANCH   1   5
HETATM    5  C4  UNL     1     163.675  51.488  12.074  1.00  0.00     0.242 C 
HETATM    6  C3  UNL     1     164.955  50.642  12.195  1.00  0.00     0.301 C 
HETATM    7  O2  UNL     1     165.636  50.605  11.009  1.00  0.00    -0.333 OA
HETATM    8  C2  UNL     1     164.957  50.188   9.907  1.00  0.00     0.309 C 
HETATM    9  C13 UNL     1     163.490  50.178  10.016  1.00  0.00     0.258 C 
HETATM   10  N7  UNL     1     162.860  50.775  11.119  1.00  0.00    -0.333 N 
HETATM   11  O8  UNL     1     162.761  49.645   9.147  1.00  0.00    -0.270 OA
ATOM     12  H7  UNL     1     161.850  50.707  11.243  1.00  0.00     0.164 HD
BRANCH   6  13
HETATM   13  O3  UNL     1     165.750  51.265  13.157  1.00  0.00    -0.367 OA
ATOM     14  H3  UNL     1     166.629  50.905  13.114  1.00  0.00     0.212 HD
ENDBRANCH   6  13
BRANCH   8  15
HETATM   15  C1  UNL     1     165.274  51.113   8.757  1.00  0.00     0.273 C 
HETATM   16  N3  UNL     1     166.274  50.737   7.824  1.00  0.00    -0.252 N 
ATOM     17  H3  UNL     1     166.760  49.849   7.947  1.00  0.00     0.187 HD
HETATM   18  O1  UNL     1     164.662  52.206   8.622  1.00  0.00    -0.269 OA
BRANCH  16  19
HETATM   19  N2  UNL     1     166.607  51.551   6.745  1.00  0.00    -0.027 NA
BRANCH  19  20
HETATM   20  N1  UNL     1     167.517  52.548   7.064  1.00  0.00    -0.329 N 
ATOM     21  H12 UNL     1     167.348  53.222   7.810  1.00  0.00     0.174 HD
ATOM     22  H11 UNL     1     168.356  52.535   6.484  1.00  0.00     0.174 HD
ENDBRANCH  19  20
ENDBRANCH  16  19
ENDBRANCH   8  15
ENDBRANCH   1   5
BRANCH   3  23
HETATM   23  C6  UNL     1     161.037  51.668  14.833  1.00  0.00     0.288 C 
BRANCH  23  24
HETATM   24  N5  UNL     1     160.652  52.999  15.241  1.00  0.00    -0.066 N 
ATOM     25  H53 UNL     1     160.511  53.609  14.436  1.00  0.00     0.275 HD
ATOM     26  H52 UNL     1     159.705  53.013  15.619  1.00  0.00     0.275 HD
ATOM     27  H51 UNL     1     161.322  53.399  15.899  1.00  0.00     0.275 HD
ENDBRANCH  23  24
BRANCH  23  28
HETATM   28  C7  UNL     1     161.934  50.984  15.806  1.00  0.00     0.127 C 
HETATM   29  C8  UNL     1     161.816  51.514  17.213  1.00  0.00     0.103 C 
HETATM   30  S1  UNL     1     163.374  51.176  18.118  1.00  0.00    -0.097 SA
HETATM   31  S2  UNL     1     164.840  50.389  16.800  1.00  0.00    -0.095 SA
HETATM   32  C9  UNL     1     164.842  48.577  16.849  1.00  0.00     0.122 C 
HETATM   33  C10 UNL     1     163.474  48.112  17.280  1.00  0.00     0.195 C 
HETATM   34  N6  UNL     1     162.490  48.417  16.266  1.00  0.00    -0.345 N 
HETATM   35  C12 UNL     1     161.741  49.523  15.825  1.00  0.00     0.225 C 
ATOM     36  H6  UNL     1     162.277  47.591  15.709  1.00  0.00     0.163 HD
HETATM   37  O7  UNL     1     160.616  49.203  15.313  1.00  0.00    -0.273 OA
BRANCH  33  38
HETATM   38  C11 UNL     1     163.470  46.666  17.627  1.00  0.00     0.197 C 
HETATM   39  O5  UNL     1     163.215  45.850  16.698  1.00  0.00    -0.646 OA
HETATM   40  O6  UNL     1     163.724  46.171  18.878  1.00  0.00    -0.646 OA
ENDBRANCH  33  38
ENDBRANCH  23  28
ENDBRANCH   3  23
TORSDOF 9
ENDMDL
MODEL 4
REMARK VINA RESULT: -7.073002164      2.299      2.572
REMARK  9 active torsions:
REMARK  status: ('A' for Active; 'I' for Inactive)
REMARK    1  A    between atoms: N1_1  and  N2_4 
REMARK    2  A    between atoms: N2_4  and  N3_5 
REMARK       I    between atoms: N3_5  and  C1_7 
REMARK    3  A    between atoms: C1_7  and  C2_9 
REMARK    4  A    between atoms: C3_11  and  O3_12 
REMARK    5  A    between atoms: C4_14  and  N4_15 
REMARK       I    between atoms: N4_15  and  C5_17 
REMARK    6  A    between atoms: C5_17  and  C6_19 
REMARK    7  A    between atoms: C6_19  and  N5_20 
REMARK    8  A    between atoms: C6_19  and  C7_24 
REMARK    9  A    between atoms: C10_29  and  C11_30 
ROOT
HETATM    1  N4  UNL     1     163.526  51.253  11.196  1.00  0.00    -0.334 N 
ATOM      2  H4  UNL     1     162.717  50.986  10.634  1.00  0.00     0.164 HD
HETATM    3  C5  UNL     1     163.361  51.577  12.559  1.00  0.00     0.251 C 
HETATM    4  O4  UNL     1     164.367  51.901  13.232  1.00  0.00    -0.271 OA
ENDROOT
BRANCH   1   5
HETATM    5  C4  UNL     1     164.826  51.297  10.600  1.00  0.00     0.242 C 
HETATM    6  C3  UNL     1     165.436  49.895  10.777  1.00  0.00     0.301 C 
HETATM    7  O2  UNL     1     166.703  49.840  10.263  1.00  0.00    -0.333 OA
HETATM    8  C2  UNL     1     166.873  50.213   8.966  1.00  0.00     0.309 C 
HETATM    9  C13 UNL     1     165.772  50.983   8.365  1.00  0.00     0.258 C 
HETATM   10  N7  UNL     1     164.731  51.472   9.171  1.00  0.00    -0.333 N 
HETATM   11  O8  UNL     1     165.721  51.225   7.137  1.00  0.00    -0.270 OA
ATOM     12  H7  UNL     1     163.925  51.939   8.754  1.00  0.00     0.164 HD
BRANCH   6  13
HETATM   13  O3  UNL     1     165.492  49.659  12.151  1.00  0.00    -0.367 OA
ATOM     14  H3  UNL     1     164.934  48.919  12.361  1.00  0.00     0.212 HD
ENDBRANCH   6  13
BRANCH   8  15
HETATM   15  C1  UNL     1     168.091  51.099   8.867  1.00  0.00     0.273 C 
HETATM   16  N3  UNL     1     167.943  52.421   8.374  1.00  0.00    -0.252 N 
ATOM     17  H3  UNL     1     167.018  52.748   8.096  1.00  0.00     0.187 HD
HETATM   18  O1  UNL     1     169.226  50.677   9.214  1.00  0.00    -0.269 OA
BRANCH  16  19
HETATM   19  N2  UNL     1     169.030  53.282   8.260  1.00  0.00    -0.027 NA
BRANCH  19  20
HETATM   20  N1  UNL     1     169.949  52.891   7.297  1.00  0.00    -0.329 N 
ATOM     21  H12 UNL     1     170.520  52.052   7.397  1.00  0.00     0.174 HD
ATOM     22  H11 UNL     1     169.990  53.518   6.494  1.00  0.00     0.174 HD
ENDBRANCH  19  20
ENDBRANCH  16  19
ENDBRANCH   8  15
ENDBRANCH   1   5
BRANCH   3  23
HETATM   23  C6  UNL     1     162.013  51.529  13.175  1.00  0.00     0.288 C 
BRANCH  23  24
HETATM   24  N5  UNL     1     161.412  52.840  13.247  1.00  0.00    -0.066 N 
ATOM     25  H53 UNL     1     161.079  53.148  12.333  1.00  0.00     0.275 HD
ATOM     26  H52 UNL     1     160.520  52.814  13.740  1.00  0.00     0.275 HD
ATOM     27  H51 UNL     1     162.046  53.524  13.661  1.00  0.00     0.275 HD
ENDBRANCH  23  24
BRANCH  23  28
HETATM   28  C7  UNL     1     162.093  50.840  14.494  1.00  0.00     0.127 C 
HETATM   29  C8  UNL     1     161.702  51.716  15.659  1.00  0.00     0.103 C 
HETATM   30  S1  UNL     1     162.500  51.082  17.183  1.00  0.00    -0.097 SA
HETATM   31  S2  UNL     1     163.853  49.515  16.715  1.00  0.00    -0.095 SA
HETATM   32  C9  UNL     1     163.052  47.899  16.897  1.00  0.00     0.122 C 
HETATM   33  C10 UNL     1     161.566  48.082  16.709  1.00  0.00     0.195 C 
HETATM   34  N6  UNL     1     161.267  48.452  15.345  1.00  0.00    -0.345 N 
HETATM   35  C12 UNL     1     161.295  49.602  14.536  1.00  0.00     0.225 C 
ATOM     36  H6  UNL     1     160.940  47.644  14.815  1.00  0.00     0.163 HD
HETATM   37  O7  UNL     1     160.422  49.588  13.604  1.00  0.00    -0.273 OA
BRANCH  33  38
HETATM   38  C11 UNL     1     160.809  46.873  17.127  1.00  0.00     0.197 C 
HETATM   39  O5  UNL     1     160.194  46.237  16.227  1.00  0.00    -0.646 OA
HETATM   40  O6  UNL     1     160.737  46.412  18.415  1.00  0.00    -0.646 OA
ENDBRANCH  33  38
ENDBRANCH  23  28
ENDBRANCH   3  23
TORSDOF 9
ENDMDL
MODEL 5
REMARK VINA RESULT: -7.058803461      1.189      1.331
REMARK  9 active torsions:
REMARK  status: ('A' for Active; 'I' for Inactive)
REMARK    1  A    between atoms: N1_1  and  N2_4 
REMARK    2  A    between atoms: N2_4  and  N3_5 
REMARK       I    between atoms: N3_5  and  C1_7 
REMARK    3  A    between atoms: C1_7  and  C2_9 
REMARK    4  A    between atoms: C3_11  and  O3_12 
REMARK    5  A    between atoms: C4_14  and  N4_15 
REMARK       I    between atoms: N4_15  and  C5_17 
REMARK    6  A    between atoms: C5_17  and  C6_19 
REMARK    7  A    between atoms: C6_19  and  N5_20 
REMARK    8  A    between atoms: C6_19  and  C7_24 
REMARK    9  A    between atoms: C10_29  and  C11_30 
ROOT
HETATM    1  N4  UNL     1     164.329  50.378  12.486  1.00  0.00    -0.334 N 
ATOM      2  H4  UNL     1     164.544  49.526  13.003  1.00  0.00     0.164 HD
HETATM    3  C5  UNL     1     163.176  51.125  12.808  1.00  0.00     0.251 C 
HETATM    4  O4  UNL     1     162.930  52.171  12.162  1.00  0.00    -0.271 OA
ENDROOT
BRANCH   1   5
HETATM    5  C4  UNL     1     165.197  50.815  11.435  1.00  0.00     0.242 C 
HETATM    6  C3  UNL     1     166.275  49.726  11.278  1.00  0.00     0.301 C 
HETATM    7  O2  UNL     1     167.180  50.066  10.310  1.00  0.00    -0.333 OA
HETATM    8  C2  UNL     1     166.698  50.363   9.074  1.00  0.00     0.309 C 
HETATM    9  C13 UNL     1     165.258  50.656   8.995  1.00  0.00     0.258 C 
HETATM   10  N7  UNL     1     164.506  50.824  10.169  1.00  0.00    -0.333 N 
HETATM   11  O8  UNL     1     164.659  50.761   7.899  1.00  0.00    -0.270 OA
ATOM     12  H7  UNL     1     163.495  50.951  10.127  1.00  0.00     0.164 HD
BRANCH   6  13
HETATM   13  O3  UNL     1     166.932  49.641  12.506  1.00  0.00    -0.367 OA
ATOM     14  H3  UNL     1     166.363  49.208  13.132  1.00  0.00     0.212 HD
ENDBRANCH   6  13
BRANCH   8  15
HETATM   15  C1  UNL     1     167.393  51.602   8.562  1.00  0.00     0.273 C 
HETATM   16  N3  UNL     1     167.271  51.944   7.191  1.00  0.00    -0.252 N 
ATOM     17  H3  UNL     1     166.716  51.348   6.577  1.00  0.00     0.187 HD
HETATM   18  O1  UNL     1     168.075  52.325   9.336  1.00  0.00    -0.269 OA
BRANCH  16  19
HETATM   19  N2  UNL     1     167.890  53.073   6.663  1.00  0.00    -0.027 NA
BRANCH  19  20
HETATM   20  N1  UNL     1     169.271  53.061   6.796  1.00  0.00    -0.329 N 
ATOM     21  H12 UNL     1     169.734  53.224   7.690  1.00  0.00     0.174 HD
ATOM     22  H11 UNL     1     169.763  52.876   5.922  1.00  0.00     0.174 HD
ENDBRANCH  19  20
ENDBRANCH  16  19
ENDBRANCH   8  15
ENDBRANCH   1   5
BRANCH   3  23
HETATM   23  C6  UNL     1     162.279  50.672  13.898  1.00  0.00     0.288 C 
BRANCH  23  24
HETATM   24  N5  UNL     1     161.255  51.649  14.187  1.00  0.00    -0.066 N 
ATOM     25  H53 UNL     1     160.885  51.533  15.131  1.00  0.00     0.275 HD
ATOM     26  H52 UNL     1     161.650  52.584  14.285  1.00  0.00     0.275 HD
ATOM     27  H51 UNL     1     160.510  51.631  13.491  1.00  0.00     0.275 HD
ENDBRANCH  23  24
BRANCH  23  28
HETATM   28  C7  UNL     1     163.092  50.294  15.088  1.00  0.00     0.127 C 
HETATM   29  C8  UNL     1     162.807  51.135  16.307  1.00  0.00     0.103 C 
HETATM   30  S1  UNL     1     164.272  51.116  17.409  1.00  0.00    -0.097 SA
HETATM   31  S2  UNL     1     165.897  50.128  16.465  1.00  0.00    -0.095 SA
HETATM   32  C9  UNL     1     165.958  48.383  16.952  1.00  0.00     0.122 C 
HETATM   33  C10 UNL     1     164.568  47.952  17.352  1.00  0.00     0.195 C 
HETATM   34  N6  UNL     1     163.687  47.948  16.207  1.00  0.00    -0.345 N 
HETATM   35  C12 UNL     1     162.950  48.871  15.442  1.00  0.00     0.225 C 
ATOM     36  H6  UNL     1     163.563  47.002  15.850  1.00  0.00     0.163 HD
HETATM   37  O7  UNL     1     161.898  48.372  14.920  1.00  0.00    -0.273 OA
BRANCH  33  38
HETATM   38  C11 UNL     1     164.580  46.633  18.038  1.00  0.00     0.197 C 
HETATM   39  O5  UNL     1     164.060  45.659  17.425  1.00  0.00    -0.646 OA
HETATM   40  O6  UNL     1     165.114  46.412  19.279  1.00  0.00    -0.646 OA
ENDBRANCH  33  38
ENDBRANCH  23  28
ENDBRANCH   3  23
TORSDOF 9
ENDMDL
