MODEL 1
REMARK VINA RESULT: -7.571565487      0.000      0.000
REMARK  9 active torsions:
REMARK  status: ('A' for Active; 'I' for Inactive)
REMARK    1  A    between atoms: N1_1  and  C1_5 
REMARK    2  A    between atoms: C3_7  and  C4_8 
REMARK    3  A    between atoms: N2_11  and  C5_12 
REMARK    4  A    between atoms: C5_12  and  C6_17 
REMARK    5  A    between atoms: N3_13  and  O3_15 
REMARK    6  A    between atoms: C8_22  and  C9_23 
REMARK    7  A    between atoms: C9_23  and  O5_24 
REMARK    8  A    between atoms: C11_29  and  C12_30 
REMARK    9  A    between atoms: C16_43  and  N9_44 
ROOT
HETATM    1  C6  UNL     1     165.889  51.235  10.364  1.00  0.00     0.205 C 
HETATM    2  C7  UNL     1     166.018  49.938  11.101  1.00  0.00     0.234 C 
HETATM    3  O4  UNL     1     166.889  49.072  10.865  1.00  0.00    -0.273 OA
HETATM    4  N4  UNL     1     165.060  49.708  12.144  1.00  0.00    -0.328 N 
ATOM      5  H4  UNL     1     165.267  49.011  12.859  1.00  0.00     0.164 HD
HETATM    6  C8  UNL     1     163.811  50.434  12.211  1.00  0.00     0.354 C 
HETATM    7  N8  UNL     1     163.909  51.706  11.568  1.00  0.00    -0.019 N 
ATOM      8  H81 UNL     1     164.479  52.377  12.083  1.00  0.00     0.282 HD
ATOM      9  H82 UNL     1     163.039  52.237  11.588  1.00  0.00     0.282 HD
HETATM   10  C16 UNL     1     164.405  51.444  10.197  1.00  0.00     0.403 C 
ENDROOT
BRANCH   1  11
HETATM   11  C5  UNL     1     166.686  51.293   9.143  1.00  0.00     0.117 C 
HETATM   12  N3  UNL     1     166.313  50.642   8.096  1.00  0.00    -0.256 N 
ATOM     13  H3  UNL     1     165.439  50.117   8.140  1.00  0.00     0.195 HD
BRANCH  11  14
HETATM   14  N2  UNL     1     167.886  52.026   9.106  1.00  0.00    -0.352 N 
HETATM   15  C3  UNL     1     168.292  53.220   8.439  1.00  0.00     0.188 C 
HETATM   16  C2  UNL     1     169.826  53.128   8.303  1.00  0.00     0.070 C 
HETATM   17  C1  UNL     1     170.162  51.764   8.865  1.00  0.00     0.204 C 
HETATM   18  C17 UNL     1     169.064  51.596   9.882  1.00  0.00     0.158 C 
BRANCH  15  19
HETATM   19  C4  UNL     1     167.775  53.445   7.095  1.00  0.00     0.196 C 
HETATM   20  O1  UNL     1     168.656  53.534   6.166  1.00  0.00    -0.646 OA
HETATM   21  O2  UNL     1     166.464  53.569   6.743  1.00  0.00    -0.646 OA
ENDBRANCH  15  19
BRANCH  17  22
HETATM   22  N1  UNL     1     171.478  51.746   9.480  1.00  0.00    -0.073 N 
ATOM     23  H13 UNL     1     172.211  51.927   8.794  1.00  0.00     0.274 HD
ATOM     24  H12 UNL     1     171.618  52.558  10.081  1.00  0.00     0.274 HD
ATOM     25  H11 UNL     1     171.646  50.876   9.985  1.00  0.00     0.274 HD
ENDBRANCH  17  22
ENDBRANCH  11  14
BRANCH  12  26
HETATM   26  O3  UNL     1     167.025  50.618   6.929  1.00  0.00    -0.288 OA
ATOM     27  H3  UNL     1     166.766  50.113   6.167  1.00  0.00     0.244 HD
ENDBRANCH  12  26
ENDBRANCH   1  11
BRANCH  10  28
HETATM   28  N9  UNL     1     163.838  50.140   9.810  1.00  0.00    -0.049 N 
ATOM     29  H93 UNL     1     163.446  50.134   8.868  1.00  0.00     0.276 HD
ATOM     30  H92 UNL     1     164.546  49.422   9.657  1.00  0.00     0.276 HD
ATOM     31  H91 UNL     1     163.161  49.892  10.530  1.00  0.00     0.276 HD
ENDBRANCH  10  28
BRANCH   6  32
HETATM   32  C9  UNL     1     163.349  50.569  13.669  1.00  0.00     0.258 C 
HETATM   33  N5  UNL     1     162.649  49.375  13.987  1.00  0.00    -0.379 N 
HETATM   34  C10 UNL     1     161.299  49.536  14.420  1.00  0.00     0.149 C 
ATOM     35  H5  UNL     1     163.085  48.456  13.910  1.00  0.00     0.156 HD
HETATM   36  C11 UNL     1     161.283  49.324  15.941  1.00  0.00     0.159 C 
HETATM   37  N6  UNL     1     162.062  48.258  16.390  1.00  0.00    -0.388 N 
HETATM   38  C13 UNL     1     163.458  48.347  16.512  1.00  0.00     0.076 C 
ATOM     39  H6  UNL     1     161.601  47.383  16.639  1.00  0.00     0.159 HD
HETATM   40  C14 UNL     1     164.065  49.684  16.767  1.00  0.00     0.166 C 
HETATM   41  N7  UNL     1     164.919  50.139  15.677  1.00  0.00    -0.352 N 
HETATM   42  C15 UNL     1     164.510  50.866  14.550  1.00  0.00     0.277 C 
ATOM     43  H7  UNL     1     165.910  49.905  15.740  1.00  0.00     0.162 HD
HETATM   44  O7  UNL     1     165.163  51.894  14.199  1.00  0.00    -0.268 OA
BRANCH  32  45
HETATM   45  O5  UNL     1     162.482  51.664  13.709  1.00  0.00    -0.360 OA
ATOM     46  H5  UNL     1     161.812  51.453  14.348  1.00  0.00     0.213 HD
ENDBRANCH  32  45
BRANCH  36  47
HETATM   47  C12 UNL     1     159.840  49.031  16.255  1.00  0.00     0.257 C 
HETATM   48  O6  UNL     1     159.333  47.994  15.889  1.00  0.00    -0.305 OA
ENDBRANCH  36  47
ENDBRANCH   6  32
TORSDOF 9
ENDMDL
MODEL 2
REMARK VINA RESULT: -7.500367975      2.036      2.887
REMARK  9 active torsions:
REMARK  status: ('A' for Active; 'I' for Inactive)
REMARK    1  A    between atoms: N1_1  and  C1_5 
REMARK    2  A    between atoms: C3_7  and  C4_8 
REMARK    3  A    between atoms: N2_11  and  C5_12 
REMARK    4  A    between atoms: C5_12  and  C6_17 
REMARK    5  A    between atoms: N3_13  and  O3_15 
REMARK    6  A    between atoms: C8_22  and  C9_23 
REMARK    7  A    between atoms: C9_23  and  O5_24 
REMARK    8  A    between atoms: C11_29  and  C12_30 
REMARK    9  A    between atoms: C16_43  and  N9_44 
ROOT
HETATM    1  C6  UNL     1     165.887  51.168  10.673  1.00  0.00     0.205 C 
HETATM    2  C7  UNL     1     165.831  49.993  11.598  1.00  0.00     0.234 C 
HETATM    3  O4  UNL     1     166.690  49.085  11.645  1.00  0.00    -0.273 OA
HETATM    4  N4  UNL     1     164.699  49.937  12.478  1.00  0.00    -0.328 N 
ATOM      5  H4  UNL     1     164.749  49.350  13.311  1.00  0.00     0.164 HD
HETATM    6  C8  UNL     1     163.490  50.689  12.221  1.00  0.00     0.354 C 
HETATM    7  N8  UNL     1     163.753  51.850  11.431  1.00  0.00    -0.019 N 
ATOM      8  H81 UNL     1     164.256  52.579  11.937  1.00  0.00     0.282 HD
ATOM      9  H82 UNL     1     162.917  52.395  11.221  1.00  0.00     0.282 HD
HETATM   10  C16 UNL     1     164.465  51.378  10.220  1.00  0.00     0.403 C 
ENDROOT
BRANCH   1  11
HETATM   11  C5  UNL     1     166.883  51.030   9.616  1.00  0.00     0.117 C 
HETATM   12  N3  UNL     1     167.341  49.867   9.307  1.00  0.00    -0.256 N 
ATOM     13  H3  UNL     1     166.968  49.055   9.798  1.00  0.00     0.195 HD
BRANCH  11  14
HETATM   14  N2  UNL     1     167.382  52.165   8.950  1.00  0.00    -0.352 N 
HETATM   15  C3  UNL     1     166.863  53.018   7.931  1.00  0.00     0.188 C 
HETATM   16  C2  UNL     1     168.091  53.634   7.228  1.00  0.00     0.070 C 
HETATM   17  C1  UNL     1     169.270  52.965   7.900  1.00  0.00     0.204 C 
HETATM   18  C17 UNL     1     168.711  52.715   9.276  1.00  0.00     0.158 C 
BRANCH  15  19
HETATM   19  C4  UNL     1     166.060  52.399   6.884  1.00  0.00     0.196 C 
HETATM   20  O1  UNL     1     165.524  53.205   6.041  1.00  0.00    -0.646 OA
HETATM   21  O2  UNL     1     165.830  51.065   6.724  1.00  0.00    -0.646 OA
ENDBRANCH  15  19
BRANCH  17  22
HETATM   22  N1  UNL     1     170.431  53.837   7.937  1.00  0.00    -0.073 N 
ATOM     23  H13 UNL     1     170.203  54.774   7.604  1.00  0.00     0.274 HD
ATOM     24  H12 UNL     1     170.693  54.068   8.895  1.00  0.00     0.274 HD
ATOM     25  H11 UNL     1     171.217  53.440   7.422  1.00  0.00     0.274 HD
ENDBRANCH  17  22
ENDBRANCH  11  14
BRANCH  12  26
HETATM   26  O3  UNL     1     168.301  49.661   8.355  1.00  0.00    -0.288 OA
ATOM     27  H3  UNL     1     169.233  49.679   8.537  1.00  0.00     0.244 HD
ENDBRANCH  12  26
ENDBRANCH   1  11
BRANCH  10  28
HETATM   28  N9  UNL     1     163.916  50.043   9.928  1.00  0.00    -0.049 N 
ATOM     29  H93 UNL     1     163.279  50.033   9.131  1.00  0.00     0.276 HD
ATOM     30  H92 UNL     1     164.607  49.397   9.546  1.00  0.00     0.276 HD
ATOM     31  H91 UNL     1     163.486  49.710  10.791  1.00  0.00     0.276 HD
ENDBRANCH  10  28
BRANCH   6  32
HETATM   32  C9  UNL     1     162.792  51.046  13.540  1.00  0.00     0.258 C 
HETATM   33  N5  UNL     1     163.808  51.472  14.436  1.00  0.00    -0.379 N 
HETATM   34  C10 UNL     1     163.913  50.741  15.658  1.00  0.00     0.149 C 
ATOM     35  H5  UNL     1     164.427  52.253  14.220  1.00  0.00     0.156 HD
HETATM   36  C11 UNL     1     163.307  51.618  16.764  1.00  0.00     0.159 C 
HETATM   37  N6  UNL     1     163.657  52.966  16.698  1.00  0.00    -0.388 N 
HETATM   38  C13 UNL     1     163.054  53.855  15.793  1.00  0.00     0.076 C 
ATOM     39  H6  UNL     1     164.376  53.319  17.329  1.00  0.00     0.159 HD
HETATM   40  C14 UNL     1     161.663  53.572  15.339  1.00  0.00     0.166 C 
HETATM   41  N7  UNL     1     161.575  53.296  13.911  1.00  0.00    -0.352 N 
HETATM   42  C15 UNL     1     161.716  52.043  13.297  1.00  0.00     0.277 C 
ATOM     43  H7  UNL     1     161.394  54.091  13.298  1.00  0.00     0.162 HD
HETATM   44  O7  UNL     1     160.863  51.670  12.437  1.00  0.00    -0.268 OA
BRANCH  32  45
HETATM   45  O5  UNL     1     162.198  49.870  14.005  1.00  0.00    -0.360 OA
ATOM     46  H5  UNL     1     161.998  49.349  13.236  1.00  0.00     0.213 HD
ENDBRANCH  32  45
BRANCH  36  47
HETATM   47  C12 UNL     1     163.863  51.039  18.037  1.00  0.00     0.257 C 
HETATM   48  O6  UNL     1     164.590  50.072  18.002  1.00  0.00    -0.305 OA
ENDBRANCH  36  47
ENDBRANCH   6  32
TORSDOF 9
ENDMDL
MODEL 3
REMARK VINA RESULT: -7.354724410      2.232      8.606
REMARK  9 active torsions:
REMARK  status: ('A' for Active; 'I' for Inactive)
REMARK    1  A    between atoms: N1_1  and  C1_5 
REMARK    2  A    between atoms: C3_7  and  C4_8 
REMARK    3  A    between atoms: N2_11  and  C5_12 
REMARK    4  A    between atoms: C5_12  and  C6_17 
REMARK    5  A    between atoms: N3_13  and  O3_15 
REMARK    6  A    between atoms: C8_22  and  C9_23 
REMARK    7  A    between atoms: C9_23  and  O5_24 
REMARK    8  A    between atoms: C11_29  and  C12_30 
REMARK    9  A    between atoms: C16_43  and  N9_44 
ROOT
HETATM    1  C6  UNL     1     164.525  51.390  11.668  1.00  0.00     0.205 C 
HETATM    2  C7  UNL     1     164.698  50.990  10.236  1.00  0.00     0.234 C 
HETATM    3  O4  UNL     1     163.758  50.728   9.454  1.00  0.00    -0.273 OA
HETATM    4  N4  UNL     1     166.051  50.911   9.764  1.00  0.00    -0.328 N 
ATOM      5  H4  UNL     1     166.225  50.939   8.759  1.00  0.00     0.164 HD
HETATM    6  C8  UNL     1     167.174  50.794  10.668  1.00  0.00     0.354 C 
HETATM    7  N8  UNL     1     166.872  51.345  11.951  1.00  0.00    -0.019 N 
ATOM      8  H81 UNL     1     166.810  52.364  11.950  1.00  0.00     0.282 HD
ATOM      9  H82 UNL     1     167.642  51.267  12.616  1.00  0.00     0.282 HD
HETATM   10  C16 UNL     1     165.630  50.681  12.410  1.00  0.00     0.403 C 
ENDROOT
BRANCH   1  11
HETATM   11  C5  UNL     1     163.173  51.175  12.174  1.00  0.00     0.117 C 
HETATM   12  N3  UNL     1     162.229  50.830  11.369  1.00  0.00    -0.256 N 
ATOM     13  H3  UNL     1     162.462  50.686  10.386  1.00  0.00     0.195 HD
BRANCH  11  14
HETATM   14  N2  UNL     1     162.877  51.379  13.534  1.00  0.00    -0.352 N 
HETATM   15  C3  UNL     1     162.965  50.555  14.696  1.00  0.00     0.188 C 
HETATM   16  C2  UNL     1     161.934  51.122  15.694  1.00  0.00     0.070 C 
HETATM   17  C1  UNL     1     161.253  52.234  14.926  1.00  0.00     0.204 C 
HETATM   18  C17 UNL     1     162.368  52.676  14.016  1.00  0.00     0.158 C 
BRANCH  15  19
HETATM   19  C4  UNL     1     162.648  49.141  14.540  1.00  0.00     0.196 C 
HETATM   20  O1  UNL     1     163.622  48.388  14.177  1.00  0.00    -0.646 OA
HETATM   21  O2  UNL     1     161.433  48.557  14.739  1.00  0.00    -0.646 OA
ENDBRANCH  15  19
BRANCH  17  22
HETATM   22  N1  UNL     1     160.814  53.303  15.806  1.00  0.00    -0.073 N 
ATOM     23  H13 UNL     1     161.531  53.538  16.492  1.00  0.00     0.274 HD
ATOM     24  H12 UNL     1     160.768  54.194  15.313  1.00  0.00     0.274 HD
ATOM     25  H11 UNL     1     159.927  53.079  16.256  1.00  0.00     0.274 HD
ENDBRANCH  17  22
ENDBRANCH  11  14
BRANCH  12  26
HETATM   26  O3  UNL     1     160.932  50.647  11.760  1.00  0.00    -0.288 OA
ATOM     27  H3  UNL     1     160.226  50.446  11.157  1.00  0.00     0.244 HD
ENDBRANCH  12  26
ENDBRANCH   1  11
BRANCH  10  28
HETATM   28  N9  UNL     1     165.686  49.312  11.870  1.00  0.00    -0.049 N 
ATOM     29  H93 UNL     1     166.583  48.851  12.030  1.00  0.00     0.276 HD
ATOM     30  H92 UNL     1     165.109  48.650  12.389  1.00  0.00     0.276 HD
ATOM     31  H91 UNL     1     165.437  49.377  10.884  1.00  0.00     0.276 HD
ENDBRANCH  10  28
BRANCH   6  32
HETATM   32  C9  UNL     1     168.424  51.437  10.053  1.00  0.00     0.258 C 
HETATM   33  N5  UNL     1     167.975  52.527   9.262  1.00  0.00    -0.379 N 
HETATM   34  C10 UNL     1     168.336  52.491   7.881  1.00  0.00     0.149 C 
ATOM     35  H5  UNL     1     167.426  53.291   9.656  1.00  0.00     0.156 HD
HETATM   36  C11 UNL     1     169.474  53.504   7.685  1.00  0.00     0.159 C 
HETATM   37  N6  UNL     1     169.300  54.715   8.352  1.00  0.00    -0.388 N 
HETATM   38  C13 UNL     1     169.540  54.855   9.729  1.00  0.00     0.076 C 
ATOM     39  H6  UNL     1     168.986  55.528   7.822  1.00  0.00     0.159 HD
HETATM   40  C14 UNL     1     170.537  53.953  10.371  1.00  0.00     0.166 C 
HETATM   41  N7  UNL     1     169.945  53.065  11.364  1.00  0.00    -0.352 N 
HETATM   42  C15 UNL     1     169.393  51.799  11.122  1.00  0.00     0.277 C 
ATOM     43  H7  UNL     1     169.931  53.397  12.329  1.00  0.00     0.162 HD
HETATM   44  O7  UNL     1     169.720  50.823  11.861  1.00  0.00    -0.268 OA
BRANCH  32  45
HETATM   45  O5  UNL     1     169.013  50.462   9.244  1.00  0.00    -0.360 OA
ATOM     46  H5  UNL     1     168.341  50.175   8.637  1.00  0.00     0.213 HD
ENDBRANCH  32  45
BRANCH  36  47
HETATM   47  C12 UNL     1     169.477  53.768   6.203  1.00  0.00     0.257 C 
HETATM   48  O6  UNL     1     168.440  53.989   5.619  1.00  0.00    -0.305 OA
ENDBRANCH  36  47
ENDBRANCH   6  32
TORSDOF 9
ENDMDL
MODEL 4
REMARK VINA RESULT: -7.331144427      2.273      9.046
REMARK  9 active torsions:
REMARK  status: ('A' for Active; 'I' for Inactive)
REMARK    1  A    between atoms: N1_1  and  C1_5 
REMARK    2  A    between atoms: C3_7  and  C4_8 
REMARK    3  A    between atoms: N2_11  and  C5_12 
REMARK    4  A    between atoms: C5_12  and  C6_17 
REMARK    5  A    between atoms: N3_13  and  O3_15 
REMARK    6  A    between atoms: C8_22  and  C9_23 
REMARK    7  A    between atoms: C9_23  and  O5_24 
REMARK    8  A    between atoms: C11_29  and  C12_30 
REMARK    9  A    between atoms: C16_43  and  N9_44 
ROOT
HETATM    1  C6  UNL     1     162.066  50.676  14.598  1.00  0.00     0.205 C 
HETATM    2  C7  UNL     1     163.346  51.449  14.528  1.00  0.00     0.234 C 
HETATM    3  O4  UNL     1     163.869  52.045  15.495  1.00  0.00    -0.273 OA
HETATM    4  N4  UNL     1     163.989  51.487  13.246  1.00  0.00    -0.328 N 
ATOM      5  H4  UNL     1     164.979  51.729  13.197  1.00  0.00     0.164 HD
HETATM    6  C8  UNL     1     163.278  51.191  12.022  1.00  0.00     0.354 C 
HETATM    7  N8  UNL     1     162.159  50.336  12.260  1.00  0.00    -0.019 N 
ATOM      8  H81 UNL     1     162.424  49.378  12.493  1.00  0.00     0.282 HD
ATOM      9  H82 UNL     1     161.628  50.119  11.416  1.00  0.00     0.282 HD
HETATM   10  C16 UNL     1     161.347  50.992  13.311  1.00  0.00     0.403 C 
ENDROOT
BRANCH   1  11
HETATM   11  C5  UNL     1     161.312  50.908  15.826  1.00  0.00     0.117 C 
HETATM   12  N3  UNL     1     161.158  52.105  16.274  1.00  0.00    -0.256 N 
ATOM     13  H3  UNL     1     161.549  52.877  15.734  1.00  0.00     0.195 HD
BRANCH  11  14
HETATM   14  N2  UNL     1     160.781  49.827  16.554  1.00  0.00    -0.352 N 
HETATM   15  C3  UNL     1     161.360  48.795  17.351  1.00  0.00     0.188 C 
HETATM   16  C2  UNL     1     160.354  47.625  17.323  1.00  0.00     0.070 C 
HETATM   17  C1  UNL     1     159.266  48.099  16.385  1.00  0.00     0.204 C 
HETATM   18  C17 UNL     1     159.326  49.588  16.607  1.00  0.00     0.158 C 
BRANCH  15  19
HETATM   19  C4  UNL     1     162.637  48.247  16.911  1.00  0.00     0.196 C 
HETATM   20  O1  UNL     1     163.681  48.765  17.448  1.00  0.00    -0.646 OA
HETATM   21  O2  UNL     1     162.819  47.253  15.997  1.00  0.00    -0.646 OA
ENDBRANCH  15  19
BRANCH  17  22
HETATM   22  N1  UNL     1     157.971  47.550  16.744  1.00  0.00    -0.073 N 
ATOM     23  H13 UNL     1     157.921  47.334  17.739  1.00  0.00     0.274 HD
ATOM     24  H12 UNL     1     157.240  48.259  16.698  1.00  0.00     0.274 HD
ATOM     25  H11 UNL     1     157.736  46.737  16.174  1.00  0.00     0.274 HD
ENDBRANCH  17  22
ENDBRANCH  11  14
BRANCH  12  26
HETATM   26  O3  UNL     1     160.498  52.398  17.435  1.00  0.00    -0.288 OA
ATOM     27  H3  UNL     1     160.935  52.681  18.230  1.00  0.00     0.244 HD
ENDBRANCH  12  26
ENDBRANCH   1  11
BRANCH  10  28
HETATM   28  N9  UNL     1     161.500  52.440  13.088  1.00  0.00    -0.049 N 
ATOM     29  H93 UNL     1     161.889  52.669  12.173  1.00  0.00     0.276 HD
ATOM     30  H92 UNL     1     160.611  52.927  12.974  1.00  0.00     0.276 HD
ATOM     31  H91 UNL     1     162.058  52.796  13.863  1.00  0.00     0.276 HD
ENDBRANCH  10  28
BRANCH   6  32
HETATM   32  C9  UNL     1     164.234  50.599  10.978  1.00  0.00     0.258 C 
HETATM   33  N5  UNL     1     164.848  51.696  10.319  1.00  0.00    -0.379 N 
HETATM   34  C10 UNL     1     164.674  51.755   8.903  1.00  0.00     0.149 C 
ATOM     35  H5  UNL     1     165.382  52.401  10.827  1.00  0.00     0.156 HD
HETATM   36  C11 UNL     1     166.000  51.312   8.265  1.00  0.00     0.159 C 
HETATM   37  N6  UNL     1     167.142  51.829   8.873  1.00  0.00    -0.388 N 
HETATM   38  C13 UNL     1     167.655  51.311  10.073  1.00  0.00     0.076 C 
ATOM     39  H6  UNL     1     167.622  52.612   8.431  1.00  0.00     0.159 HD
HETATM   40  C14 UNL     1     167.401  49.877  10.393  1.00  0.00     0.166 C 
HETATM   41  N7  UNL     1     166.579  49.697  11.584  1.00  0.00    -0.352 N 
HETATM   42  C15 UNL     1     165.178  49.650  11.626  1.00  0.00     0.277 C 
ATOM     43  H7  UNL     1     167.070  49.595  12.472  1.00  0.00     0.162 HD
HETATM   44  O7  UNL     1     164.603  48.723  12.271  1.00  0.00    -0.268 OA
BRANCH  32  45
HETATM   45  O5  UNL     1     163.441  49.877  10.081  1.00  0.00    -0.360 OA
ATOM     46  H5  UNL     1     163.581  48.958  10.278  1.00  0.00     0.213 HD
ENDBRANCH  32  45
BRANCH  36  47
HETATM   47  C12 UNL     1     165.923  51.839   6.857  1.00  0.00     0.257 C 
HETATM   48  O6  UNL     1     165.471  52.941   6.641  1.00  0.00    -0.305 OA
ENDBRANCH  36  47
ENDBRANCH   6  32
TORSDOF 9
ENDMDL
MODEL 5
REMARK VINA RESULT: -7.274504197      2.499      3.738
REMARK  9 active torsions:
REMARK  status: ('A' for Active; 'I' for Inactive)
REMARK    1  A    between atoms: N1_1  and  C1_5 
REMARK    2  A    between atoms: C3_7  and  C4_8 
REMARK    3  A    between atoms: N2_11  and  C5_12 
REMARK    4  A    between atoms: C5_12  and  C6_17 
REMARK    5  A    between atoms: N3_13  and  O3_15 
REMARK    6  A    between atoms: C8_22  and  C9_23 
REMARK    7  A    between atoms: C9_23  and  O5_24 
REMARK    8  A    between atoms: C11_29  and  C12_30 
REMARK    9  A    between atoms: C16_43  and  N9_44 
ROOT
HETATM    1  C6  UNL     1     167.898  52.259   9.392  1.00  0.00     0.205 C 
HETATM    2  C7  UNL     1     168.390  51.202  10.332  1.00  0.00     0.234 C 
HETATM    3  O4  UNL     1     169.594  51.003  10.608  1.00  0.00    -0.273 OA
HETATM    4  N4  UNL     1     167.383  50.381  10.939  1.00  0.00    -0.328 N 
ATOM      5  H4  UNL     1     167.613  49.862  11.786  1.00  0.00     0.164 HD
HETATM    6  C8  UNL     1     166.051  50.266  10.386  1.00  0.00     0.354 C 
HETATM    7  N8  UNL     1     165.699  51.422   9.625  1.00  0.00    -0.019 N 
ATOM      8  H81 UNL     1     165.533  52.249  10.198  1.00  0.00     0.282 HD
ATOM      9  H82 UNL     1     164.768  51.366   9.211  1.00  0.00     0.282 HD
HETATM   10  C16 UNL     1     166.775  51.608   8.624  1.00  0.00     0.403 C 
ENDROOT
BRANCH   1  11
HETATM   11  C5  UNL     1     168.957  52.864   8.590  1.00  0.00     0.117 C 
HETATM   12  N3  UNL     1     169.813  52.119   7.982  1.00  0.00    -0.256 N 
ATOM     13  H3  UNL     1     169.710  51.107   8.055  1.00  0.00     0.195 HD
BRANCH  11  14
HETATM   14  N2  UNL     1     169.077  54.263   8.503  1.00  0.00    -0.352 N 
HETATM   15  C3  UNL     1     168.472  55.255   7.676  1.00  0.00     0.188 C 
HETATM   16  C2  UNL     1     169.461  56.439   7.644  1.00  0.00     0.070 C 
HETATM   17  C1  UNL     1     170.650  55.945   8.437  1.00  0.00     0.204 C 
HETATM   18  C17 UNL     1     169.978  55.006   9.404  1.00  0.00     0.158 C 
BRANCH  15  19
HETATM   19  C4  UNL     1     168.212  54.901   6.286  1.00  0.00     0.196 C 
HETATM   20  O1  UNL     1     167.224  55.503   5.732  1.00  0.00    -0.646 OA
HETATM   21  O2  UNL     1     168.911  54.003   5.537  1.00  0.00    -0.646 OA
ENDBRANCH  15  19
BRANCH  17  22
HETATM   22  N1  UNL     1     171.329  57.032   9.120  1.00  0.00    -0.073 N 
ATOM     23  H13 UNL     1     170.682  57.785   9.354  1.00  0.00     0.274 HD
ATOM     24  H12 UNL     1     171.607  56.763  10.063  1.00  0.00     0.274 HD
ATOM     25  H11 UNL     1     172.123  57.377   8.581  1.00  0.00     0.274 HD
ENDBRANCH  17  22
ENDBRANCH  11  14
BRANCH  12  26
HETATM   26  O3  UNL     1     170.853  52.612   7.244  1.00  0.00    -0.288 OA
ATOM     27  H3  UNL     1     170.793  52.802   6.315  1.00  0.00     0.244 HD
ENDBRANCH  12  26
ENDBRANCH   1  11
BRANCH  10  28
HETATM   28  N9  UNL     1     167.235  50.253   8.276  1.00  0.00    -0.049 N 
ATOM     29  H93 UNL     1     168.235  50.115   8.426  1.00  0.00     0.276 HD
ATOM     30  H92 UNL     1     166.910  49.537   8.926  1.00  0.00     0.276 HD
ATOM     31  H91 UNL     1     166.945  50.086   7.313  1.00  0.00     0.276 HD
ENDBRANCH  10  28
BRANCH   6  32
HETATM   32  C9  UNL     1     165.032  49.987  11.500  1.00  0.00     0.258 C 
HETATM   33  N5  UNL     1     165.518  50.634  12.667  1.00  0.00    -0.379 N 
HETATM   34  C10 UNL     1     165.735  49.797  13.803  1.00  0.00     0.149 C 
ATOM     35  H5  UNL     1     165.701  51.637  12.693  1.00  0.00     0.156 HD
HETATM   36  C11 UNL     1     164.580  50.055  14.782  1.00  0.00     0.159 C 
HETATM   37  N6  UNL     1     164.228  51.395  14.931  1.00  0.00    -0.388 N 
HETATM   38  C13 UNL     1     163.451  52.078  13.982  1.00  0.00     0.076 C 
ATOM     39  H6  UNL     1     164.547  51.898  15.759  1.00  0.00     0.159 HD
HETATM   40  C14 UNL     1     162.492  51.294  13.153  1.00  0.00     0.166 C 
HETATM   41  N7  UNL     1     162.823  51.308  11.733  1.00  0.00    -0.352 N 
HETATM   42  C15 UNL     1     163.674  50.412  11.070  1.00  0.00     0.277 C 
ATOM     43  H7  UNL     1     162.394  52.040  11.168  1.00  0.00     0.162 HD
HETATM   44  O7  UNL     1     163.294  49.878   9.985  1.00  0.00    -0.268 OA
BRANCH  32  45
HETATM   45  O5  UNL     1     165.017  48.602  11.684  1.00  0.00    -0.360 OA
ATOM     46  H5  UNL     1     164.116  48.366  11.872  1.00  0.00     0.213 HD
ENDBRANCH  32  45
BRANCH  36  47
HETATM   47  C12 UNL     1     165.096  49.543  16.101  1.00  0.00     0.257 C 
HETATM   48  O6  UNL     1     165.398  48.378  16.229  1.00  0.00    -0.305 OA
ENDBRANCH  36  47
ENDBRANCH   6  32
TORSDOF 9
ENDMDL
