MODEL 1
REMARK VINA RESULT: -6.286430171      0.000      0.000
REMARK  7 active torsions:
REMARK  status: ('A' for Active; 'I' for Inactive)
REMARK    1  A    between atoms: C1_4  and  O1_5 
REMARK    2  A    between atoms: C1_4  and  N2_7 
REMARK    3  A    between atoms: N2_7  and  C2_9 
REMARK    4  A    between atoms: C3_16  and  N6_17 
REMARK    5  A    between atoms: C4_21  and  C5_22 
REMARK    6  A    between atoms: C8_29  and  N11_30 
REMARK    7  A    between atoms: C9_33  and  C10_34 
ROOT
HETATM    1  N6  UNL     1      28.546   1.169   6.704  1.00  0.00    -0.213 N 
HETATM    2  N7  UNL     1      28.829   0.796   5.467  1.00  0.00    -0.013 NA
HETATM    3  N8  UNL     1      30.058   1.248   5.157  1.00  0.00    -0.280 N 
ATOM      4  H8  UNL     1      30.530   1.105   4.264  1.00  0.00     0.184 HD
HETATM    5  C4  UNL     1      30.567   1.914   6.208  1.00  0.00     0.093 A 
HETATM    6  C9  UNL     1      29.597   1.856   7.180  1.00  0.00     0.132 A 
ENDROOT
BRANCH   1   7
HETATM    7  C3  UNL     1      27.303   0.859   7.362  1.00  0.00     0.188 A 
HETATM    8  C2  UNL     1      26.065   1.376   7.040  1.00  0.00     0.172 A 
HETATM    9  N3  UNL     1      25.179   0.840   7.888  1.00  0.00    -0.268 N 
HETATM   10  N4  UNL     1      25.836   0.032   8.693  1.00  0.00    -0.239 N 
ATOM     11  H3  UNL     1      24.177   1.025   7.908  1.00  0.00     0.190 HD
HETATM   12  N5  UNL     1      27.116   0.026   8.396  1.00  0.00    -0.266 N 
ATOM     13  H4  UNL     1      25.411  -0.514   9.442  1.00  0.00     0.208 HD
ATOM     14  H5  UNL     1      27.839  -0.516   8.868  1.00  0.00     0.190 HD
BRANCH   8  15
HETATM   15  N2  UNL     1      25.791   2.311   5.985  1.00  0.00    -0.304 N 
ATOM     16  H2  UNL     1      25.003   2.146   5.358  1.00  0.00     0.171 HD
BRANCH  15  17
HETATM   17  C1  UNL     1      26.600   3.458   5.804  1.00  0.00     0.216 C 
HETATM   18  N1  UNL     1      27.159   3.728   4.677  1.00  0.00    -0.365 N 
ATOM     19  H12 UNL     1      27.741   4.555   4.546  1.00  0.00     0.159 HD
ATOM     20  H11 UNL     1      27.018   3.098   3.887  1.00  0.00     0.159 HD
BRANCH  17  21
HETATM   21  O1  UNL     1      26.791   4.315   6.877  1.00  0.00    -0.333 OA
ATOM     22  H1  UNL     1      26.236   5.082   6.964  1.00  0.00     0.220 HD
ENDBRANCH  17  21
ENDBRANCH  15  17
ENDBRANCH   8  15
ENDBRANCH   1   7
BRANCH   6  23
HETATM   23  C10 UNL     1      29.745   2.452   8.499  1.00  0.00     0.168 A 
HETATM   24  N12 UNL     1      29.066   3.520   8.955  1.00  0.00    -0.267 N 
HETATM   25  N13 UNL     1      29.453   3.765  10.170  1.00  0.00    -0.227 N 
ATOM     26  H12 UNL     1      28.366   4.048   8.434  1.00  0.00     0.190 HD
HETATM   27  N14 UNL     1      30.366   2.896  10.535  1.00  0.00    -0.227 N 
ATOM     28  H13 UNL     1      29.099   4.522  10.755  1.00  0.00     0.210 HD
HETATM   29  N15 UNL     1      30.542   2.097   9.514  1.00  0.00    -0.267 N 
ATOM     30  H14 UNL     1      30.844   2.853  11.436  1.00  0.00     0.210 HD
ATOM     31  H15 UNL     1      31.194   1.314   9.494  1.00  0.00     0.190 HD
ENDBRANCH   6  23
BRANCH   5  32
HETATM   32  C5  UNL     1      31.870   2.546   6.251  1.00  0.00     0.053 A 
HETATM   33  C6  UNL     1      33.051   1.892   6.559  1.00  0.00     0.106 A 
HETATM   34  N9  UNL     1      34.230   2.555   6.579  1.00  0.00    -0.361 N 
HETATM   35  C7  UNL     1      34.288   3.868   6.298  1.00  0.00     0.181 A 
ATOM     36  H9  UNL     1      35.087   2.051   6.809  1.00  0.00     0.166 HD
HETATM   37  N10 UNL     1      33.159   4.536   5.995  1.00  0.00    -0.338 N 
HETATM   38  C8  UNL     1      31.976   3.893   5.971  1.00  0.00     0.113 A 
ATOM     39  H10 UNL     1      33.201   5.533   5.783  1.00  0.00     0.168 HD
BRANCH  38  40
HETATM   40  N11 UNL     1      30.903   4.540   5.676  1.00  0.00    -0.385 N 
ATOM     41 2H11 UNL     1      30.027   4.309   6.144  1.00  0.00     0.157 HD
ATOM     42 1H11 UNL     1      30.961   5.277   4.973  1.00  0.00     0.157 HD
ENDBRANCH  38  40
ENDBRANCH   5  32
TORSDOF 7
ENDMDL
MODEL 2
REMARK VINA RESULT: -6.222917191      3.189      7.021
REMARK  7 active torsions:
REMARK  status: ('A' for Active; 'I' for Inactive)
REMARK    1  A    between atoms: C1_4  and  O1_5 
REMARK    2  A    between atoms: C1_4  and  N2_7 
REMARK    3  A    between atoms: N2_7  and  C2_9 
REMARK    4  A    between atoms: C3_16  and  N6_17 
REMARK    5  A    between atoms: C4_21  and  C5_22 
REMARK    6  A    between atoms: C8_29  and  N11_30 
REMARK    7  A    between atoms: C9_33  and  C10_34 
ROOT
HETATM    1  N6  UNL     1      31.707   3.296   9.246  1.00  0.00    -0.213 N 
HETATM    2  N7  UNL     1      30.879   3.436  10.267  1.00  0.00    -0.013 NA
HETATM    3  N8  UNL     1      29.618   3.352   9.808  1.00  0.00    -0.280 N 
ATOM      4  H8  UNL     1      28.776   3.426  10.379  1.00  0.00     0.184 HD
HETATM    5  C4  UNL     1      29.639   3.154   8.478  1.00  0.00     0.093 A 
HETATM    6  C9  UNL     1      30.970   3.121   8.137  1.00  0.00     0.132 A 
ENDROOT
BRANCH   1   7
HETATM    7  C3  UNL     1      33.141   3.338   9.374  1.00  0.00     0.188 A 
HETATM    8  C2  UNL     1      33.923   2.412  10.033  1.00  0.00     0.172 A 
HETATM    9  N3  UNL     1      35.194   2.817   9.923  1.00  0.00    -0.268 N 
HETATM   10  N4  UNL     1      35.197   3.935   9.230  1.00  0.00    -0.239 N 
ATOM     11  H3  UNL     1      36.011   2.344  10.307  1.00  0.00     0.190 HD
HETATM   12  N5  UNL     1      33.974   4.269   8.888  1.00  0.00    -0.266 N 
ATOM     13  H4  UNL     1      36.033   4.468   8.991  1.00  0.00     0.208 HD
ATOM     14  H5  UNL     1      33.704   5.091   8.348  1.00  0.00     0.190 HD
BRANCH   8  15
HETATM   15  N2  UNL     1      33.448   1.234  10.704  1.00  0.00    -0.304 N 
ATOM     16  H2  UNL     1      32.478   0.943  10.585  1.00  0.00     0.171 HD
BRANCH  15  17
HETATM   17  C1  UNL     1      34.310   0.472  11.530  1.00  0.00     0.216 C 
HETATM   18  N1  UNL     1      34.534  -0.776  11.313  1.00  0.00    -0.365 N 
ATOM     19  H12 UNL     1      35.155  -1.325  11.908  1.00  0.00     0.159 HD
ATOM     20  H11 UNL     1      34.078  -1.235  10.525  1.00  0.00     0.159 HD
BRANCH  17  21
HETATM   21  O1  UNL     1      34.931   1.096  12.601  1.00  0.00    -0.333 OA
ATOM     22  H1  UNL     1      35.221   1.996  12.510  1.00  0.00     0.220 HD
ENDBRANCH  17  21
ENDBRANCH  15  17
ENDBRANCH   8  15
ENDBRANCH   1   7
BRANCH   6  23
HETATM   23  C10 UNL     1      31.446   2.916   6.777  1.00  0.00     0.168 A 
HETATM   24  N12 UNL     1      31.611   1.723   6.178  1.00  0.00    -0.267 N 
HETATM   25  N13 UNL     1      32.044   1.926   4.970  1.00  0.00    -0.227 N 
ATOM     26  H12 UNL     1      31.427   0.813   6.600  1.00  0.00     0.190 HD
HETATM   27  N14 UNL     1      32.173   3.213   4.749  1.00  0.00    -0.227 N 
ATOM     28  H13 UNL     1      32.254   1.193   4.293  1.00  0.00     0.210 HD
HETATM   29  N15 UNL     1      31.808   3.814   5.853  1.00  0.00    -0.267 N 
ATOM     30  H14 UNL     1      32.495   3.657   3.889  1.00  0.00     0.210 HD
ATOM     31  H15 UNL     1      31.799   4.824   5.990  1.00  0.00     0.190 HD
ENDBRANCH   6  23
BRANCH   5  32
HETATM   32  C5  UNL     1      28.472   3.016   7.630  1.00  0.00     0.053 A 
HETATM   33  C6  UNL     1      27.912   4.044   6.891  1.00  0.00     0.106 A 
HETATM   34  N9  UNL     1      26.818   3.833   6.122  1.00  0.00    -0.361 N 
HETATM   35  C7  UNL     1      26.246   2.619   6.054  1.00  0.00     0.181 A 
ATOM     36  H9  UNL     1      26.424   4.606   5.586  1.00  0.00     0.166 HD
HETATM   37  N10 UNL     1      26.764   1.597   6.761  1.00  0.00    -0.338 N 
HETATM   38  C8  UNL     1      27.852   1.787   7.532  1.00  0.00     0.113 A 
ATOM     39  H10 UNL     1      26.331   0.675   6.712  1.00  0.00     0.168 HD
BRANCH  38  40
HETATM   40  N11 UNL     1      28.342   0.803   8.201  1.00  0.00    -0.385 N 
ATOM     41 2H11 UNL     1      29.222   0.919   8.703  1.00  0.00     0.157 HD
ATOM     42 1H11 UNL     1      27.826  -0.077   8.212  1.00  0.00     0.157 HD
ENDBRANCH  38  40
ENDBRANCH   5  32
TORSDOF 7
ENDMDL
MODEL 3
REMARK VINA RESULT: -6.204434221      1.309      1.403
REMARK  7 active torsions:
REMARK  status: ('A' for Active; 'I' for Inactive)
REMARK    1  A    between atoms: C1_4  and  O1_5 
REMARK    2  A    between atoms: C1_4  and  N2_7 
REMARK    3  A    between atoms: N2_7  and  C2_9 
REMARK    4  A    between atoms: C3_16  and  N6_17 
REMARK    5  A    between atoms: C4_21  and  C5_22 
REMARK    6  A    between atoms: C8_29  and  N11_30 
REMARK    7  A    between atoms: C9_33  and  C10_34 
ROOT
HETATM    1  N6  UNL     1      28.234   1.600   6.602  1.00  0.00    -0.213 N 
HETATM    2  N7  UNL     1      28.383   1.463   5.296  1.00  0.00    -0.013 NA
HETATM    3  N8  UNL     1      29.553   2.025   4.940  1.00  0.00    -0.280 N 
ATOM      4  H8  UNL     1      29.923   2.065   3.990  1.00  0.00     0.184 HD
HETATM    5  C4  UNL     1      30.158   2.526   6.031  1.00  0.00     0.093 A 
HETATM    6  C9  UNL     1      29.310   2.249   7.077  1.00  0.00     0.132 A 
ENDROOT
BRANCH   1   7
HETATM    7  C3  UNL     1      27.085   1.116   7.325  1.00  0.00     0.188 A 
HETATM    8  C2  UNL     1      25.767   1.403   7.038  1.00  0.00     0.172 A 
HETATM    9  N3  UNL     1      25.017   0.765   7.944  1.00  0.00    -0.268 N 
HETATM   10  N4  UNL     1      25.830   0.115   8.749  1.00  0.00    -0.239 N 
ATOM     11  H3  UNL     1      23.999   0.780   8.001  1.00  0.00     0.190 HD
HETATM   12  N5  UNL     1      27.080   0.310   8.397  1.00  0.00    -0.266 N 
ATOM     13  H4  UNL     1      25.532  -0.460   9.536  1.00  0.00     0.208 HD
ATOM     14  H5  UNL     1      27.902  -0.081   8.857  1.00  0.00     0.190 HD
BRANCH   8  15
HETATM   15  N2  UNL     1      25.300   2.231   5.962  1.00  0.00    -0.304 N 
ATOM     16  H2  UNL     1      25.364   3.246   6.043  1.00  0.00     0.171 HD
BRANCH  15  17
HETATM   17  C1  UNL     1      24.754   1.656   4.788  1.00  0.00     0.216 C 
HETATM   18  N1  UNL     1      25.372   0.745   4.124  1.00  0.00    -0.365 N 
ATOM     19  H12 UNL     1      24.978   0.331   3.279  1.00  0.00     0.159 HD
ATOM     20  H11 UNL     1      26.285   0.424   4.448  1.00  0.00     0.159 HD
BRANCH  17  21
HETATM   21  O1  UNL     1      23.513   2.092   4.349  1.00  0.00    -0.333 OA
ATOM     22  H1  UNL     1      23.368   3.021   4.212  1.00  0.00     0.220 HD
ENDBRANCH  17  21
ENDBRANCH  15  17
ENDBRANCH   8  15
ENDBRANCH   1   7
BRANCH   6  23
HETATM   23  C10 UNL     1      29.589   2.615   8.457  1.00  0.00     0.168 A 
HETATM   24  N12 UNL     1      29.045   3.653   9.116  1.00  0.00    -0.267 N 
HETATM   25  N13 UNL     1      29.522   3.669  10.324  1.00  0.00    -0.227 N 
ATOM     26  H12 UNL     1      28.372   4.316   8.732  1.00  0.00     0.190 HD
HETATM   27  N14 UNL     1      30.365   2.677  10.488  1.00  0.00    -0.227 N 
ATOM     28  H13 UNL     1      29.277   4.353  11.040  1.00  0.00     0.210 HD
HETATM   29  N15 UNL     1      30.403   2.036   9.347  1.00  0.00    -0.267 N 
ATOM     30  H14 UNL     1      30.886   2.451  11.335  1.00  0.00     0.210 HD
ATOM     31  H15 UNL     1      30.974   1.211   9.163  1.00  0.00     0.190 HD
ENDBRANCH   6  23
BRANCH   5  32
HETATM   32  C5  UNL     1      31.436   3.209   6.045  1.00  0.00     0.053 A 
HETATM   33  C6  UNL     1      32.662   2.578   6.165  1.00  0.00     0.106 A 
HETATM   34  N9  UNL     1      33.814   3.289   6.171  1.00  0.00    -0.361 N 
HETATM   35  C7  UNL     1      33.799   4.628   6.057  1.00  0.00     0.181 A 
ATOM     36  H9  UNL     1      34.705   2.801   6.261  1.00  0.00     0.166 HD
HETATM   37  N10 UNL     1      32.623   5.274   5.938  1.00  0.00    -0.338 N 
HETATM   38  C8  UNL     1      31.467   4.584   5.932  1.00  0.00     0.113 A 
ATOM     39  H10 UNL     1      32.609   6.290   5.853  1.00  0.00     0.168 HD
BRANCH  38  40
HETATM   40  N11 UNL     1      30.349   5.210   5.814  1.00  0.00    -0.385 N 
ATOM     41 2H11 UNL     1      30.027   5.820   6.566  1.00  0.00     0.157 HD
ATOM     42 1H11 UNL     1      29.809   5.078   4.958  1.00  0.00     0.157 HD
ENDBRANCH  38  40
ENDBRANCH   5  32
TORSDOF 7
ENDMDL
MODEL 4
REMARK VINA RESULT: -6.161761013      1.546      2.011
REMARK  7 active torsions:
REMARK  status: ('A' for Active; 'I' for Inactive)
REMARK    1  A    between atoms: C1_4  and  O1_5 
REMARK    2  A    between atoms: C1_4  and  N2_7 
REMARK    3  A    between atoms: N2_7  and  C2_9 
REMARK    4  A    between atoms: C3_16  and  N6_17 
REMARK    5  A    between atoms: C4_21  and  C5_22 
REMARK    6  A    between atoms: C8_29  and  N11_30 
REMARK    7  A    between atoms: C9_33  and  C10_34 
ROOT
HETATM    1  N6  UNL     1      28.146   1.672   6.627  1.00  0.00    -0.213 N 
HETATM    2  N7  UNL     1      28.164   1.705   5.306  1.00  0.00    -0.013 NA
HETATM    3  N8  UNL     1      29.166   2.512   4.913  1.00  0.00    -0.280 N 
ATOM      4  H8  UNL     1      29.409   2.721   3.945  1.00  0.00     0.184 HD
HETATM    5  C4  UNL     1      29.797   3.000   5.995  1.00  0.00     0.093 A 
HETATM    6  C9  UNL     1      29.140   2.458   7.074  1.00  0.00     0.132 A 
ENDROOT
BRANCH   1   7
HETATM    7  C3  UNL     1      27.195   0.906   7.391  1.00  0.00     0.188 A 
HETATM    8  C2  UNL     1      25.821   0.982   7.284  1.00  0.00     0.172 A 
HETATM    9  N3  UNL     1      25.308   0.116   8.165  1.00  0.00    -0.268 N 
HETATM   10  N4  UNL     1      26.312  -0.467   8.784  1.00  0.00    -0.239 N 
ATOM     11  H3  UNL     1      24.316  -0.060   8.328  1.00  0.00     0.190 HD
HETATM   12  N5  UNL     1      27.458  -0.008   8.335  1.00  0.00    -0.266 N 
ATOM     13  H4  UNL     1      26.214  -1.176   9.510  1.00  0.00     0.208 HD
ATOM     14  H5  UNL     1      28.385  -0.297   8.649  1.00  0.00     0.190 HD
BRANCH   8  15
HETATM   15  N2  UNL     1      25.092   1.834   6.387  1.00  0.00    -0.304 N 
ATOM     16  H2  UNL     1      24.902   2.800   6.653  1.00  0.00     0.171 HD
BRANCH  15  17
HETATM   17  C1  UNL     1      24.634   1.349   5.137  1.00  0.00     0.216 C 
HETATM   18  N1  UNL     1      25.276   0.451   4.478  1.00  0.00    -0.365 N 
ATOM     19  H12 UNL     1      24.946   0.102   3.578  1.00  0.00     0.159 HD
ATOM     20  H11 UNL     1      26.143   0.074   4.862  1.00  0.00     0.159 HD
BRANCH  17  21
HETATM   21  O1  UNL     1      23.456   1.861   4.616  1.00  0.00    -0.333 OA
ATOM     22  H1  UNL     1      23.213   1.651   3.722  1.00  0.00     0.220 HD
ENDBRANCH  17  21
ENDBRANCH  15  17
ENDBRANCH   8  15
ENDBRANCH   1   7
BRANCH   6  23
HETATM   23  C10 UNL     1      29.510   2.722   8.456  1.00  0.00     0.168 A 
HETATM   24  N12 UNL     1      29.007   3.703   9.227  1.00  0.00    -0.267 N 
HETATM   25  N13 UNL     1      29.565   3.632  10.398  1.00  0.00    -0.227 N 
ATOM     26  H12 UNL     1      28.306   4.386   8.941  1.00  0.00     0.190 HD
HETATM   27  N14 UNL     1      30.422   2.639  10.429  1.00  0.00    -0.227 N 
ATOM     28  H13 UNL     1      29.366   4.257  11.179  1.00  0.00     0.210 HD
HETATM   29  N15 UNL     1      30.386   2.086   9.243  1.00  0.00    -0.267 N 
ATOM     30  H14 UNL     1      31.001   2.355  11.219  1.00  0.00     0.210 HD
ATOM     31  H15 UNL     1      30.947   1.283   8.959  1.00  0.00     0.190 HD
ENDBRANCH   6  23
BRANCH   5  32
HETATM   32  C5  UNL     1      30.927   3.906   5.971  1.00  0.00     0.053 A 
HETATM   33  C6  UNL     1      30.826   5.287   5.944  1.00  0.00     0.106 A 
HETATM   34  N9  UNL     1      31.932   6.066   5.922  1.00  0.00    -0.361 N 
HETATM   35  C7  UNL     1      33.160   5.521   5.927  1.00  0.00     0.181 A 
ATOM     36  H9  UNL     1      31.832   7.081   5.901  1.00  0.00     0.166 HD
HETATM   37  N10 UNL     1      33.295   4.181   5.953  1.00  0.00    -0.338 N 
HETATM   38  C8  UNL     1      32.206   3.389   5.975  1.00  0.00     0.113 A 
ATOM     39  H10 UNL     1      34.227   3.765   5.957  1.00  0.00     0.168 HD
BRANCH  38  40
HETATM   40  N11 UNL     1      32.346   2.110   6.004  1.00  0.00    -0.385 N 
ATOM     41 2H11 UNL     1      31.944   1.540   5.260  1.00  0.00     0.157 HD
ATOM     42 1H11 UNL     1      32.864   1.699   6.780  1.00  0.00     0.157 HD
ENDBRANCH  38  40
ENDBRANCH   5  32
TORSDOF 7
ENDMDL
MODEL 5
REMARK VINA RESULT: -6.117360730      2.706      5.788
REMARK  7 active torsions:
REMARK  status: ('A' for Active; 'I' for Inactive)
REMARK    1  A    between atoms: C1_4  and  O1_5 
REMARK    2  A    between atoms: C1_4  and  N2_7 
REMARK    3  A    between atoms: N2_7  and  C2_9 
REMARK    4  A    between atoms: C3_16  and  N6_17 
REMARK    5  A    between atoms: C4_21  and  C5_22 
REMARK    6  A    between atoms: C8_29  and  N11_30 
REMARK    7  A    between atoms: C9_33  and  C10_34 
ROOT
HETATM    1  N6  UNL     1      29.762   2.408   7.015  1.00  0.00    -0.213 N 
HETATM    2  N7  UNL     1      30.546   2.718   5.997  1.00  0.00    -0.013 NA
HETATM    3  N8  UNL     1      30.026   2.180   4.879  1.00  0.00    -0.280 N 
ATOM      4  H8  UNL     1      30.426   2.261   3.945  1.00  0.00     0.184 HD
HETATM    5  C4  UNL     1      28.896   1.520   5.186  1.00  0.00     0.093 A 
HETATM    6  C9  UNL     1      28.741   1.673   6.543  1.00  0.00     0.132 A 
ENDROOT
BRANCH   1   7
HETATM    7  C3  UNL     1      30.020   2.818   8.372  1.00  0.00     0.188 A 
HETATM    8  C2  UNL     1      31.247   2.804   9.002  1.00  0.00     0.172 A 
HETATM    9  N3  UNL     1      31.057   3.256  10.247  1.00  0.00    -0.268 N 
HETATM   10  N4  UNL     1      29.779   3.536  10.379  1.00  0.00    -0.239 N 
ATOM     11  H3  UNL     1      31.775   3.363  10.965  1.00  0.00     0.190 HD
HETATM   12  N5  UNL     1      29.134   3.282   9.264  1.00  0.00    -0.266 N 
ATOM     13  H4  UNL     1      29.348   3.901  11.229  1.00  0.00     0.208 HD
ATOM     14  H5  UNL     1      28.135   3.413   9.104  1.00  0.00     0.190 HD
BRANCH   8  15
HETATM   15  N2  UNL     1      32.490   2.385   8.417  1.00  0.00    -0.304 N 
ATOM     16  H2  UNL     1      32.559   2.278   7.405  1.00  0.00     0.171 HD
BRANCH  15  17
HETATM   17  C1  UNL     1      33.620   2.118   9.227  1.00  0.00     0.216 C 
HETATM   18  N1  UNL     1      34.287   1.023   9.128  1.00  0.00    -0.365 N 
ATOM     19  H12 UNL     1      35.101   0.831   9.712  1.00  0.00     0.159 HD
ATOM     20  H11 UNL     1      33.995   0.321   8.448  1.00  0.00     0.159 HD
BRANCH  17  21
HETATM   21  O1  UNL     1      34.017   3.072  10.152  1.00  0.00    -0.333 OA
ATOM     22  H1  UNL     1      33.653   3.948  10.102  1.00  0.00     0.220 HD
ENDBRANCH  17  21
ENDBRANCH  15  17
ENDBRANCH   8  15
ENDBRANCH   1   7
BRANCH   6  23
HETATM   23  C10 UNL     1      27.626   1.116   7.293  1.00  0.00     0.168 A 
HETATM   24  N12 UNL     1      27.682   0.030   8.085  1.00  0.00    -0.267 N 
HETATM   25  N13 UNL     1      26.504  -0.169   8.593  1.00  0.00    -0.227 N 
ATOM     26  H12 UNL     1      28.510  -0.540   8.257  1.00  0.00     0.190 HD
HETATM   27  N14 UNL     1      25.668   0.747   8.164  1.00  0.00    -0.227 N 
ATOM     28  H13 UNL     1      26.262  -0.927   9.232  1.00  0.00     0.210 HD
HETATM   29  N15 UNL     1      26.356   1.529   7.371  1.00  0.00    -0.267 N 
ATOM     30  H14 UNL     1      24.680   0.833   8.401  1.00  0.00     0.210 HD
ATOM     31  H15 UNL     1      25.977   2.340   6.882  1.00  0.00     0.190 HD
ENDBRANCH   6  23
BRANCH   5  32
HETATM   32  C5  UNL     1      28.056   0.809   4.243  1.00  0.00     0.053 A 
HETATM   33  C6  UNL     1      28.196  -0.530   3.921  1.00  0.00     0.106 A 
HETATM   34  N9  UNL     1      27.369  -1.122   3.027  1.00  0.00    -0.361 N 
HETATM   35  C7  UNL     1      26.389  -0.426   2.428  1.00  0.00     0.181 A 
ATOM     36  H9  UNL     1      27.493  -2.110   2.806  1.00  0.00     0.166 HD
HETATM   37  N10 UNL     1      26.225   0.879   2.717  1.00  0.00    -0.338 N 
HETATM   38  C8  UNL     1      27.037   1.485   3.603  1.00  0.00     0.113 A 
ATOM     39  H10 UNL     1      25.482   1.410   2.262  1.00  0.00     0.168 HD
BRANCH  38  40
HETATM   40  N11 UNL     1      26.870   2.732   3.876  1.00  0.00    -0.385 N 
ATOM     41 2H11 UNL     1      27.216   3.443   3.231  1.00  0.00     0.157 HD
ATOM     42 1H11 UNL     1      26.387   2.976   4.741  1.00  0.00     0.157 HD
ENDBRANCH  38  40
ENDBRANCH   5  32
TORSDOF 7
ENDMDL
