MODEL 1
REMARK VINA RESULT: -5.923836051      0.000      0.000
REMARK  8 active torsions:
REMARK  status: ('A' for Active; 'I' for Inactive)
REMARK    1  A    between atoms: C2_2  and  N1_3 
REMARK    2  A    between atoms: C2_2  and  O2_21 
REMARK       I    between atoms: N1_3  and  C3_5 
REMARK       I    between atoms: C3_5  and  N2_7 
REMARK    3  A    between atoms: C5_11  and  N3_12 
REMARK    4  A    between atoms: O2_21  and  C8_22 
REMARK       I    between atoms: C8_22  and  N7_24 
REMARK    5  A    between atoms: N7_24  and  N8_25 
REMARK    6  A    between atoms: N7_24  and  O5_29 
REMARK    7  A    between atoms: N8_25  and  O4_27 
REMARK    8  A    between atoms: O5_29  and  N9_30 
ROOT
HETATM    1  N1  UNL     1      29.511   1.932   7.028  1.00  0.00    -0.316 N 
ATOM      2  H1  UNL     1      29.496   0.944   6.774  1.00  0.00     0.166 HD
HETATM    3  C3  UNL     1      28.404   2.391   7.760  1.00  0.00     0.323 C 
HETATM    4  O1  UNL     1      28.403   3.624   8.087  1.00  0.00    -0.247 OA
HETATM    5  N2  UNL     1      27.299   1.638   8.171  1.00  0.00    -0.301 N 
ATOM      6  H2  UNL     1      27.347   1.291   9.129  1.00  0.00     0.171 HD
HETATM    7  C4  UNL     1      26.246   1.318   7.539  1.00  0.00     0.109 A 
HETATM    8  S1  UNL     1      25.040   0.363   8.325  1.00  0.00    -0.034 SA
HETATM    9  C5  UNL     1      23.698   0.030   7.337  1.00  0.00     0.145 A 
HETATM   10  N4  UNL     1      23.762   0.548   6.103  1.00  0.00    -0.324 N 
ATOM     11  H4  UNL     1      22.970   0.366   5.487  1.00  0.00     0.169 HD
HETATM   12  C6  UNL     1      24.751   1.274   5.603  1.00  0.00     0.145 A 
HETATM   13  N5  UNL     1      24.584   1.717   4.233  1.00  0.00    -0.081 NA
HETATM   14  C7  UNL     1      25.916   1.649   6.247  1.00  0.00     0.121 A 
HETATM   15  N6  UNL     1      26.849   2.460   5.489  1.00  0.00    -0.096 NA
ENDROOT
BRANCH   1  16
HETATM   16  C2  UNL     1      30.651   2.665   6.594  1.00  0.00     0.232 C 
HETATM   17  C1  UNL     1      30.682   2.915   5.108  1.00  0.00     0.064 C 
BRANCH  16  18
HETATM   18  O2  UNL     1      31.878   2.129   7.071  1.00  0.00    -0.275 OA
BRANCH  18  19
HETATM   19  C8  UNL     1      32.638   2.640   8.080  1.00  0.00     0.412 C 
HETATM   20  O3  UNL     1      33.746   3.144   7.766  1.00  0.00    -0.234 OA
HETATM   21  N7  UNL     1      32.241   2.631   9.459  1.00  0.00    -0.054 N 
BRANCH  21  22
HETATM   22  N8  UNL     1      33.095   3.171  10.420  1.00  0.00    -0.177 N 
ATOM     23  H8  UNL     1      33.586   2.570  11.082  1.00  0.00     0.218 HD
BRANCH  22  24
HETATM   24  O4  UNL     1      33.243   4.408  10.447  1.00  0.00    -0.272 OA
ATOM     25  H4  UNL     1      33.105   4.858  11.272  1.00  0.00     0.246 HD
ENDBRANCH  22  24
ENDBRANCH  21  22
BRANCH  21  26
HETATM   26  O5  UNL     1      31.073   2.124   9.882  1.00  0.00    -0.134 OA
BRANCH  26  27
HETATM   27  N9  UNL     1      30.277   3.061  10.447  1.00  0.00    -0.284 N 
ATOM     28  H92 UNL     1      30.390   3.375  11.411  1.00  0.00     0.186 HD
ATOM     29  H91 UNL     1      29.564   3.406   9.804  1.00  0.00     0.186 HD
ENDBRANCH  26  27
ENDBRANCH  21  26
ENDBRANCH  18  19
ENDBRANCH  16  18
ENDBRANCH   1  16
BRANCH   9  30
HETATM   30  N3  UNL     1      22.700  -0.680   7.772  1.00  0.00    -0.380 N 
ATOM     31  H32 UNL     1      21.968  -0.316   8.382  1.00  0.00     0.158 HD
ATOM     32  H31 UNL     1      22.599  -1.662   7.517  1.00  0.00     0.158 HD
ENDBRANCH   9  30
TORSDOF 8
ENDMDL
MODEL 2
REMARK VINA RESULT: -5.835830350      1.697      2.404
REMARK  8 active torsions:
REMARK  status: ('A' for Active; 'I' for Inactive)
REMARK    1  A    between atoms: C2_2  and  N1_3 
REMARK    2  A    between atoms: C2_2  and  O2_21 
REMARK       I    between atoms: N1_3  and  C3_5 
REMARK       I    between atoms: C3_5  and  N2_7 
REMARK    3  A    between atoms: C5_11  and  N3_12 
REMARK    4  A    between atoms: O2_21  and  C8_22 
REMARK       I    between atoms: C8_22  and  N7_24 
REMARK    5  A    between atoms: N7_24  and  N8_25 
REMARK    6  A    between atoms: N7_24  and  O5_29 
REMARK    7  A    between atoms: N8_25  and  O4_27 
REMARK    8  A    between atoms: O5_29  and  N9_30 
ROOT
HETATM    1  N1  UNL     1      30.499   2.818   7.689  1.00  0.00    -0.316 N 
ATOM      2  H1  UNL     1      30.596   1.970   7.131  1.00  0.00     0.166 HD
HETATM    3  C3  UNL     1      29.249   3.005   8.302  1.00  0.00     0.323 C 
HETATM    4  O1  UNL     1      29.108   4.061   9.005  1.00  0.00    -0.247 OA
HETATM    5  N2  UNL     1      28.141   2.156   8.226  1.00  0.00    -0.301 N 
ATOM      6  H2  UNL     1      28.038   1.511   9.009  1.00  0.00     0.171 HD
HETATM    7  C4  UNL     1      27.243   2.060   7.333  1.00  0.00     0.109 A 
HETATM    8  S1  UNL     1      25.981   0.896   7.519  1.00  0.00    -0.034 SA
HETATM    9  C5  UNL     1      24.865   0.905   6.237  1.00  0.00     0.145 A 
HETATM   10  N4  UNL     1      25.117   1.803   5.275  1.00  0.00    -0.324 N 
ATOM     11  H4  UNL     1      24.464   1.833   4.493  1.00  0.00     0.169 HD
HETATM   12  C6  UNL     1      26.130   2.656   5.239  1.00  0.00     0.145 A 
HETATM   13  N5  UNL     1      26.184   3.527   4.081  1.00  0.00    -0.081 NA
HETATM   14  C7  UNL     1      27.132   2.799   6.181  1.00  0.00     0.121 A 
HETATM   15  N6  UNL     1      28.131   3.818   5.922  1.00  0.00    -0.096 NA
ENDROOT
BRANCH   1  16
HETATM   16  C2  UNL     1      31.648   3.657   7.744  1.00  0.00     0.232 C 
HETATM   17  C1  UNL     1      32.680   3.343   6.692  1.00  0.00     0.064 C 
BRANCH  16  18
HETATM   18  O2  UNL     1      32.218   3.742   9.043  1.00  0.00    -0.275 OA
BRANCH  18  19
HETATM   19  C8  UNL     1      32.843   2.732   9.712  1.00  0.00     0.412 C 
HETATM   20  O3  UNL     1      32.112   1.857  10.243  1.00  0.00    -0.234 OA
HETATM   21  N7  UNL     1      34.268   2.623   9.839  1.00  0.00    -0.054 N 
BRANCH  21  22
HETATM   22  N8  UNL     1      34.811   1.556  10.553  1.00  0.00    -0.177 N 
ATOM     23  H8  UNL     1      35.451   0.899  10.108  1.00  0.00     0.218 HD
BRANCH  22  24
HETATM   24  O4  UNL     1      34.494   1.427  11.751  1.00  0.00    -0.272 OA
ATOM     25  H4  UNL     1      34.524   0.557  12.132  1.00  0.00     0.246 HD
ENDBRANCH  22  24
ENDBRANCH  21  22
BRANCH  21  26
HETATM   26  O5  UNL     1      35.122   3.506   9.297  1.00  0.00    -0.134 OA
BRANCH  26  27
HETATM   27  N9  UNL     1      34.923   4.764   9.751  1.00  0.00    -0.284 N 
ATOM     28  H92 UNL     1      34.224   4.994  10.457  1.00  0.00     0.186 HD
ATOM     29  H91 UNL     1      35.545   5.441   9.309  1.00  0.00     0.186 HD
ENDBRANCH  26  27
ENDBRANCH  21  26
ENDBRANCH  18  19
ENDBRANCH  16  18
ENDBRANCH   1  16
BRANCH   9  30
HETATM   30  N3  UNL     1      23.855   0.089   6.218  1.00  0.00    -0.380 N 
ATOM     31  H32 UNL     1      23.925  -0.898   5.966  1.00  0.00     0.158 HD
ATOM     32  H31 UNL     1      22.916   0.404   6.462  1.00  0.00     0.158 HD
ENDBRANCH   9  30
TORSDOF 8
ENDMDL
MODEL 3
REMARK VINA RESULT: -5.807027120      5.234      7.672
REMARK  8 active torsions:
REMARK  status: ('A' for Active; 'I' for Inactive)
REMARK    1  A    between atoms: C2_2  and  N1_3 
REMARK    2  A    between atoms: C2_2  and  O2_21 
REMARK       I    between atoms: N1_3  and  C3_5 
REMARK       I    between atoms: C3_5  and  N2_7 
REMARK    3  A    between atoms: C5_11  and  N3_12 
REMARK    4  A    between atoms: O2_21  and  C8_22 
REMARK       I    between atoms: C8_22  and  N7_24 
REMARK    5  A    between atoms: N7_24  and  N8_25 
REMARK    6  A    between atoms: N7_24  and  O5_29 
REMARK    7  A    between atoms: N8_25  and  O4_27 
REMARK    8  A    between atoms: O5_29  and  N9_30 
ROOT
HETATM    1  N1  UNL     1      28.290   4.639   2.854  1.00  0.00    -0.316 N 
ATOM      2  H1  UNL     1      27.876   5.251   3.557  1.00  0.00     0.166 HD
HETATM    3  C3  UNL     1      28.006   3.271   2.993  1.00  0.00     0.323 C 
HETATM    4  O1  UNL     1      28.515   2.488   2.123  1.00  0.00    -0.247 OA
HETATM    5  N2  UNL     1      27.222   2.672   3.984  1.00  0.00    -0.301 N 
ATOM      6  H2  UNL     1      26.256   2.488   3.715  1.00  0.00     0.171 HD
HETATM    7  C4  UNL     1      27.524   2.322   5.166  1.00  0.00     0.109 A 
HETATM    8  S1  UNL     1      26.321   1.598   6.171  1.00  0.00    -0.034 SA
HETATM    9  C5  UNL     1      26.895   1.190   7.718  1.00  0.00     0.145 A 
HETATM   10  N4  UNL     1      28.184   1.482   7.938  1.00  0.00    -0.324 N 
ATOM     11  H4  UNL     1      28.558   1.248   8.857  1.00  0.00     0.169 HD
HETATM   12  C6  UNL     1      29.022   2.046   7.080  1.00  0.00     0.145 A 
HETATM   13  N5  UNL     1      30.372   2.264   7.561  1.00  0.00    -0.081 NA
HETATM   14  C7  UNL     1      28.744   2.446   5.786  1.00  0.00     0.121 A 
HETATM   15  N6  UNL     1      29.837   3.031   5.035  1.00  0.00    -0.096 NA
ENDROOT
BRANCH   1  16
HETATM   16  C2  UNL     1      29.081   5.284   1.861  1.00  0.00     0.232 C 
HETATM   17  C1  UNL     1      30.531   5.436   2.244  1.00  0.00     0.064 C 
BRANCH  16  18
HETATM   18  O2  UNL     1      28.518   6.506   1.404  1.00  0.00    -0.275 OA
BRANCH  18  19
HETATM   19  C8  UNL     1      27.250   6.680   0.936  1.00  0.00     0.412 C 
HETATM   20  O3  UNL     1      26.579   5.644   0.698  1.00  0.00    -0.234 OA
HETATM   21  N7  UNL     1      26.656   7.965   0.705  1.00  0.00    -0.054 N 
BRANCH  21  22
HETATM   22  N8  UNL     1      25.352   8.038   0.215  1.00  0.00    -0.177 N 
ATOM     23  H8  UNL     1      25.164   8.388  -0.724  1.00  0.00     0.218 HD
BRANCH  22  24
HETATM   24  O4  UNL     1      24.423   7.662   0.955  1.00  0.00    -0.272 OA
ATOM     25  H4  UNL     1      23.538   7.686   0.612  1.00  0.00     0.246 HD
ENDBRANCH  22  24
ENDBRANCH  21  22
BRANCH  21  26
HETATM   26  O5  UNL     1      27.295   9.122   0.940  1.00  0.00    -0.134 OA
BRANCH  26  27
HETATM   27  N9  UNL     1      26.536  10.001   1.633  1.00  0.00    -0.284 N 
ATOM     28  H92 UNL     1      26.927  10.665   2.301  1.00  0.00     0.186 HD
ATOM     29  H91 UNL     1      25.544   9.920   1.409  1.00  0.00     0.186 HD
ENDBRANCH  26  27
ENDBRANCH  21  26
ENDBRANCH  18  19
ENDBRANCH  16  18
ENDBRANCH   1  16
BRANCH   9  30
HETATM   30  N3  UNL     1      26.118   0.637   8.601  1.00  0.00    -0.380 N 
ATOM     31  H32 UNL     1      26.439  -0.031   9.302  1.00  0.00     0.158 HD
ATOM     32  H31 UNL     1      25.122   0.853   8.637  1.00  0.00     0.158 HD
ENDBRANCH   9  30
TORSDOF 8
ENDMDL
MODEL 4
REMARK VINA RESULT: -5.782701097      1.611      2.035
REMARK  8 active torsions:
REMARK  status: ('A' for Active; 'I' for Inactive)
REMARK    1  A    between atoms: C2_2  and  N1_3 
REMARK    2  A    between atoms: C2_2  and  O2_21 
REMARK       I    between atoms: N1_3  and  C3_5 
REMARK       I    between atoms: C3_5  and  N2_7 
REMARK    3  A    between atoms: C5_11  and  N3_12 
REMARK    4  A    between atoms: O2_21  and  C8_22 
REMARK       I    between atoms: C8_22  and  N7_24 
REMARK    5  A    between atoms: N7_24  and  N8_25 
REMARK    6  A    between atoms: N7_24  and  O5_29 
REMARK    7  A    between atoms: N8_25  and  O4_27 
REMARK    8  A    between atoms: O5_29  and  N9_30 
ROOT
HETATM    1  N1  UNL     1      30.269   3.220   7.172  1.00  0.00    -0.316 N 
ATOM      2  H1  UNL     1      30.429   2.411   6.571  1.00  0.00     0.166 HD
HETATM    3  C3  UNL     1      29.149   3.141   8.015  1.00  0.00     0.323 C 
HETATM    4  O1  UNL     1      28.932   4.143   8.775  1.00  0.00    -0.247 OA
HETATM    5  N2  UNL     1      28.245   2.079   8.113  1.00  0.00    -0.301 N 
ATOM      6  H2  UNL     1      28.429   1.427   8.876  1.00  0.00     0.171 HD
HETATM    7  C4  UNL     1      27.232   1.799   7.402  1.00  0.00     0.109 A 
HETATM    8  S1  UNL     1      26.295   0.396   7.773  1.00  0.00    -0.034 SA
HETATM    9  C5  UNL     1      24.977   0.172   6.725  1.00  0.00     0.145 A 
HETATM   10  N4  UNL     1      24.849   1.103   5.771  1.00  0.00    -0.324 N 
ATOM     11  H4  UNL     1      24.066   0.996   5.127  1.00  0.00     0.169 HD
HETATM   12  C6  UNL     1      25.639   2.149   5.580  1.00  0.00     0.145 A 
HETATM   13  N5  UNL     1      25.290   3.014   4.469  1.00  0.00    -0.081 NA
HETATM   14  C7  UNL     1      26.752   2.499   6.322  1.00  0.00     0.121 A 
HETATM   15  N6  UNL     1      27.452   3.704   5.922  1.00  0.00    -0.096 NA
ENDROOT
BRANCH   1  16
HETATM   16  C2  UNL     1      31.210   4.281   7.044  1.00  0.00     0.232 C 
HETATM   17  C1  UNL     1      30.976   5.159   5.842  1.00  0.00     0.064 C 
BRANCH  16  18
HETATM   18  O2  UNL     1      32.560   3.846   7.133  1.00  0.00    -0.275 OA
BRANCH  18  19
HETATM   19  C8  UNL     1      33.086   3.057   8.112  1.00  0.00     0.412 C 
HETATM   20  O3  UNL     1      33.015   1.812   7.946  1.00  0.00    -0.234 OA
HETATM   21  N7  UNL     1      33.705   3.568   9.301  1.00  0.00    -0.054 N 
BRANCH  21  22
HETATM   22  N8  UNL     1      34.205   2.677  10.249  1.00  0.00    -0.177 N 
ATOM     23  H8  UNL     1      33.688   2.479  11.106  1.00  0.00     0.218 HD
BRANCH  22  24
HETATM   24  O4  UNL     1      35.300   2.128  10.021  1.00  0.00    -0.272 OA
ATOM     25  H4  UNL     1      35.527   1.355  10.524  1.00  0.00     0.246 HD
ENDBRANCH  22  24
ENDBRANCH  21  22
BRANCH  21  26
HETATM   26  O5  UNL     1      33.832   4.881   9.554  1.00  0.00    -0.134 OA
BRANCH  26  27
HETATM   27  N9  UNL     1      35.099   5.222   9.886  1.00  0.00    -0.284 N 
ATOM     28  H92 UNL     1      35.721   4.604  10.406  1.00  0.00     0.186 HD
ATOM     29  H91 UNL     1      35.348   6.156   9.560  1.00  0.00     0.186 HD
ENDBRANCH  26  27
ENDBRANCH  21  26
ENDBRANCH  18  19
ENDBRANCH  16  18
ENDBRANCH   1  16
BRANCH   9  30
HETATM   30  N3  UNL     1      24.170  -0.838   6.863  1.00  0.00    -0.380 N 
ATOM     31  H32 UNL     1      23.572  -0.981   7.677  1.00  0.00     0.158 HD
ATOM     32  H31 UNL     1      24.094  -1.556   6.142  1.00  0.00     0.158 HD
ENDBRANCH   9  30
TORSDOF 8
ENDMDL
MODEL 5
REMARK VINA RESULT: -5.689876719      4.249      5.595
REMARK  8 active torsions:
REMARK  status: ('A' for Active; 'I' for Inactive)
REMARK    1  A    between atoms: C2_2  and  N1_3 
REMARK    2  A    between atoms: C2_2  and  O2_21 
REMARK       I    between atoms: N1_3  and  C3_5 
REMARK       I    between atoms: C3_5  and  N2_7 
REMARK    3  A    between atoms: C5_11  and  N3_12 
REMARK    4  A    between atoms: O2_21  and  C8_22 
REMARK       I    between atoms: C8_22  and  N7_24 
REMARK    5  A    between atoms: N7_24  and  N8_25 
REMARK    6  A    between atoms: N7_24  and  O5_29 
REMARK    7  A    between atoms: N8_25  and  O4_27 
REMARK    8  A    between atoms: O5_29  and  N9_30 
ROOT
HETATM    1  N1  UNL     1      31.228   3.625   5.497  1.00  0.00    -0.316 N 
ATOM      2  H1  UNL     1      31.347   2.974   4.721  1.00  0.00     0.166 HD
HETATM    3  C3  UNL     1      30.040   4.374   5.490  1.00  0.00     0.323 C 
HETATM    4  O1  UNL     1      29.873   5.194   6.452  1.00  0.00    -0.247 OA
HETATM    5  N2  UNL     1      29.017   4.315   4.538  1.00  0.00    -0.301 N 
ATOM      6  H2  UNL     1      28.229   3.719   4.790  1.00  0.00     0.171 HD
HETATM    7  C4  UNL     1      28.916   4.887   3.409  1.00  0.00     0.109 A 
HETATM    8  S1  UNL     1      27.511   4.615   2.442  1.00  0.00    -0.034 SA
HETATM    9  C5  UNL     1      27.538   5.458   0.967  1.00  0.00     0.145 A 
HETATM   10  N4  UNL     1      28.630   6.206   0.764  1.00  0.00    -0.324 N 
ATOM     11  H4  UNL     1      28.674   6.725  -0.113  1.00  0.00     0.169 HD
HETATM   12  C6  UNL     1      29.659   6.340   1.588  1.00  0.00     0.145 A 
HETATM   13  N5  UNL     1      30.726   7.209   1.134  1.00  0.00    -0.081 NA
HETATM   14  C7  UNL     1      29.818   5.741   2.823  1.00  0.00     0.121 A 
HETATM   15  N6  UNL     1      31.035   6.054   3.548  1.00  0.00    -0.096 NA
ENDROOT
BRANCH   1  16
HETATM   16  C2  UNL     1      32.289   3.656   6.446  1.00  0.00     0.232 C 
HETATM   17  C1  UNL     1      33.660   3.566   5.826  1.00  0.00     0.064 C 
BRANCH  16  18
HETATM   18  O2  UNL     1      32.121   2.725   7.506  1.00  0.00    -0.275 OA
BRANCH  18  19
HETATM   19  C8  UNL     1      31.062   2.668   8.362  1.00  0.00     0.412 C 
HETATM   20  O3  UNL     1      30.002   2.146   7.931  1.00  0.00    -0.234 OA
HETATM   21  N7  UNL     1      31.097   3.166   9.707  1.00  0.00    -0.054 N 
BRANCH  21  22
HETATM   22  N8  UNL     1      29.955   3.069  10.502  1.00  0.00    -0.177 N 
ATOM     23  H8  UNL     1      29.846   2.308  11.171  1.00  0.00     0.218 HD
BRANCH  22  24
HETATM   24  O4  UNL     1      29.073   3.939  10.374  1.00  0.00    -0.272 OA
ATOM     25  H4  UNL     1      28.693   4.070   9.513  1.00  0.00     0.246 HD
ENDBRANCH  22  24
ENDBRANCH  21  22
BRANCH  21  26
HETATM   26  O5  UNL     1      32.187   3.729  10.252  1.00  0.00    -0.134 OA
BRANCH  26  27
HETATM   27  N9  UNL     1      33.212   2.855  10.379  1.00  0.00    -0.284 N 
ATOM     28  H92 UNL     1      33.075   1.846  10.437  1.00  0.00     0.186 HD
ATOM     29  H91 UNL     1      34.119   3.320  10.408  1.00  0.00     0.186 HD
ENDBRANCH  26  27
ENDBRANCH  21  26
ENDBRANCH  18  19
ENDBRANCH  16  18
ENDBRANCH   1  16
BRANCH   9  30
HETATM   30  N3  UNL     1      26.558   5.362   0.118  1.00  0.00    -0.380 N 
ATOM     31  H32 UNL     1      25.743   5.976   0.119  1.00  0.00     0.158 HD
ATOM     32  H31 UNL     1      26.558   4.648  -0.611  1.00  0.00     0.158 HD
ENDBRANCH   9  30
TORSDOF 8
ENDMDL
