MODEL 1
REMARK VINA RESULT: -4.496434728      0.000      0.000
REMARK  4 active torsions:
REMARK  status: ('A' for Active; 'I' for Inactive)
REMARK    1  A    between atoms: C2_5  and  N3_6 
REMARK    2  A    between atoms: C4_12  and  C5_13 
REMARK    3  A    between atoms: C5_13  and  C6_14 
REMARK    4  A    between atoms: C6_14  and  N5_15 
ROOT
HETATM    1  C1  UNL     1      37.865  49.463  13.086  1.00  0.00     0.178 C 
HETATM    2  N1  UNL     1      38.670  50.616  12.779  1.00  0.00    -0.285 N 
HETATM    3  N2  UNL     1      38.410  51.334  11.683  1.00  0.00    -0.130 N 
ATOM      4  H2  UNL     1      37.638  51.057  11.076  1.00  0.00     0.206 HD
HETATM    5  C2  UNL     1      39.143  52.413  11.364  1.00  0.00     0.690 A 
HETATM    6  N4  UNL     1      40.158  52.773  12.164  1.00  0.00    -0.199 N 
ATOM      7  H4  UNL     1      40.723  53.591  11.933  1.00  0.00     0.183 HD
HETATM    8  C3  UNL     1      40.430  52.061  13.267  1.00  0.00     0.132 A 
HETATM    9  C4  UNL     1      39.679  50.959  13.592  1.00  0.00     0.046 A 
ENDROOT
BRANCH   9  10
HETATM   10  C5  UNL     1      40.021  50.200  14.839  1.00  0.00     0.087 C 
BRANCH  10  11
HETATM   11  C6  UNL     1      40.988  50.965  15.689  1.00  0.00     0.235 C 
BRANCH  11  12
HETATM   12  N5  UNL     1      40.463  51.270  16.999  1.00  0.00    -0.079 N 
ATOM     13  H53 UNL     1      39.820  50.543  17.313  1.00  0.00     0.274 HD
ATOM     14  H52 UNL     1      41.183  51.174  17.713  1.00  0.00     0.274 HD
ATOM     15  H51 UNL     1      40.024  52.190  17.044  1.00  0.00     0.274 HD
ENDBRANCH  11  12
ENDBRANCH  10  11
ENDBRANCH   9  10
BRANCH   5  16
HETATM   16  N3  UNL     1      38.908  53.130  10.298  1.00  0.00    -0.233 N 
ATOM     17  H32 UNL     1      38.811  52.651   9.402  1.00  0.00     0.174 HD
ATOM     18  H31 UNL     1      38.817  54.145  10.330  1.00  0.00     0.174 HD
ENDBRANCH   5  16
TORSDOF 4
ENDMDL
MODEL 2
REMARK VINA RESULT: -4.309424268      1.512      2.556
REMARK  4 active torsions:
REMARK  status: ('A' for Active; 'I' for Inactive)
REMARK    1  A    between atoms: C2_5  and  N3_6 
REMARK    2  A    between atoms: C4_12  and  C5_13 
REMARK    3  A    between atoms: C5_13  and  C6_14 
REMARK    4  A    between atoms: C6_14  and  N5_15 
ROOT
HETATM    1  C1  UNL     1      41.323  52.002  14.334  1.00  0.00     0.178 C 
HETATM    2  N1  UNL     1      40.306  51.791  13.338  1.00  0.00    -0.285 N 
HETATM    3  N2  UNL     1      40.225  52.612  12.288  1.00  0.00    -0.130 N 
ATOM      4  H2  UNL     1      40.891  53.380  12.202  1.00  0.00     0.206 HD
HETATM    5  C2  UNL     1      39.286  52.446  11.342  1.00  0.00     0.690 A 
HETATM    6  N4  UNL     1      38.412  51.435  11.459  1.00  0.00    -0.199 N 
ATOM      7  H4  UNL     1      37.693  51.299  10.748  1.00  0.00     0.183 HD
HETATM    8  C3  UNL     1      38.482  50.604  12.509  1.00  0.00     0.132 A 
HETATM    9  C4  UNL     1      39.442  50.774  13.473  1.00  0.00     0.046 A 
ENDROOT
BRANCH   9  10
HETATM   10  C5  UNL     1      39.480  49.814  14.625  1.00  0.00     0.087 C 
BRANCH  10  11
HETATM   11  C6  UNL     1      38.408  48.776  14.499  1.00  0.00     0.235 C 
BRANCH  11  12
HETATM   12  N5  UNL     1      38.058  48.177  15.765  1.00  0.00    -0.079 N 
ATOM     13  H53 UNL     1      38.106  47.160  15.712  1.00  0.00     0.274 HD
ATOM     14  H52 UNL     1      38.785  48.341  16.461  1.00  0.00     0.274 HD
ATOM     15  H51 UNL     1      37.148  48.483  16.109  1.00  0.00     0.274 HD
ENDBRANCH  11  12
ENDBRANCH  10  11
ENDBRANCH   9  10
BRANCH   5  16
HETATM   16  N3  UNL     1      39.188  53.237  10.306  1.00  0.00    -0.233 N 
ATOM     17  H32 UNL     1      38.612  54.075  10.388  1.00  0.00     0.174 HD
ATOM     18  H31 UNL     1      39.665  53.046   9.426  1.00  0.00     0.174 HD
ENDBRANCH   5  16
TORSDOF 4
ENDMDL
MODEL 3
REMARK VINA RESULT: -4.157609082      8.901     10.704
REMARK  4 active torsions:
REMARK  status: ('A' for Active; 'I' for Inactive)
REMARK    1  A    between atoms: C2_5  and  N3_6 
REMARK    2  A    between atoms: C4_12  and  C5_13 
REMARK    3  A    between atoms: C5_13  and  C6_14 
REMARK    4  A    between atoms: C6_14  and  N5_15 
ROOT
HETATM    1  C1  UNL     1      40.306  58.063  23.328  1.00  0.00     0.178 C 
HETATM    2  N1  UNL     1      40.294  56.876  22.514  1.00  0.00    -0.285 N 
HETATM    3  N2  UNL     1      39.667  55.780  22.948  1.00  0.00    -0.130 N 
ATOM      4  H2  UNL     1      39.198  55.798  23.855  1.00  0.00     0.206 HD
HETATM    5  C2  UNL     1      39.639  54.654  22.217  1.00  0.00     0.690 A 
HETATM    6  N4  UNL     1      40.257  54.634  21.026  1.00  0.00    -0.199 N 
ATOM      7  H4  UNL     1      40.245  53.785  20.460  1.00  0.00     0.183 HD
HETATM    8  C3  UNL     1      40.891  55.728  20.579  1.00  0.00     0.132 A 
HETATM    9  C4  UNL     1      40.917  56.877  21.328  1.00  0.00     0.046 A 
ENDROOT
BRANCH   9  10
HETATM   10  C5  UNL     1      41.635  58.074  20.779  1.00  0.00     0.087 C 
BRANCH  10  11
HETATM   11  C6  UNL     1      43.119  57.913  20.894  1.00  0.00     0.235 C 
BRANCH  11  12
HETATM   12  N5  UNL     1      43.686  58.696  21.966  1.00  0.00    -0.079 N 
ATOM     13  H53 UNL     1      43.454  59.683  21.859  1.00  0.00     0.274 HD
ATOM     14  H52 UNL     1      43.210  58.508  22.847  1.00  0.00     0.274 HD
ATOM     15  H51 UNL     1      44.694  58.566  22.061  1.00  0.00     0.274 HD
ENDBRANCH  11  12
ENDBRANCH  10  11
ENDBRANCH   9  10
BRANCH   5  16
HETATM   16  N3  UNL     1      39.033  53.570  22.621  1.00  0.00    -0.233 N 
ATOM     17  H32 UNL     1      38.137  53.664  23.101  1.00  0.00     0.174 HD
ATOM     18  H31 UNL     1      39.421  52.638  22.472  1.00  0.00     0.174 HD
ENDBRANCH   5  16
TORSDOF 4
ENDMDL
MODEL 4
REMARK VINA RESULT: -4.152294171     11.192     12.907
REMARK  4 active torsions:
REMARK  status: ('A' for Active; 'I' for Inactive)
REMARK    1  A    between atoms: C2_5  and  N3_6 
REMARK    2  A    between atoms: C4_12  and  C5_13 
REMARK    3  A    between atoms: C5_13  and  C6_14 
REMARK    4  A    between atoms: C6_14  and  N5_15 
ROOT
HETATM    1  C1  UNL     1      40.340  55.349  22.767  1.00  0.00     0.178 C 
HETATM    2  N1  UNL     1      40.405  55.907  24.091  1.00  0.00    -0.285 N 
HETATM    3  N2  UNL     1      39.697  57.000  24.386  1.00  0.00    -0.130 N 
ATOM      4  H2  UNL     1      39.113  57.426  23.666  1.00  0.00     0.206 HD
HETATM    5  C2  UNL     1      39.737  57.550  25.611  1.00  0.00     0.690 A 
HETATM    6  N4  UNL     1      40.507  56.987  26.555  1.00  0.00    -0.199 N 
ATOM      7  H4  UNL     1      40.547  57.395  27.489  1.00  0.00     0.183 HD
HETATM    8  C3  UNL     1      41.223  55.890  26.271  1.00  0.00     0.132 A 
HETATM    9  C4  UNL     1      41.180  55.329  25.020  1.00  0.00     0.046 A 
ENDROOT
BRANCH   9  10
HETATM   10  C5  UNL     1      41.996  54.099  24.756  1.00  0.00     0.087 C 
BRANCH  10  11
HETATM   11  C6  UNL     1      41.429  52.911  25.469  1.00  0.00     0.235 C 
BRANCH  11  12
HETATM   12  N5  UNL     1      40.311  52.321  24.772  1.00  0.00    -0.079 N 
ATOM     13  H53 UNL     1      39.454  52.405  25.318  1.00  0.00     0.274 HD
ATOM     14  H52 UNL     1      40.047  52.883  23.963  1.00  0.00     0.274 HD
ATOM     15  H51 UNL     1      40.479  51.351  24.503  1.00  0.00     0.274 HD
ENDBRANCH  11  12
ENDBRANCH  10  11
ENDBRANCH   9  10
BRANCH   5  16
HETATM   16  N3  UNL     1      39.054  58.619  25.922  1.00  0.00    -0.233 N 
ATOM     17  H32 UNL     1      38.049  58.622  25.744  1.00  0.00     0.174 HD
ATOM     18  H31 UNL     1      39.487  59.444  26.335  1.00  0.00     0.174 HD
ENDBRANCH   5  16
TORSDOF 4
ENDMDL
MODEL 5
REMARK VINA RESULT: -4.148682299      8.256     10.077
REMARK  4 active torsions:
REMARK  status: ('A' for Active; 'I' for Inactive)
REMARK    1  A    between atoms: C2_5  and  N3_6 
REMARK    2  A    between atoms: C4_12  and  C5_13 
REMARK    3  A    between atoms: C5_13  and  C6_14 
REMARK    4  A    between atoms: C6_14  and  N5_15 
ROOT
HETATM    1  C1  UNL     1      41.689  55.349  19.230  1.00  0.00     0.178 C 
HETATM    2  N1  UNL     1      40.957  55.517  20.458  1.00  0.00    -0.285 N 
HETATM    3  N2  UNL     1      40.323  54.475  21.000  1.00  0.00    -0.130 N 
ATOM      4  H2  UNL     1      40.369  53.567  20.538  1.00  0.00     0.206 HD
HETATM    5  C2  UNL     1      39.628  54.597  22.143  1.00  0.00     0.690 A 
HETATM    6  N4  UNL     1      39.570  55.793  22.747  1.00  0.00    -0.199 N 
ATOM      7  H4  UNL     1      39.044  55.900  23.615  1.00  0.00     0.183 HD
HETATM    8  C3  UNL     1      40.201  56.848  22.212  1.00  0.00     0.132 A 
HETATM    9  C4  UNL     1      40.912  56.721  21.046  1.00  0.00     0.046 A 
ENDROOT
BRANCH   9  10
HETATM   10  C5  UNL     1      41.605  57.931  20.492  1.00  0.00     0.087 C 
BRANCH  10  11
HETATM   11  C6  UNL     1      42.799  58.296  21.318  1.00  0.00     0.235 C 
BRANCH  11  12
HETATM   12  N5  UNL     1      44.022  57.712  20.823  1.00  0.00    -0.079 N 
ATOM     13  H53 UNL     1      43.846  56.802  20.396  1.00  0.00     0.274 HD
ATOM     14  H52 UNL     1      44.362  58.215  20.004  1.00  0.00     0.274 HD
ATOM     15  H51 UNL     1      44.747  57.645  21.538  1.00  0.00     0.274 HD
ENDBRANCH  11  12
ENDBRANCH  10  11
ENDBRANCH   9  10
BRANCH   5  16
HETATM   16  N3  UNL     1      39.000  53.592  22.692  1.00  0.00    -0.233 N 
ATOM     17  H32 UNL     1      39.470  53.071  23.432  1.00  0.00     0.174 HD
ATOM     18  H31 UNL     1      38.060  53.313  22.408  1.00  0.00     0.174 HD
ENDBRANCH   5  16
TORSDOF 4
ENDMDL
