MODEL 1
REMARK VINA RESULT: -4.877082152      0.000      0.000
REMARK  2 active torsions:
REMARK  status: ('A' for Active; 'I' for Inactive)
REMARK    1  A    between atoms: N3_4  and  N4_6 
REMARK    2  A    between atoms: C2_8  and  C3_9 
ROOT
HETATM    1  N4  UNL     1      41.362  54.844  18.599  1.00  0.00    -0.308 N 
ATOM      2  H4  UNL     1      40.444  54.513  18.303  1.00  0.00     0.186 HD
HETATM    3  C2  UNL     1      41.484  55.581  19.643  1.00  0.00     0.138 C 
ENDROOT
BRANCH   3   4
HETATM    4  C3  UNL     1      40.292  55.938  20.400  1.00  0.00     0.065 A 
HETATM    5  C4  UNL     1      40.284  56.417  21.695  1.00  0.00     0.119 A 
HETATM    6  N5  UNL     1      38.987  56.612  21.995  1.00  0.00    -0.360 N 
HETATM    7  C5  UNL     1      38.237  56.264  20.925  1.00  0.00     0.180 A 
ATOM      8  H5  UNL     1      38.629  56.964  22.883  1.00  0.00     0.166 HD
HETATM    9  N6  UNL     1      39.035  55.846  19.932  1.00  0.00    -0.350 N 
ATOM     10  H6  UNL     1      38.747  55.523  19.008  1.00  0.00     0.166 HD
ENDBRANCH   3   4
BRANCH   1  11
HETATM   11  N3  UNL     1      42.505  54.502  17.872  1.00  0.00    -0.276 N 
HETATM   12  C1  UNL     1      42.442  54.499  16.580  1.00  0.00     0.215 C 
HETATM   13  N1  UNL     1      41.245  54.833  15.885  1.00  0.00    -0.065 NA
HETATM   14  N2  UNL     1      43.605  54.150  15.870  1.00  0.00    -0.065 NA
ATOM     15  H3  UNL     1      43.372  54.259  18.351  1.00  0.00     0.189 HD
ENDBRANCH   1  11
TORSDOF 2
ENDMDL
MODEL 2
REMARK VINA RESULT: -4.710243057      1.497      2.123
REMARK  2 active torsions:
REMARK  status: ('A' for Active; 'I' for Inactive)
REMARK    1  A    between atoms: N3_4  and  N4_6 
REMARK    2  A    between atoms: C2_8  and  C3_9 
ROOT
HETATM    1  N4  UNL     1      40.948  55.690  19.316  1.00  0.00    -0.308 N 
ATOM      2  H4  UNL     1      41.902  55.839  19.646  1.00  0.00     0.186 HD
HETATM    3  C2  UNL     1      39.947  56.083  20.018  1.00  0.00     0.138 C 
ENDROOT
BRANCH   3   4
HETATM    4  C3  UNL     1      40.193  56.744  21.292  1.00  0.00     0.065 A 
HETATM    5  C4  UNL     1      41.274  57.556  21.573  1.00  0.00     0.119 A 
HETATM    6  N5  UNL     1      41.103  57.948  22.849  1.00  0.00    -0.360 N 
HETATM    7  C5  UNL     1      39.963  57.395  23.324  1.00  0.00     0.180 A 
ATOM      8  H5  UNL     1      41.728  58.561  23.372  1.00  0.00     0.166 HD
HETATM    9  N6  UNL     1      39.392  56.648  22.367  1.00  0.00    -0.350 N 
ATOM     10  H6  UNL     1      38.525  56.115  22.441  1.00  0.00     0.166 HD
ENDBRANCH   3   4
BRANCH   1  11
HETATM   11  N3  UNL     1      40.713  55.056  18.094  1.00  0.00    -0.276 N 
HETATM   12  C1  UNL     1      41.370  55.452  17.052  1.00  0.00     0.215 C 
HETATM   13  N1  UNL     1      42.319  56.512  17.119  1.00  0.00    -0.065 NA
HETATM   14  N2  UNL     1      41.117  54.798  15.832  1.00  0.00    -0.065 NA
ATOM     15  H3  UNL     1      40.038  54.294  18.024  1.00  0.00     0.189 HD
ENDBRANCH   1  11
TORSDOF 2
ENDMDL
MODEL 3
REMARK VINA RESULT: -4.566291180      1.534      1.887
REMARK  2 active torsions:
REMARK  status: ('A' for Active; 'I' for Inactive)
REMARK    1  A    between atoms: N3_4  and  N4_6 
REMARK    2  A    between atoms: C2_8  and  C3_9 
ROOT
HETATM    1  N4  UNL     1      43.296  55.366  18.199  1.00  0.00    -0.308 N 
ATOM      2  H4  UNL     1      42.998  54.505  18.659  1.00  0.00     0.186 HD
HETATM    3  C2  UNL     1      42.701  56.476  18.449  1.00  0.00     0.138 C 
ENDROOT
BRANCH   3   4
HETATM    4  C3  UNL     1      41.596  56.489  19.398  1.00  0.00     0.065 A 
HETATM    5  C4  UNL     1      41.469  57.361  20.461  1.00  0.00     0.119 A 
HETATM    6  N5  UNL     1      40.316  57.022  21.064  1.00  0.00    -0.360 N 
HETATM    7  C5  UNL     1      39.764  55.983  20.395  1.00  0.00     0.180 A 
ATOM      8  H5  UNL     1      39.922  57.473  21.890  1.00  0.00     0.166 HD
HETATM    9  N6  UNL     1      40.549  55.646  19.361  1.00  0.00    -0.350 N 
ATOM     10  H6  UNL     1      40.386  54.901  18.684  1.00  0.00     0.166 HD
ENDBRANCH   3   4
BRANCH   1  11
HETATM   11  N3  UNL     1      44.355  55.352  17.289  1.00  0.00    -0.276 N 
HETATM   12  C1  UNL     1      44.278  54.575  16.258  1.00  0.00     0.215 C 
HETATM   13  N1  UNL     1      43.149  53.738  16.028  1.00  0.00    -0.065 NA
HETATM   14  N2  UNL     1      45.357  54.578  15.355  1.00  0.00    -0.065 NA
ATOM     15  H3  UNL     1      45.173  55.944  17.435  1.00  0.00     0.189 HD
ENDBRANCH   1  11
TORSDOF 2
ENDMDL
MODEL 4
REMARK VINA RESULT: -4.459995372      0.995      1.420
REMARK  2 active torsions:
REMARK  status: ('A' for Active; 'I' for Inactive)
REMARK    1  A    between atoms: N3_4  and  N4_6 
REMARK    2  A    between atoms: C2_8  and  C3_9 
ROOT
HETATM    1  N4  UNL     1      41.173  54.745  18.903  1.00  0.00    -0.308 N 
ATOM      2  H4  UNL     1      40.226  55.019  18.638  1.00  0.00     0.186 HD
HETATM    3  C2  UNL     1      41.636  55.044  20.063  1.00  0.00     0.138 C 
ENDROOT
BRANCH   3   4
HETATM    4  C3  UNL     1      40.792  55.779  20.994  1.00  0.00     0.065 A 
HETATM    5  C4  UNL     1      39.422  55.916  20.891  1.00  0.00     0.119 A 
HETATM    6  N5  UNL     1      39.058  56.663  21.949  1.00  0.00    -0.360 N 
HETATM    7  C5  UNL     1      40.163  56.969  22.666  1.00  0.00     0.180 A 
ATOM      8  H5  UNL     1      38.105  56.951  22.174  1.00  0.00     0.166 HD
HETATM    9  N6  UNL     1      41.242  56.426  22.083  1.00  0.00    -0.350 N 
ATOM     10  H6  UNL     1      42.210  56.491  22.401  1.00  0.00     0.166 HD
ENDBRANCH   3   4
BRANCH   1  11
HETATM   11  N3  UNL     1      41.981  54.040  18.009  1.00  0.00    -0.276 N 
HETATM   12  C1  UNL     1      41.979  54.386  16.763  1.00  0.00     0.215 C 
HETATM   13  N1  UNL     1      41.178  55.461  16.282  1.00  0.00    -0.065 NA
HETATM   14  N2  UNL     1      42.801  53.661  15.881  1.00  0.00    -0.065 NA
ATOM     15  H3  UNL     1      42.563  53.266  18.333  1.00  0.00     0.189 HD
ENDBRANCH   1  11
TORSDOF 2
ENDMDL
MODEL 5
REMARK VINA RESULT: -4.439552580      1.555      1.614
REMARK  2 active torsions:
REMARK  status: ('A' for Active; 'I' for Inactive)
REMARK    1  A    between atoms: N3_4  and  N4_6 
REMARK    2  A    between atoms: C2_8  and  C3_9 
ROOT
HETATM    1  N4  UNL     1      42.009  54.086  18.761  1.00  0.00    -0.308 N 
ATOM      2  H4  UNL     1      41.065  53.841  18.460  1.00  0.00     0.186 HD
HETATM    3  C2  UNL     1      42.228  54.468  19.967  1.00  0.00     0.138 C 
ENDROOT
BRANCH   3   4
HETATM    4  C3  UNL     1      41.111  54.548  20.899  1.00  0.00     0.065 A 
HETATM    5  C4  UNL     1      40.493  55.715  21.303  1.00  0.00     0.119 A 
HETATM    6  N5  UNL     1      39.526  55.329  22.154  1.00  0.00    -0.360 N 
HETATM    7  C5  UNL     1      39.556  53.981  22.264  1.00  0.00     0.180 A 
ATOM      8  H5  UNL     1      38.876  55.950  22.638  1.00  0.00     0.166 HD
HETATM    9  N6  UNL     1      40.534  53.488  21.490  1.00  0.00    -0.350 N 
ATOM     10  H6  UNL     1      40.789  52.507  21.374  1.00  0.00     0.166 HD
ENDBRANCH   3   4
BRANCH   1  11
HETATM   11  N3  UNL     1      43.079  54.009  17.868  1.00  0.00    -0.276 N 
HETATM   12  C1  UNL     1      42.899  54.397  16.647  1.00  0.00     0.215 C 
HETATM   13  N1  UNL     1      41.644  54.897  16.194  1.00  0.00    -0.065 NA
HETATM   14  N2  UNL     1      43.991  54.310  15.765  1.00  0.00    -0.065 NA
ATOM     15  H3  UNL     1      43.986  53.654  18.172  1.00  0.00     0.189 HD
ENDBRANCH   1  11
TORSDOF 2
ENDMDL
