MODEL 1
REMARK VINA RESULT: -8.940695154      0.000      0.000
REMARK  8 active torsions:
REMARK  status: ('A' for Active; 'I' for Inactive)
REMARK    1  A    between atoms: O1_2  and  C2_3 
REMARK    2  A    between atoms: C2_3  and  C3_5 
REMARK    3  A    between atoms: C3_5  and  C4_6 
REMARK    4  A    between atoms: C3_5  and  N1_14 
REMARK    5  A    between atoms: C4_6  and  C5_7 
REMARK       I    between atoms: N1_14  and  C12_16 
REMARK       I    between atoms: C12_16  and  N2_18 
REMARK    6  A    between atoms: N2_18  and  C13_20 
REMARK    7  A    between atoms: C13_20  and  C14_21 
REMARK    8  A    between atoms: C16_25  and  O6_26 
ROOT
HETATM    1  N1  UNL     1       7.329  51.296 110.085  1.00  0.00    -0.329 N 
ATOM      2  H1  UNL     1       6.964  51.815 109.286  1.00  0.00     0.165 HD
HETATM    3  C12 UNL     1       7.805  49.975 109.860  1.00  0.00     0.316 C 
HETATM    4  O3  UNL     1       8.268  49.261 110.780  1.00  0.00    -0.247 OA
HETATM    5  N2  UNL     1       7.761  49.435 108.555  1.00  0.00    -0.341 N 
ATOM      6  H2  UNL     1       7.389  49.995 107.787  1.00  0.00     0.164 HD
ENDROOT
BRANCH   1   7
HETATM    7  C3  UNL     1       7.330  51.950 111.374  1.00  0.00     0.186 C 
BRANCH   7   8
HETATM    8  C2  UNL     1       6.074  51.623 112.131  1.00  0.00     0.281 C 
HETATM    9  O2  UNL     1       5.664  52.421 113.008  1.00  0.00    -0.263 OA
BRANCH   8  10
HETATM   10  O1  UNL     1       5.339  50.473 111.906  1.00  0.00    -0.325 OA
HETATM   11  C1  UNL     1       5.222  49.431 112.857  1.00  0.00     0.213 C 
ENDBRANCH   8  10
ENDBRANCH   7   8
BRANCH   7  12
HETATM   12  C4  UNL     1       7.381  53.438 111.279  1.00  0.00     0.040 C 
BRANCH  12  13
HETATM   13  C5  UNL     1       8.606  54.084 111.828  1.00  0.00    -0.012 C 
HETATM   14  C6  UNL     1       9.802  53.336 111.226  1.00  0.00     0.005 C 
HETATM   15  C7  UNL     1      10.092  53.776 109.834  1.00  0.00     0.000 C 
HETATM   16  C8  UNL     1      10.815  55.077 109.723  1.00  0.00     0.000 C 
HETATM   17  C9  UNL     1      11.154  55.698 111.043  1.00  0.00     0.000 C 
HETATM   18  C10 UNL     1       9.959  56.158 111.813  1.00  0.00     0.000 C 
HETATM   19  C11 UNL     1       8.665  55.521 111.356  1.00  0.00     0.005 C 
ENDBRANCH  12  13
ENDBRANCH   7  12
ENDBRANCH   1   7
BRANCH   5  20
HETATM   20  C13 UNL     1       8.235  48.102 108.301  1.00  0.00     0.161 C 
BRANCH  20  21
HETATM   21  C14 UNL     1       8.574  47.878 106.861  1.00  0.00     0.197 C 
HETATM   22  O4  UNL     1       9.219  46.689 106.623  1.00  0.00    -0.355 OA
HETATM   23  C15 UNL     1       8.544  46.018 105.619  1.00  0.00     0.341 C 
HETATM   24  O5  UNL     1       7.733  46.962 104.983  1.00  0.00    -0.335 OA
HETATM   25  C16 UNL     1       7.268  47.689 106.102  1.00  0.00     0.290 C 
BRANCH  25  26
HETATM   26  O6  UNL     1       6.701  48.897 105.726  1.00  0.00    -0.368 OA
ATOM     27  H6  UNL     1       5.756  48.897 105.826  1.00  0.00     0.212 HD
ENDBRANCH  25  26
ENDBRANCH  20  21
ENDBRANCH   5  20
TORSDOF 8
ENDMDL
MODEL 2
REMARK VINA RESULT: -8.897466677      0.877      1.491
REMARK  8 active torsions:
REMARK  status: ('A' for Active; 'I' for Inactive)
REMARK    1  A    between atoms: O1_2  and  C2_3 
REMARK    2  A    between atoms: C2_3  and  C3_5 
REMARK    3  A    between atoms: C3_5  and  C4_6 
REMARK    4  A    between atoms: C3_5  and  N1_14 
REMARK    5  A    between atoms: C4_6  and  C5_7 
REMARK       I    between atoms: N1_14  and  C12_16 
REMARK       I    between atoms: C12_16  and  N2_18 
REMARK    6  A    between atoms: N2_18  and  C13_20 
REMARK    7  A    between atoms: C13_20  and  C14_21 
REMARK    8  A    between atoms: C16_25  and  O6_26 
ROOT
HETATM    1  N1  UNL     1       8.082  51.084 110.162  1.00  0.00    -0.329 N 
ATOM      2  H1  UNL     1       8.255  51.744 109.404  1.00  0.00     0.165 HD
HETATM    3  C12 UNL     1       7.885  49.717 109.824  1.00  0.00     0.316 C 
HETATM    4  O3  UNL     1       7.663  48.836 110.688  1.00  0.00    -0.247 OA
HETATM    5  N2  UNL     1       7.937  49.324 108.468  1.00  0.00    -0.341 N 
ATOM      6  H2  UNL     1       8.116  50.021 107.744  1.00  0.00     0.164 HD
ENDROOT
BRANCH   1   7
HETATM    7  C3  UNL     1       8.055  51.598 111.513  1.00  0.00     0.186 C 
BRANCH   7   8
HETATM    8  C2  UNL     1       6.687  52.123 111.848  1.00  0.00     0.281 C 
HETATM    9  O2  UNL     1       6.584  53.135 112.583  1.00  0.00    -0.263 OA
BRANCH   8  10
HETATM   10  O1  UNL     1       5.524  51.539 111.381  1.00  0.00    -0.325 OA
HETATM   11  C1  UNL     1       4.866  50.480 112.052  1.00  0.00     0.213 C 
ENDBRANCH   8  10
ENDBRANCH   7   8
BRANCH   7  12
HETATM   12  C4  UNL     1       8.998  52.733 111.730  1.00  0.00     0.040 C 
BRANCH  12  13
HETATM   13  C5  UNL     1       9.138  53.689 110.595  1.00  0.00    -0.012 C 
HETATM   14  C6  UNL     1       8.771  55.074 111.143  1.00  0.00     0.005 C 
HETATM   15  C7  UNL     1       9.892  55.687 111.906  1.00  0.00     0.000 C 
HETATM   16  C8  UNL     1      10.977  56.275 111.069  1.00  0.00     0.000 C 
HETATM   17  C9  UNL     1      10.728  56.175 109.595  1.00  0.00     0.000 C 
HETATM   18  C10 UNL     1      10.764  54.774 109.076  1.00  0.00     0.000 C 
HETATM   19  C11 UNL     1      10.585  53.727 110.152  1.00  0.00     0.005 C 
ENDBRANCH  12  13
ENDBRANCH   7  12
ENDBRANCH   1   7
BRANCH   5  20
HETATM   20  C13 UNL     1       7.740  47.948 108.099  1.00  0.00     0.161 C 
BRANCH  20  21
HETATM   21  C14 UNL     1       8.599  47.534 106.948  1.00  0.00     0.197 C 
HETATM   22  O4  UNL     1       9.262  46.347 107.150  1.00  0.00    -0.355 OA
HETATM   23  C15 UNL     1       9.010  45.516 106.075  1.00  0.00     0.341 C 
HETATM   24  O5  UNL     1       8.523  46.328 105.046  1.00  0.00    -0.335 OA
HETATM   25  C16 UNL     1       7.681  47.189 105.785  1.00  0.00     0.290 C 
BRANCH  25  26
HETATM   26  O6  UNL     1       7.325  48.310 105.048  1.00  0.00    -0.368 OA
ATOM     27  H6  UNL     1       7.808  48.372 104.233  1.00  0.00     0.212 HD
ENDBRANCH  25  26
ENDBRANCH  20  21
ENDBRANCH   5  20
TORSDOF 8
ENDMDL
MODEL 3
REMARK VINA RESULT: -8.699796566      2.429      3.137
REMARK  8 active torsions:
REMARK  status: ('A' for Active; 'I' for Inactive)
REMARK    1  A    between atoms: O1_2  and  C2_3 
REMARK    2  A    between atoms: C2_3  and  C3_5 
REMARK    3  A    between atoms: C3_5  and  C4_6 
REMARK    4  A    between atoms: C3_5  and  N1_14 
REMARK    5  A    between atoms: C4_6  and  C5_7 
REMARK       I    between atoms: N1_14  and  C12_16 
REMARK       I    between atoms: C12_16  and  N2_18 
REMARK    6  A    between atoms: N2_18  and  C13_20 
REMARK    7  A    between atoms: C13_20  and  C14_21 
REMARK    8  A    between atoms: C16_25  and  O6_26 
ROOT
HETATM    1  N1  UNL     1       7.529  49.040 110.580  1.00  0.00    -0.329 N 
ATOM      2  H1  UNL     1       7.309  49.181 109.594  1.00  0.00     0.165 HD
HETATM    3  C12 UNL     1       7.976  47.752 110.986  1.00  0.00     0.316 C 
HETATM    4  O3  UNL     1       8.266  47.485 112.176  1.00  0.00    -0.247 OA
HETATM    5  N2  UNL     1       8.103  46.727 110.021  1.00  0.00    -0.341 N 
ATOM      6  H2  UNL     1       7.875  46.918 109.045  1.00  0.00     0.164 HD
ENDROOT
BRANCH   1   7
HETATM    7  C3  UNL     1       7.366  50.162 111.478  1.00  0.00     0.186 C 
BRANCH   7   8
HETATM    8  C2  UNL     1       5.950  50.233 111.979  1.00  0.00     0.281 C 
HETATM    9  O2  UNL     1       5.171  51.084 111.487  1.00  0.00    -0.263 OA
BRANCH   8  10
HETATM   10  O1  UNL     1       5.460  49.398 112.965  1.00  0.00    -0.325 OA
HETATM   11  C1  UNL     1       4.116  49.430 113.410  1.00  0.00     0.213 C 
ENDBRANCH   8  10
ENDBRANCH   7   8
BRANCH   7  12
HETATM   12  C4  UNL     1       7.643  51.477 110.831  1.00  0.00     0.040 C 
BRANCH  12  13
HETATM   13  C5  UNL     1       8.196  52.536 111.721  1.00  0.00    -0.012 C 
HETATM   14  C6  UNL     1       9.677  52.687 111.353  1.00  0.00     0.005 C 
HETATM   15  C7  UNL     1       9.866  53.505 110.123  1.00  0.00     0.000 C 
HETATM   16  C8  UNL     1       9.737  54.978 110.321  1.00  0.00     0.000 C 
HETATM   17  C9  UNL     1       9.472  55.379 111.740  1.00  0.00     0.000 C 
HETATM   18  C10 UNL     1       8.129  54.956 112.241  1.00  0.00     0.000 C 
HETATM   19  C11 UNL     1       7.502  53.849 111.424  1.00  0.00     0.005 C 
ENDBRANCH  12  13
ENDBRANCH   7  12
ENDBRANCH   1   7
BRANCH   5  20
HETATM   20  C13 UNL     1       8.553  45.416 110.406  1.00  0.00     0.161 C 
BRANCH  20  21
HETATM   21  C14 UNL     1       9.071  44.625 109.247  1.00  0.00     0.197 C 
HETATM   22  O4  UNL     1       9.214  45.359 108.095  1.00  0.00    -0.355 OA
HETATM   23  C15 UNL     1      10.498  45.175 107.615  1.00  0.00     0.341 C 
HETATM   24  O5  UNL     1      11.002  44.035 108.248  1.00  0.00    -0.335 OA
HETATM   25  C16 UNL     1      10.509  44.237 109.557  1.00  0.00     0.290 C 
BRANCH  25  26
HETATM   26  O6  UNL     1      10.588  43.078 110.316  1.00  0.00    -0.368 OA
ATOM     27  H6  UNL     1      10.479  43.248 111.244  1.00  0.00     0.212 HD
ENDBRANCH  25  26
ENDBRANCH  20  21
ENDBRANCH   5  20
TORSDOF 8
ENDMDL
MODEL 4
REMARK VINA RESULT: -8.567244786      1.444      2.041
REMARK  8 active torsions:
REMARK  status: ('A' for Active; 'I' for Inactive)
REMARK    1  A    between atoms: O1_2  and  C2_3 
REMARK    2  A    between atoms: C2_3  and  C3_5 
REMARK    3  A    between atoms: C3_5  and  C4_6 
REMARK    4  A    between atoms: C3_5  and  N1_14 
REMARK    5  A    between atoms: C4_6  and  C5_7 
REMARK       I    between atoms: N1_14  and  C12_16 
REMARK       I    between atoms: C12_16  and  N2_18 
REMARK    6  A    between atoms: N2_18  and  C13_20 
REMARK    7  A    between atoms: C13_20  and  C14_21 
REMARK    8  A    between atoms: C16_25  and  O6_26 
ROOT
HETATM    1  N1  UNL     1       6.480  50.178 110.243  1.00  0.00    -0.329 N 
ATOM      2  H1  UNL     1       5.544  50.206 109.837  1.00  0.00     0.165 HD
HETATM    3  C12 UNL     1       7.513  49.550 109.492  1.00  0.00     0.316 C 
HETATM    4  O3  UNL     1       8.691  49.464 109.911  1.00  0.00    -0.247 OA
HETATM    5  N2  UNL     1       7.212  48.999 108.226  1.00  0.00    -0.341 N 
ATOM      6  H2  UNL     1       6.261  49.056 107.861  1.00  0.00     0.164 HD
ENDROOT
BRANCH   1   7
HETATM    7  C3  UNL     1       6.673  50.778 111.544  1.00  0.00     0.186 C 
BRANCH   7   8
HETATM    8  C2  UNL     1       5.654  50.257 112.519  1.00  0.00     0.281 C 
HETATM    9  O2  UNL     1       5.630  49.030 112.780  1.00  0.00    -0.263 OA
BRANCH   8  10
HETATM   10  O1  UNL     1       4.733  51.073 113.150  1.00  0.00    -0.325 OA
HETATM   11  C1  UNL     1       3.558  50.580 113.768  1.00  0.00     0.213 C 
ENDBRANCH   8  10
ENDBRANCH   7   8
BRANCH   7  12
HETATM   12  C4  UNL     1       6.518  52.261 111.536  1.00  0.00     0.040 C 
BRANCH  12  13
HETATM   13  C5  UNL     1       7.638  53.035 112.141  1.00  0.00    -0.012 C 
HETATM   14  C6  UNL     1       8.935  52.350 111.692  1.00  0.00     0.005 C 
HETATM   15  C7  UNL     1       9.314  52.728 110.303  1.00  0.00     0.000 C 
HETATM   16  C8  UNL     1       9.944  54.074 110.166  1.00  0.00     0.000 C 
HETATM   17  C9  UNL     1      10.117  54.798 111.466  1.00  0.00     0.000 C 
HETATM   18  C10 UNL     1       8.828  55.206 112.100  1.00  0.00     0.000 C 
HETATM   19  C11 UNL     1       7.631  54.442 111.581  1.00  0.00     0.005 C 
ENDBRANCH  12  13
ENDBRANCH   7  12
ENDBRANCH   1   7
BRANCH   5  20
HETATM   20  C13 UNL     1       8.238  48.358 107.448  1.00  0.00     0.161 C 
BRANCH  20  21
HETATM   21  C14 UNL     1       8.075  46.872 107.397  1.00  0.00     0.197 C 
HETATM   22  O4  UNL     1       8.651  46.290 106.294  1.00  0.00    -0.355 OA
HETATM   23  C15 UNL     1       9.476  45.265 106.721  1.00  0.00     0.341 C 
HETATM   24  O5  UNL     1       9.102  44.971 108.035  1.00  0.00    -0.335 OA
HETATM   25  C16 UNL     1       8.892  46.277 108.534  1.00  0.00     0.290 C 
BRANCH  25  26
HETATM   26  O6  UNL     1       8.191  46.260 109.731  1.00  0.00    -0.368 OA
ATOM     27  H6  UNL     1       8.319  47.055 110.234  1.00  0.00     0.212 HD
ENDBRANCH  25  26
ENDBRANCH  20  21
ENDBRANCH   5  20
TORSDOF 8
ENDMDL
MODEL 5
REMARK VINA RESULT: -8.462829113      2.071      2.781
REMARK  8 active torsions:
REMARK  status: ('A' for Active; 'I' for Inactive)
REMARK    1  A    between atoms: O1_2  and  C2_3 
REMARK    2  A    between atoms: C2_3  and  C3_5 
REMARK    3  A    between atoms: C3_5  and  C4_6 
REMARK    4  A    between atoms: C3_5  and  N1_14 
REMARK    5  A    between atoms: C4_6  and  C5_7 
REMARK       I    between atoms: N1_14  and  C12_16 
REMARK       I    between atoms: C12_16  and  N2_18 
REMARK    6  A    between atoms: N2_18  and  C13_20 
REMARK    7  A    between atoms: C13_20  and  C14_21 
REMARK    8  A    between atoms: C16_25  and  O6_26 
ROOT
HETATM    1  N1  UNL     1       6.415  49.767 110.755  1.00  0.00    -0.329 N 
ATOM      2  H1  UNL     1       5.524  49.620 110.281  1.00  0.00     0.165 HD
HETATM    3  C12 UNL     1       7.540  49.019 110.308  1.00  0.00     0.316 C 
HETATM    4  O3  UNL     1       8.673  49.131 110.832  1.00  0.00    -0.247 OA
HETATM    5  N2  UNL     1       7.387  48.113 109.235  1.00  0.00    -0.341 N 
ATOM      6  H2  UNL     1       6.475  48.003 108.791  1.00  0.00     0.164 HD
ENDROOT
BRANCH   1   7
HETATM    7  C3  UNL     1       6.456  50.724 111.839  1.00  0.00     0.186 C 
BRANCH   7   8
HETATM    8  C2  UNL     1       5.188  50.660 112.644  1.00  0.00     0.281 C 
HETATM    9  O2  UNL     1       4.874  51.636 113.366  1.00  0.00    -0.263 OA
BRANCH   8  10
HETATM   10  O1  UNL     1       4.342  49.566 112.627  1.00  0.00    -0.325 OA
HETATM   11  C1  UNL     1       2.952  49.666 112.376  1.00  0.00     0.213 C 
ENDBRANCH   8  10
ENDBRANCH   7   8
BRANCH   7  12
HETATM   12  C4  UNL     1       6.580  52.135 111.373  1.00  0.00     0.040 C 
BRANCH  12  13
HETATM   13  C5  UNL     1       7.647  52.944 112.026  1.00  0.00    -0.012 C 
HETATM   14  C6  UNL     1       8.983  52.294 111.647  1.00  0.00     0.005 C 
HETATM   15  C7  UNL     1       9.418  52.675 110.275  1.00  0.00     0.000 C 
HETATM   16  C8  UNL     1      10.017  54.037 110.159  1.00  0.00     0.000 C 
HETATM   17  C9  UNL     1      10.105  54.773 111.461  1.00  0.00     0.000 C 
HETATM   18  C10 UNL     1       8.775  55.149 112.028  1.00  0.00     0.000 C 
HETATM   19  C11 UNL     1       7.628  54.347 111.456  1.00  0.00     0.005 C 
ENDBRANCH  12  13
ENDBRANCH   7  12
ENDBRANCH   1   7
BRANCH   5  20
HETATM   20  C13 UNL     1       8.508  47.344 108.765  1.00  0.00     0.161 C 
BRANCH  20  21
HETATM   21  C14 UNL     1       8.446  45.915 109.202  1.00  0.00     0.197 C 
HETATM   22  O4  UNL     1       9.277  45.083 108.491  1.00  0.00    -0.355 OA
HETATM   23  C15 UNL     1      10.050  44.367 109.387  1.00  0.00     0.341 C 
HETATM   24  O5  UNL     1       9.421  44.473 110.632  1.00  0.00    -0.335 OA
HETATM   25  C16 UNL     1       9.035  45.832 110.602  1.00  0.00     0.290 C 
BRANCH  25  26
HETATM   26  O6  UNL     1       8.097  46.117 111.583  1.00  0.00    -0.368 OA
ATOM     27  H6  UNL     1       7.457  45.422 111.682  1.00  0.00     0.212 HD
ENDBRANCH  25  26
ENDBRANCH  20  21
ENDBRANCH   5  20
TORSDOF 8
ENDMDL
