MODEL 1
REMARK VINA RESULT: -8.251519230      0.000      0.000
REMARK  8 active torsions:
REMARK  status: ('A' for Active; 'I' for Inactive)
REMARK    1  A    between atoms: C2_2  and  C3_3 
REMARK    2  A    between atoms: C6_8  and  O3_9 
REMARK    3  A    between atoms: O3_9  and  C7_10 
REMARK    4  A    between atoms: C12_15  and  O4_16 
REMARK    5  A    between atoms: O4_16  and  C13_17 
REMARK    6  A    between atoms: C15_19  and  O5_20 
REMARK    7  A    between atoms: C16_22  and  C17_23 
REMARK    8  A    between atoms: C17_23  and  O6_24 
ROOT
HETATM    1  C1  UNL     1       9.014  50.179 109.673  1.00  0.00     0.029 C 
HETATM    2  C2  UNL     1       7.716  49.392 109.602  1.00  0.00     0.073 C 
HETATM    3  C4  UNL     1       7.760  48.176 110.463  1.00  0.00     0.025 C 
HETATM    4  C5  UNL     1       7.394  48.713 111.828  1.00  0.00     0.036 C 
HETATM    5  C6  UNL     1       6.524  49.898 111.607  1.00  0.00     0.152 C 
HETATM    6  C12 UNL     1       6.589  50.204 110.119  1.00  0.00     0.172 C 
ENDROOT
BRANCH   6   7
HETATM    7  O4  UNL     1       6.871  51.559 109.917  1.00  0.00    -0.352 OA
BRANCH   7   8
HETATM    8  C13 UNL     1       7.495  52.153 110.985  1.00  0.00     0.263 C 
HETATM    9  C14 UNL     1       6.569  52.814 111.967  1.00  0.00     0.095 C 
HETATM   10  C15 UNL     1       7.498  53.900 112.529  1.00  0.00     0.154 C 
HETATM   11  C16 UNL     1       8.207  54.281 111.244  1.00  0.00     0.177 C 
HETATM   12  O7  UNL     1       8.369  53.132 110.525  1.00  0.00    -0.351 OA
BRANCH  10  13
HETATM   13  O5  UNL     1       6.804  54.935 113.101  1.00  0.00    -0.393 OA
ATOM     14  H5  UNL     1       6.922  55.752 112.630  1.00  0.00     0.210 HD
ENDBRANCH  10  13
BRANCH  11  15
HETATM   15  C17 UNL     1       9.472  55.040 111.518  1.00  0.00     0.198 C 
BRANCH  15  16
HETATM   16  O6  UNL     1       9.210  56.340 111.883  1.00  0.00    -0.398 OA
ATOM     17  H6  UNL     1       8.523  56.386 112.536  1.00  0.00     0.209 HD
ENDBRANCH  15  16
ENDBRANCH  11  15
ENDBRANCH   7   8
ENDBRANCH   6   7
BRANCH   2  18
HETATM   18  C3  UNL     1       7.526  48.965 108.200  1.00  0.00     0.184 C 
HETATM   19  O1  UNL     1       6.978  49.731 107.382  1.00  0.00    -0.647 OA
HETATM   20  O2  UNL     1       7.952  47.717 107.793  1.00  0.00    -0.647 OA
ENDBRANCH   2  18
BRANCH   5  21
HETATM   21  O3  UNL     1       5.194  49.693 111.923  1.00  0.00    -0.378 OA
BRANCH  21  22
HETATM   22  C7  UNL     1       4.873  49.904 113.234  1.00  0.00     0.122 C 
HETATM   23  C8  UNL     1       4.318  48.584 113.781  1.00  0.00     0.032 C 
HETATM   24  C9  UNL     1       3.052  48.911 114.493  1.00  0.00     0.002 C 
HETATM   25  C10 UNL     1       2.901  50.395 114.555  1.00  0.00     0.002 C 
HETATM   26  C11 UNL     1       3.826  50.932 113.481  1.00  0.00     0.032 C 
ENDBRANCH  21  22
ENDBRANCH   5  21
TORSDOF 8
ENDMDL
MODEL 2
REMARK VINA RESULT: -8.116705579      6.807      9.718
REMARK  8 active torsions:
REMARK  status: ('A' for Active; 'I' for Inactive)
REMARK    1  A    between atoms: C2_2  and  C3_3 
REMARK    2  A    between atoms: C6_8  and  O3_9 
REMARK    3  A    between atoms: O3_9  and  C7_10 
REMARK    4  A    between atoms: C12_15  and  O4_16 
REMARK    5  A    between atoms: O4_16  and  C13_17 
REMARK    6  A    between atoms: C15_19  and  O5_20 
REMARK    7  A    between atoms: C16_22  and  C17_23 
REMARK    8  A    between atoms: C17_23  and  O6_24 
ROOT
HETATM    1  C1  UNL     1      13.524  44.067 105.523  1.00  0.00     0.029 C 
HETATM    2  C2  UNL     1      12.804  45.064 104.631  1.00  0.00     0.073 C 
HETATM    3  C4  UNL     1      11.500  44.531 104.145  1.00  0.00     0.025 C 
HETATM    4  C5  UNL     1      10.561  44.834 105.292  1.00  0.00     0.036 C 
HETATM    5  C6  UNL     1      11.092  46.041 105.978  1.00  0.00     0.152 C 
HETATM    6  C12 UNL     1      12.472  46.293 105.392  1.00  0.00     0.172 C 
ENDROOT
BRANCH   6   7
HETATM    7  O4  UNL     1      13.407  46.462 106.418  1.00  0.00    -0.352 OA
BRANCH   7   8
HETATM    8  C13 UNL     1      14.198  47.572 106.259  1.00  0.00     0.263 C 
HETATM    9  C14 UNL     1      13.702  48.559 105.240  1.00  0.00     0.095 C 
HETATM   10  C15 UNL     1      15.032  49.194 104.807  1.00  0.00     0.154 C 
HETATM   11  C16 UNL     1      15.894  47.947 104.815  1.00  0.00     0.177 C 
HETATM   12  O7  UNL     1      15.472  47.180 105.863  1.00  0.00    -0.351 OA
BRANCH  10  13
HETATM   13  O5  UNL     1      14.947  49.793 103.577  1.00  0.00    -0.393 OA
ATOM     14  H5  UNL     1      14.511  49.243 102.937  1.00  0.00     0.210 HD
ENDBRANCH  10  13
BRANCH  11  15
HETATM   15  C17 UNL     1      17.356  48.287 104.828  1.00  0.00     0.198 C 
BRANCH  15  16
HETATM   16  O6  UNL     1      17.557  49.635 105.016  1.00  0.00    -0.398 OA
ATOM     17  H6  UNL     1      18.348  49.802 105.514  1.00  0.00     0.209 HD
ENDBRANCH  15  16
ENDBRANCH  11  15
ENDBRANCH   7   8
ENDBRANCH   6   7
BRANCH   2  18
HETATM   18  C3  UNL     1      13.667  45.325 103.460  1.00  0.00     0.184 C 
HETATM   19  O1  UNL     1      13.228  45.980 102.493  1.00  0.00    -0.647 OA
HETATM   20  O2  UNL     1      14.960  44.843 103.434  1.00  0.00    -0.647 OA
ENDBRANCH   2  18
BRANCH   5  21
HETATM   21  O3  UNL     1      10.346  47.185 105.770  1.00  0.00    -0.378 OA
BRANCH  21  22
HETATM   22  C7  UNL     1       9.027  47.086 106.114  1.00  0.00     0.122 C 
HETATM   23  C8  UNL     1       8.370  48.430 105.784  1.00  0.00     0.032 C 
HETATM   24  C9  UNL     1       7.585  48.833 106.982  1.00  0.00     0.002 C 
HETATM   25  C10 UNL     1       7.591  47.709 107.965  1.00  0.00     0.002 C 
HETATM   26  C11 UNL     1       8.759  46.832 107.556  1.00  0.00     0.032 C 
ENDBRANCH  21  22
ENDBRANCH   5  21
TORSDOF 8
ENDMDL
MODEL 3
REMARK VINA RESULT: -8.097095007      2.068      5.729
REMARK  8 active torsions:
REMARK  status: ('A' for Active; 'I' for Inactive)
REMARK    1  A    between atoms: C2_2  and  C3_3 
REMARK    2  A    between atoms: C6_8  and  O3_9 
REMARK    3  A    between atoms: O3_9  and  C7_10 
REMARK    4  A    between atoms: C12_15  and  O4_16 
REMARK    5  A    between atoms: O4_16  and  C13_17 
REMARK    6  A    between atoms: C15_19  and  O5_20 
REMARK    7  A    between atoms: C16_22  and  C17_23 
REMARK    8  A    between atoms: C17_23  and  O6_24 
ROOT
HETATM    1  C1  UNL     1       6.766  48.105 110.134  1.00  0.00     0.029 C 
HETATM    2  C2  UNL     1       7.722  48.728 111.137  1.00  0.00     0.073 C 
HETATM    3  C4  UNL     1       8.968  49.218 110.482  1.00  0.00     0.025 C 
HETATM    4  C5  UNL     1       8.567  50.585 109.972  1.00  0.00     0.036 C 
HETATM    5  C6  UNL     1       7.505  51.091 110.880  1.00  0.00     0.152 C 
HETATM    6  C12 UNL     1       7.108  49.921 111.766  1.00  0.00     0.172 C 
ENDROOT
BRANCH   6   7
HETATM    7  O4  UNL     1       5.717  49.770 111.770  1.00  0.00    -0.352 OA
BRANCH   7   8
HETATM    8  C13 UNL     1       5.171  49.758 113.030  1.00  0.00     0.263 C 
HETATM    9  C14 UNL     1       4.470  48.482 113.399  1.00  0.00     0.095 C 
HETATM   10  C15 UNL     1       3.445  49.018 114.410  1.00  0.00     0.154 C 
HETATM   11  C16 UNL     1       3.091  50.316 113.711  1.00  0.00     0.177 C 
HETATM   12  O7  UNL     1       4.239  50.784 113.140  1.00  0.00    -0.351 OA
BRANCH  10  13
HETATM   13  O5  UNL     1       2.378  48.172 114.569  1.00  0.00    -0.393 OA
ATOM     14  H5  UNL     1       1.545  48.620 114.474  1.00  0.00     0.210 HD
ENDBRANCH  10  13
BRANCH  11  15
HETATM   15  C17 UNL     1       2.409  51.275 114.641  1.00  0.00     0.198 C 
BRANCH  15  16
HETATM   16  O6  UNL     1       3.086  51.387 115.833  1.00  0.00    -0.398 OA
ATOM     17  H6  UNL     1       3.479  52.246 115.930  1.00  0.00     0.209 HD
ENDBRANCH  15  16
ENDBRANCH  11  15
ENDBRANCH   7   8
ENDBRANCH   6   7
BRANCH   2  18
HETATM   18  C3  UNL     1       8.090  47.683 112.116  1.00  0.00     0.184 C 
HETATM   19  O1  UNL     1       7.240  46.850 112.491  1.00  0.00    -0.647 OA
HETATM   20  O2  UNL     1       9.374  47.628 112.619  1.00  0.00    -0.647 OA
ENDBRANCH   2  18
BRANCH   5  21
HETATM   21  O3  UNL     1       7.912  52.114 111.715  1.00  0.00    -0.378 OA
BRANCH  21  22
HETATM   22  C7  UNL     1       8.044  53.333 111.112  1.00  0.00     0.122 C 
HETATM   23  C8  UNL     1       9.518  53.490 110.726  1.00  0.00     0.032 C 
HETATM   24  C9  UNL     1       9.948  54.834 111.201  1.00  0.00     0.002 C 
HETATM   25  C10 UNL     1       8.753  55.574 111.704  1.00  0.00     0.002 C 
HETATM   26  C11 UNL     1       7.707  54.508 111.961  1.00  0.00     0.032 C 
ENDBRANCH  21  22
ENDBRANCH   5  21
TORSDOF 8
ENDMDL
MODEL 4
REMARK VINA RESULT: -8.030807456      1.994      5.823
REMARK  8 active torsions:
REMARK  status: ('A' for Active; 'I' for Inactive)
REMARK    1  A    between atoms: C2_2  and  C3_3 
REMARK    2  A    between atoms: C6_8  and  O3_9 
REMARK    3  A    between atoms: O3_9  and  C7_10 
REMARK    4  A    between atoms: C12_15  and  O4_16 
REMARK    5  A    between atoms: O4_16  and  C13_17 
REMARK    6  A    between atoms: C15_19  and  O5_20 
REMARK    7  A    between atoms: C16_22  and  C17_23 
REMARK    8  A    between atoms: C17_23  and  O6_24 
ROOT
HETATM    1  C1  UNL     1       7.093  48.738 109.802  1.00  0.00     0.029 C 
HETATM    2  C2  UNL     1       7.485  49.194 111.197  1.00  0.00     0.073 C 
HETATM    3  C4  UNL     1       8.910  49.627 111.257  1.00  0.00     0.025 C 
HETATM    4  C5  UNL     1       8.850  51.059 110.774  1.00  0.00     0.036 C 
HETATM    5  C6  UNL     1       7.505  51.581 111.132  1.00  0.00     0.152 C 
HETATM    6  C12 UNL     1       6.692  50.383 111.595  1.00  0.00     0.172 C 
ENDROOT
BRANCH   6   7
HETATM    7  O4  UNL     1       5.460  50.352 110.934  1.00  0.00    -0.352 OA
BRANCH   7   8
HETATM    8  C13 UNL     1       4.399  50.686 111.738  1.00  0.00     0.263 C 
HETATM    9  C14 UNL     1       4.742  50.873 113.189  1.00  0.00     0.095 C 
HETATM   10  C15 UNL     1       3.398  50.509 113.836  1.00  0.00     0.154 C 
HETATM   11  C16 UNL     1       3.011  49.358 112.928  1.00  0.00     0.177 C 
HETATM   12  O7  UNL     1       3.435  49.685 111.672  1.00  0.00    -0.351 OA
BRANCH  10  13
HETATM   13  O5  UNL     1       3.534  50.147 115.152  1.00  0.00    -0.393 OA
ATOM     14  H5  UNL     1       4.426  49.903 115.368  1.00  0.00     0.210 HD
ENDBRANCH  10  13
BRANCH  11  15
HETATM   15  C17 UNL     1       1.550  49.036 113.038  1.00  0.00     0.198 C 
BRANCH  15  16
HETATM   16  O6  UNL     1       1.042  48.585 111.843  1.00  0.00    -0.398 OA
ATOM     17  H6  UNL     1       1.375  49.090 111.111  1.00  0.00     0.209 HD
ENDBRANCH  15  16
ENDBRANCH  11  15
ENDBRANCH   7   8
ENDBRANCH   6   7
BRANCH   2  18
HETATM   18  C3  UNL     1       7.306  48.048 112.112  1.00  0.00     0.184 C 
HETATM   19  O1  UNL     1       6.240  47.914 112.746  1.00  0.00    -0.647 OA
HETATM   20  O2  UNL     1       8.319  47.123 112.268  1.00  0.00    -0.647 OA
ENDBRANCH   2  18
BRANCH   5  21
HETATM   21  O3  UNL     1       7.509  52.495 112.168  1.00  0.00    -0.378 OA
BRANCH  21  22
HETATM   22  C7  UNL     1       8.554  53.376 112.157  1.00  0.00     0.122 C 
HETATM   23  C8  UNL     1       7.966  54.777 112.354  1.00  0.00     0.032 C 
HETATM   24  C9  UNL     1       8.568  55.649 111.308  1.00  0.00     0.002 C 
HETATM   25  C10 UNL     1       9.630  54.882 110.592  1.00  0.00     0.002 C 
HETATM   26  C11 UNL     1       9.337  53.425 110.893  1.00  0.00     0.032 C 
ENDBRANCH  21  22
ENDBRANCH   5  21
TORSDOF 8
ENDMDL
MODEL 5
REMARK VINA RESULT: -7.948385585      2.122      5.584
REMARK  8 active torsions:
REMARK  status: ('A' for Active; 'I' for Inactive)
REMARK    1  A    between atoms: C2_2  and  C3_3 
REMARK    2  A    between atoms: C6_8  and  O3_9 
REMARK    3  A    between atoms: O3_9  and  C7_10 
REMARK    4  A    between atoms: C12_15  and  O4_16 
REMARK    5  A    between atoms: O4_16  and  C13_17 
REMARK    6  A    between atoms: C15_19  and  O5_20 
REMARK    7  A    between atoms: C16_22  and  C17_23 
REMARK    8  A    between atoms: C17_23  and  O6_24 
ROOT
HETATM    1  C1  UNL     1       7.012  47.405 111.152  1.00  0.00     0.029 C 
HETATM    2  C2  UNL     1       7.807  48.697 111.224  1.00  0.00     0.073 C 
HETATM    3  C4  UNL     1       8.257  49.146 109.876  1.00  0.00     0.025 C 
HETATM    4  C5  UNL     1       7.049  49.884 109.344  1.00  0.00     0.036 C 
HETATM    5  C6  UNL     1       6.322  50.428 110.520  1.00  0.00     0.152 C 
HETATM    6  C12 UNL     1       6.961  49.797 111.747  1.00  0.00     0.172 C 
ENDROOT
BRANCH   6   7
HETATM    7  O4  UNL     1       5.975  49.258 112.581  1.00  0.00    -0.352 OA
BRANCH   7   8
HETATM    8  C13 UNL     1       4.776  49.921 112.509  1.00  0.00     0.263 C 
HETATM    9  C14 UNL     1       4.542  50.920 113.607  1.00  0.00     0.095 C 
HETATM   10  C15 UNL     1       3.007  50.903 113.668  1.00  0.00     0.154 C 
HETATM   11  C16 UNL     1       2.787  49.418 113.454  1.00  0.00     0.177 C 
HETATM   12  O7  UNL     1       3.734  49.001 112.565  1.00  0.00    -0.351 OA
BRANCH  10  13
HETATM   13  O5  UNL     1       2.528  51.361 114.868  1.00  0.00    -0.393 OA
ATOM     14  H5  UNL     1       2.789  50.808 115.595  1.00  0.00     0.210 HD
ENDBRANCH  10  13
BRANCH  11  15
HETATM   15  C17 UNL     1       1.371  49.123 113.055  1.00  0.00     0.198 C 
BRANCH  15  16
HETATM   16  O6  UNL     1       1.287  48.756 111.733  1.00  0.00    -0.398 OA
ATOM     17  H6  UNL     1       1.489  49.483 111.156  1.00  0.00     0.209 HD
ENDBRANCH  15  16
ENDBRANCH  11  15
ENDBRANCH   7   8
ENDBRANCH   6   7
BRANCH   2  18
HETATM   18  C3  UNL     1       9.003  48.444 112.055  1.00  0.00     0.184 C 
HETATM   19  O1  UNL     1       9.636  49.399 112.548  1.00  0.00    -0.647 OA
HETATM   20  O2  UNL     1       9.423  47.150 112.285  1.00  0.00    -0.647 OA
ENDBRANCH   2  18
BRANCH   5  21
HETATM   21  O3  UNL     1       6.425  51.798 110.667  1.00  0.00    -0.378 OA
BRANCH  21  22
HETATM   22  C7  UNL     1       7.469  52.219 111.442  1.00  0.00     0.122 C 
HETATM   23  C8  UNL     1       7.014  53.494 112.161  1.00  0.00     0.032 C 
HETATM   24  C9  UNL     1       8.093  54.502 111.976  1.00  0.00     0.002 C 
HETATM   25  C10 UNL     1       9.265  53.844 111.326  1.00  0.00     0.002 C 
HETATM   26  C11 UNL     1       8.711  52.576 110.704  1.00  0.00     0.032 C 
ENDBRANCH  21  22
ENDBRANCH   5  21
TORSDOF 8
ENDMDL
