MODEL 1
REMARK VINA RESULT: -8.451631943      0.000      0.000
REMARK  7 active torsions:
REMARK  status: ('A' for Active; 'I' for Inactive)
REMARK    1  A    between atoms: C2_2  and  C4_4 
REMARK    2  A    between atoms: C4_4  and  C5_5 
REMARK    3  A    between atoms: C5_5  and  O1_7 
REMARK    4  A    between atoms: O1_7  and  C7_8 
REMARK    5  A    between atoms: C8_9  and  O2_10 
REMARK    6  A    between atoms: C10_17  and  C11_18 
REMARK       I    between atoms: C11_18  and  N2_20 
REMARK    7  A    between atoms: N2_20  and  C12_22 
ROOT
HETATM    1  C7  UNL     1       7.065  50.155 111.686  1.00  0.00     0.209 C 
HETATM    2  C8  UNL     1       8.249  49.336 111.305  1.00  0.00     0.254 C 
HETATM    3  N1  UNL     1       8.174  49.032 109.886  1.00  0.00    -0.308 N 
ATOM      4  H1  UNL     1       8.722  48.274 109.481  1.00  0.00     0.167 HD
HETATM    5  C9  UNL     1       7.314  49.821 109.083  1.00  0.00     0.363 C 
HETATM    6  O3  UNL     1       6.823  49.362 107.997  1.00  0.00    -0.238 OA
HETATM    7  O4  UNL     1       7.028  51.106 109.517  1.00  0.00    -0.286 OA
HETATM    8  C10 UNL     1       7.185  51.473 110.897  1.00  0.00     0.258 C 
ENDROOT
BRANCH   8   9
HETATM    9  C11 UNL     1       8.539  52.040 111.013  1.00  0.00     0.250 C 
HETATM   10  O5  UNL     1       9.355  51.532 111.831  1.00  0.00    -0.271 OA
HETATM   11  N2  UNL     1       8.997  53.140 110.251  1.00  0.00    -0.354 N 
ATOM     12  H2  UNL     1       8.349  53.561 109.587  1.00  0.00     0.162 HD
BRANCH  11  13
HETATM   13  C12 UNL     1      10.307  53.702 110.350  1.00  0.00     0.084 C 
HETATM   14  C13 UNL     1      10.652  54.495 109.127  1.00  0.00     0.025 C 
HETATM   15  C14 UNL     1      11.171  55.882 109.485  1.00  0.00     0.002 C 
HETATM   16  C15 UNL     1      10.125  56.620 110.269  1.00  0.00     0.000 C 
HETATM   17  C16 UNL     1       9.577  55.823 111.425  1.00  0.00     0.002 C 
HETATM   18  C17 UNL     1      10.432  54.566 111.597  1.00  0.00     0.025 C 
ENDBRANCH  11  13
ENDBRANCH   8   9
BRANCH   1  19
HETATM   19  O1  UNL     1       5.875  49.617 111.718  1.00  0.00    -0.373 OA
BRANCH  19  20
HETATM   20  C5  UNL     1       4.874  49.903 112.545  1.00  0.00     0.118 C 
HETATM   21  C6  UNL     1       4.846  51.271 113.161  1.00  0.00     0.039 C 
BRANCH  20  22
HETATM   22  C4  UNL     1       3.467  49.586 112.041  1.00  0.00     0.035 C 
BRANCH  22  23
HETATM   23  C2  UNL     1       2.542  49.388 113.250  1.00  0.00    -0.020 C 
HETATM   24  C1  UNL     1       1.280  48.694 112.785  1.00  0.00     0.009 C 
HETATM   25  C3  UNL     1       3.172  48.576 114.330  1.00  0.00     0.009 C 
ENDBRANCH  22  23
ENDBRANCH  20  22
ENDBRANCH  19  20
ENDBRANCH   1  19
BRANCH   2  26
HETATM   26  O2  UNL     1       8.258  48.075 111.931  1.00  0.00    -0.374 OA
ATOM     27  H2  UNL     1       9.127  47.815 112.215  1.00  0.00     0.212 HD
ENDBRANCH   2  26
TORSDOF 7
ENDMDL
MODEL 2
REMARK VINA RESULT: -8.368870021      2.651      6.931
REMARK  7 active torsions:
REMARK  status: ('A' for Active; 'I' for Inactive)
REMARK    1  A    between atoms: C2_2  and  C4_4 
REMARK    2  A    between atoms: C4_4  and  C5_5 
REMARK    3  A    between atoms: C5_5  and  O1_7 
REMARK    4  A    between atoms: O1_7  and  C7_8 
REMARK    5  A    between atoms: C8_9  and  O2_10 
REMARK    6  A    between atoms: C10_17  and  C11_18 
REMARK       I    between atoms: C11_18  and  N2_20 
REMARK    7  A    between atoms: N2_20  and  C12_22 
ROOT
HETATM    1  C7  UNL     1       8.666  49.861 110.560  1.00  0.00     0.209 C 
HETATM    2  C8  UNL     1       8.254  48.564 111.162  1.00  0.00     0.254 C 
HETATM    3  N1  UNL     1       6.899  48.690 111.669  1.00  0.00    -0.308 N 
ATOM      4  H1  UNL     1       6.527  48.025 112.347  1.00  0.00     0.167 HD
HETATM    5  C9  UNL     1       6.110  49.766 111.194  1.00  0.00     0.363 C 
HETATM    6  O3  UNL     1       5.148  50.234 111.890  1.00  0.00    -0.238 OA
HETATM    7  O4  UNL     1       6.419  50.289 109.948  1.00  0.00    -0.286 OA
HETATM    8  C10 UNL     1       7.720  50.100 109.368  1.00  0.00     0.258 C 
ENDROOT
BRANCH   8   9
HETATM    9  C11 UNL     1       7.615  48.898 108.523  1.00  0.00     0.250 C 
HETATM   10  O5  UNL     1       6.767  48.873 107.588  1.00  0.00    -0.271 OA
HETATM   11  N2  UNL     1       8.418  47.747 108.692  1.00  0.00    -0.354 N 
ATOM     12  H2  UNL     1       9.106  47.754 109.444  1.00  0.00     0.162 HD
BRANCH  11  13
HETATM   13  C12 UNL     1       8.329  46.574 107.881  1.00  0.00     0.084 C 
HETATM   14  C13 UNL     1       9.414  46.545 106.849  1.00  0.00     0.025 C 
HETATM   15  C14 UNL     1      10.155  45.212 106.850  1.00  0.00     0.002 C 
HETATM   16  C15 UNL     1      10.759  44.979 108.205  1.00  0.00     0.000 C 
HETATM   17  C16 UNL     1       9.779  45.169 109.334  1.00  0.00     0.002 C 
HETATM   18  C17 UNL     1       8.377  45.318 108.739  1.00  0.00     0.025 C 
ENDBRANCH  11  13
ENDBRANCH   8   9
BRANCH   1  19
HETATM   19  O1  UNL     1       8.895  50.898 111.322  1.00  0.00    -0.373 OA
BRANCH  19  20
HETATM   20  C5  UNL     1       8.686  52.180 111.038  1.00  0.00     0.118 C 
HETATM   21  C6  UNL     1       7.496  52.849 111.660  1.00  0.00     0.039 C 
BRANCH  20  22
HETATM   22  C4  UNL     1       9.886  53.113 111.195  1.00  0.00     0.035 C 
BRANCH  22  23
HETATM   23  C2  UNL     1       9.735  54.282 110.212  1.00  0.00    -0.020 C 
HETATM   24  C1  UNL     1       9.671  55.572 111.000  1.00  0.00     0.009 C 
HETATM   25  C3  UNL     1      10.860  54.363 109.238  1.00  0.00     0.009 C 
ENDBRANCH  22  23
ENDBRANCH  20  22
ENDBRANCH  19  20
ENDBRANCH   1  19
BRANCH   2  26
HETATM   26  O2  UNL     1       9.020  48.226 112.295  1.00  0.00    -0.374 OA
ATOM     27  H2  UNL     1       9.262  47.307 112.310  1.00  0.00     0.212 HD
ENDBRANCH   2  26
TORSDOF 7
ENDMDL
MODEL 3
REMARK VINA RESULT: -7.828250166      7.920      9.495
REMARK  7 active torsions:
REMARK  status: ('A' for Active; 'I' for Inactive)
REMARK    1  A    between atoms: C2_2  and  C4_4 
REMARK    2  A    between atoms: C4_4  and  C5_5 
REMARK    3  A    between atoms: C5_5  and  O1_7 
REMARK    4  A    between atoms: O1_7  and  C7_8 
REMARK    5  A    between atoms: C8_9  and  O2_10 
REMARK    6  A    between atoms: C10_17  and  C11_18 
REMARK       I    between atoms: C11_18  and  N2_20 
REMARK    7  A    between atoms: N2_20  and  C12_22 
ROOT
HETATM    1  C7  UNL     1      12.094  45.255 106.561  1.00  0.00     0.209 C 
HETATM    2  C8  UNL     1      13.215  44.326 106.250  1.00  0.00     0.254 C 
HETATM    3  N1  UNL     1      13.077  43.863 104.880  1.00  0.00    -0.308 N 
ATOM      4  H1  UNL     1      13.567  43.030 104.555  1.00  0.00     0.167 HD
HETATM    5  C9  UNL     1      12.239  44.604 104.010  1.00  0.00     0.363 C 
HETATM    6  O3  UNL     1      11.688  44.052 103.000  1.00  0.00    -0.238 OA
HETATM    7  O4  UNL     1      12.042  45.946 104.296  1.00  0.00    -0.286 OA
HETATM    8  C10 UNL     1      12.264  46.461 105.619  1.00  0.00     0.258 C 
ENDROOT
BRANCH   8   9
HETATM    9  C11 UNL     1      13.652  46.954 105.632  1.00  0.00     0.250 C 
HETATM   10  O5  UNL     1      14.233  47.136 106.738  1.00  0.00    -0.271 OA
HETATM   11  N2  UNL     1      14.394  47.243 104.464  1.00  0.00    -0.354 N 
ATOM     12  H2  UNL     1      13.937  47.100 103.563  1.00  0.00     0.162 HD
BRANCH  11  13
HETATM   13  C12 UNL     1      15.740  47.720 104.459  1.00  0.00     0.084 C 
HETATM   14  C13 UNL     1      16.462  47.297 103.216  1.00  0.00     0.025 C 
HETATM   15  C14 UNL     1      17.153  48.476 102.539  1.00  0.00     0.002 C 
HETATM   16  C15 UNL     1      16.130  49.516 102.183  1.00  0.00     0.000 C 
HETATM   17  C16 UNL     1      15.225  49.877 103.333  1.00  0.00     0.002 C 
HETATM   18  C17 UNL     1      15.778  49.234 104.606  1.00  0.00     0.025 C 
ENDBRANCH  11  13
ENDBRANCH   8   9
BRANCH   1  19
HETATM   19  O1  UNL     1      10.875  44.798 106.686  1.00  0.00    -0.373 OA
BRANCH  19  20
HETATM   20  C5  UNL     1       9.783  45.475 107.029  1.00  0.00     0.118 C 
HETATM   21  C6  UNL     1       8.858  45.913 105.931  1.00  0.00     0.039 C 
BRANCH  20  22
HETATM   22  C4  UNL     1       8.934  44.870 108.146  1.00  0.00     0.035 C 
BRANCH  22  23
HETATM   23  C2  UNL     1       9.639  45.111 109.488  1.00  0.00    -0.020 C 
HETATM   24  C1  UNL     1       8.611  45.574 110.497  1.00  0.00     0.009 C 
HETATM   25  C3  UNL     1      10.316  43.890 110.010  1.00  0.00     0.009 C 
ENDBRANCH  22  23
ENDBRANCH  20  22
ENDBRANCH  19  20
ENDBRANCH   1  19
BRANCH   2  26
HETATM   26  O2  UNL     1      13.170  43.148 107.022  1.00  0.00    -0.374 OA
ATOM     27  H2  UNL     1      13.036  43.322 107.946  1.00  0.00     0.212 HD
ENDBRANCH   2  26
TORSDOF 7
ENDMDL
MODEL 4
REMARK VINA RESULT: -7.738770726      2.352      6.730
REMARK  7 active torsions:
REMARK  status: ('A' for Active; 'I' for Inactive)
REMARK    1  A    between atoms: C2_2  and  C4_4 
REMARK    2  A    between atoms: C4_4  and  C5_5 
REMARK    3  A    between atoms: C5_5  and  O1_7 
REMARK    4  A    between atoms: O1_7  and  C7_8 
REMARK    5  A    between atoms: C8_9  and  O2_10 
REMARK    6  A    between atoms: C10_17  and  C11_18 
REMARK       I    between atoms: C11_18  and  N2_20 
REMARK    7  A    between atoms: N2_20  and  C12_22 
ROOT
HETATM    1  C7  UNL     1       7.456  49.690 110.118  1.00  0.00     0.209 C 
HETATM    2  C8  UNL     1       7.972  49.760 111.513  1.00  0.00     0.254 C 
HETATM    3  N1  UNL     1       8.880  50.888 111.623  1.00  0.00    -0.308 N 
ATOM      4  H1  UNL     1       9.542  50.958 112.395  1.00  0.00     0.167 HD
HETATM    5  C9  UNL     1       8.819  51.889 110.622  1.00  0.00     0.363 C 
HETATM    6  O3  UNL     1       9.832  52.620 110.359  1.00  0.00    -0.238 OA
HETATM    7  O4  UNL     1       7.621  52.046 109.942  1.00  0.00    -0.286 OA
HETATM    8  C10 UNL     1       6.653  50.985 109.894  1.00  0.00     0.258 C 
ENDROOT
BRANCH   8   9
HETATM    9  C11 UNL     1       5.725  51.235 111.010  1.00  0.00     0.250 C 
HETATM   10  O5  UNL     1       5.904  52.243 111.749  1.00  0.00    -0.271 OA
HETATM   11  N2  UNL     1       4.622  50.406 111.315  1.00  0.00    -0.354 N 
ATOM     12  H2  UNL     1       4.465  49.588 110.726  1.00  0.00     0.162 HD
BRANCH  11  13
HETATM   13  C12 UNL     1       3.712  50.635 112.392  1.00  0.00     0.084 C 
HETATM   14  C13 UNL     1       2.497  49.767 112.271  1.00  0.00     0.025 C 
HETATM   15  C14 UNL     1       2.204  49.025 113.570  1.00  0.00     0.002 C 
HETATM   16  C15 UNL     1       3.384  48.170 113.932  1.00  0.00     0.000 C 
HETATM   17  C16 UNL     1       4.692  48.918 113.902  1.00  0.00     0.002 C 
HETATM   18  C17 UNL     1       4.394  50.409 113.734  1.00  0.00     0.025 C 
ENDBRANCH  11  13
ENDBRANCH   8   9
BRANCH   1  19
HETATM   19  O1  UNL     1       8.246  49.333 109.140  1.00  0.00    -0.373 OA
BRANCH  19  20
HETATM   20  C5  UNL     1       8.142  48.262 108.359  1.00  0.00     0.118 C 
HETATM   21  C6  UNL     1       7.981  46.926 109.023  1.00  0.00     0.039 C 
BRANCH  20  22
HETATM   22  C4  UNL     1       7.125  48.349 107.223  1.00  0.00     0.035 C 
BRANCH  22  23
HETATM   23  C2  UNL     1       7.845  48.084 105.893  1.00  0.00    -0.020 C 
HETATM   24  C1  UNL     1       9.304  48.454 106.052  1.00  0.00     0.009 C 
HETATM   25  C3  UNL     1       7.750  46.661 105.461  1.00  0.00     0.009 C 
ENDBRANCH  22  23
ENDBRANCH  20  22
ENDBRANCH  19  20
ENDBRANCH   1  19
BRANCH   2  26
HETATM   26  O2  UNL     1       8.762  48.644 111.853  1.00  0.00    -0.374 OA
ATOM     27  H2  UNL     1       9.194  48.746 112.693  1.00  0.00     0.212 HD
ENDBRANCH   2  26
TORSDOF 7
ENDMDL
MODEL 5
REMARK VINA RESULT: -7.677271798      2.436      6.666
REMARK  7 active torsions:
REMARK  status: ('A' for Active; 'I' for Inactive)
REMARK    1  A    between atoms: C2_2  and  C4_4 
REMARK    2  A    between atoms: C4_4  and  C5_5 
REMARK    3  A    between atoms: C5_5  and  O1_7 
REMARK    4  A    between atoms: O1_7  and  C7_8 
REMARK    5  A    between atoms: C8_9  and  O2_10 
REMARK    6  A    between atoms: C10_17  and  C11_18 
REMARK       I    between atoms: C11_18  and  N2_20 
REMARK    7  A    between atoms: N2_20  and  C12_22 
ROOT
HETATM    1  C7  UNL     1       7.357  49.460 110.116  1.00  0.00     0.209 C 
HETATM    2  C8  UNL     1       7.893  49.561 111.501  1.00  0.00     0.254 C 
HETATM    3  N1  UNL     1       8.825  50.674 111.565  1.00  0.00    -0.308 N 
ATOM      4  H1  UNL     1       9.498  50.753 112.327  1.00  0.00     0.167 HD
HETATM    5  C9  UNL     1       8.771  51.645 110.535  1.00  0.00     0.363 C 
HETATM    6  O3  UNL     1       9.796  52.346 110.238  1.00  0.00    -0.238 OA
HETATM    7  O4  UNL     1       7.568  51.806 109.866  1.00  0.00    -0.286 OA
HETATM    8  C10 UNL     1       6.578  50.764 109.862  1.00  0.00     0.258 C 
ENDROOT
BRANCH   8   9
HETATM    9  C11 UNL     1       5.670  51.068 110.981  1.00  0.00     0.250 C 
HETATM   10  O5  UNL     1       5.865  52.106 111.672  1.00  0.00    -0.271 OA
HETATM   11  N2  UNL     1       4.569  50.257 111.341  1.00  0.00    -0.354 N 
ATOM     12  H2  UNL     1       4.399  49.415 110.791  1.00  0.00     0.162 HD
BRANCH  11  13
HETATM   13  C12 UNL     1       3.678  50.537 112.422  1.00  0.00     0.084 C 
HETATM   14  C13 UNL     1       2.442  49.694 112.340  1.00  0.00     0.025 C 
HETATM   15  C14 UNL     1       2.150  48.996 113.663  1.00  0.00     0.002 C 
HETATM   16  C15 UNL     1       3.315  48.125 114.036  1.00  0.00     0.000 C 
HETATM   17  C16 UNL     1       4.638  48.842 113.969  1.00  0.00     0.002 C 
HETATM   18  C17 UNL     1       4.372  50.334 113.761  1.00  0.00     0.025 C 
ENDBRANCH  11  13
ENDBRANCH   8   9
BRANCH   1  19
HETATM   19  O1  UNL     1       8.127  49.058 109.139  1.00  0.00    -0.373 OA
BRANCH  19  20
HETATM   20  C5  UNL     1       7.838  48.180 108.183  1.00  0.00     0.118 C 
HETATM   21  C6  UNL     1       7.141  48.687 106.955  1.00  0.00     0.039 C 
BRANCH  20  22
HETATM   22  C4  UNL     1       8.979  47.268 107.734  1.00  0.00     0.035 C 
BRANCH  22  23
HETATM   23  C2  UNL     1       8.687  45.839 108.211  1.00  0.00    -0.020 C 
HETATM   24  C1  UNL     1       9.725  44.910 107.621  1.00  0.00     0.009 C 
HETATM   25  C3  UNL     1       8.710  45.712 109.696  1.00  0.00     0.009 C 
ENDBRANCH  22  23
ENDBRANCH  20  22
ENDBRANCH  19  20
ENDBRANCH   1  19
BRANCH   2  26
HETATM   26  O2  UNL     1       8.664  48.440 111.866  1.00  0.00    -0.374 OA
ATOM     27  H2  UNL     1       8.420  48.091 112.715  1.00  0.00     0.212 HD
ENDBRANCH   2  26
TORSDOF 7
ENDMDL
