MODEL 1
REMARK VINA RESULT: -7.970262715      0.000      0.000
REMARK  10 active torsions:
REMARK  status: ('A' for Active; 'I' for Inactive)
REMARK    1  A    between atoms: C2_2  and  C3_3 
REMARK    2  A    between atoms: C4_4  and  C5_5 
REMARK    3  A    between atoms: C5_5  and  C6_6 
REMARK    4  A    between atoms: C6_6  and  C7_7 
REMARK    5  A    between atoms: C7_7  and  C8_8 
REMARK    6  A    between atoms: C8_8  and  O2_10 
REMARK    7  A    between atoms: O2_10  and  C9_11 
REMARK    8  A    between atoms: C10_12  and  C11_13 
REMARK    9  A    between atoms: C13_17  and  O5_18 
REMARK   10  A    between atoms: C16_23  and  O7_25 
ROOT
HETATM    1  C9  UNL     1       7.521  49.309 111.380  1.00  0.00     0.183 C 
HETATM    2  C10 UNL     1       8.329  49.413 110.105  1.00  0.00     0.122 C 
HETATM    3  C12 UNL     1       8.920  50.763 109.921  1.00  0.00     0.053 C 
HETATM    4  C13 UNL     1       8.062  51.909 110.280  1.00  0.00     0.159 C 
HETATM    5  C14 UNL     1       7.097  51.691 111.384  1.00  0.00     0.141 A 
HETATM    6  C15 UNL     1       7.159  52.448 112.587  1.00  0.00     0.213 A 
HETATM    7  O6  UNL     1       6.147  52.745 111.512  1.00  0.00    -0.369 OA
HETATM    8  C16 UNL     1       6.433  50.332 111.330  1.00  0.00     0.117 C 
HETATM    9  C17 UNL     1       5.470  50.198 112.490  1.00  0.00     0.052 C 
ENDROOT
BRANCH   1  10
HETATM   10  O2  UNL     1       7.089  47.989 111.594  1.00  0.00    -0.308 OA
BRANCH  10  11
HETATM   11  C8  UNL     1       8.026  46.996 111.814  1.00  0.00     0.290 C 
HETATM   12  O1  UNL     1       9.102  47.250 112.391  1.00  0.00    -0.260 OA
BRANCH  11  13
HETATM   13  C7  UNL     1       7.808  45.559 111.370  1.00  0.00     0.137 C 
BRANCH  13  14
HETATM   14  C6  UNL     1       8.829  45.180 110.481  1.00  0.00    -0.122 C 
BRANCH  14  15
HETATM   15  C5  UNL     1       9.746  44.840 109.682  1.00  0.00     0.055 C 
BRANCH  15  16
HETATM   16  C4  UNL     1       9.459  44.987 108.227  1.00  0.00     0.008 C 
HETATM   17  C3  UNL     1      10.363  44.865 107.304  1.00  0.00    -0.000 C 
BRANCH  17  18
HETATM   18  C2  UNL     1      11.776  44.571 107.506  1.00  0.00    -0.010 C 
HETATM   19  C1  UNL     1      12.580  44.232 106.523  1.00  0.00     0.011 C 
ENDBRANCH  17  18
ENDBRANCH  15  16
ENDBRANCH  14  15
ENDBRANCH  13  14
ENDBRANCH  11  13
ENDBRANCH  10  11
ENDBRANCH   1  10
BRANCH   2  20
HETATM   20  C11 UNL     1       7.598  48.969 108.909  1.00  0.00     0.179 C 
HETATM   21  O3  UNL     1       7.406  47.722 108.704  1.00  0.00    -0.648 OA
HETATM   22  O4  UNL     1       7.103  49.870 107.980  1.00  0.00    -0.648 OA
ENDBRANCH   2  20
BRANCH   8  23
HETATM   23  O7  UNL     1       5.676  50.277 110.167  1.00  0.00    -0.384 OA
ATOM     24  H7  UNL     1       4.767  50.521 110.296  1.00  0.00     0.210 HD
ENDBRANCH   8  23
BRANCH   4  25
HETATM   25  O5  UNL     1       8.913  52.972 110.672  1.00  0.00    -0.392 OA
ATOM     26  H5  UNL     1       9.063  52.887 111.606  1.00  0.00     0.210 HD
ENDBRANCH   4  25
TORSDOF 10
ENDMDL
MODEL 2
REMARK VINA RESULT: -7.489624219      4.396      8.213
REMARK  10 active torsions:
REMARK  status: ('A' for Active; 'I' for Inactive)
REMARK    1  A    between atoms: C2_2  and  C3_3 
REMARK    2  A    between atoms: C4_4  and  C5_5 
REMARK    3  A    between atoms: C5_5  and  C6_6 
REMARK    4  A    between atoms: C6_6  and  C7_7 
REMARK    5  A    between atoms: C7_7  and  C8_8 
REMARK    6  A    between atoms: C8_8  and  O2_10 
REMARK    7  A    between atoms: O2_10  and  C9_11 
REMARK    8  A    between atoms: C10_12  and  C11_13 
REMARK    9  A    between atoms: C13_17  and  O5_18 
REMARK   10  A    between atoms: C16_23  and  O7_25 
ROOT
HETATM    1  C9  UNL     1      11.891  46.060 105.758  1.00  0.00     0.183 C 
HETATM    2  C10 UNL     1      12.398  44.649 105.553  1.00  0.00     0.122 C 
HETATM    3  C12 UNL     1      13.768  44.459 106.093  1.00  0.00     0.053 C 
HETATM    4  C13 UNL     1      14.721  45.564 105.869  1.00  0.00     0.159 C 
HETATM    5  C14 UNL     1      14.148  46.930 105.828  1.00  0.00     0.141 A 
HETATM    6  C15 UNL     1      14.525  47.925 106.774  1.00  0.00     0.213 A 
HETATM    7  O6  UNL     1      15.075  47.911 105.372  1.00  0.00    -0.369 OA
HETATM    8  C16 UNL     1      12.835  46.999 105.079  1.00  0.00     0.117 C 
HETATM    9  C17 UNL     1      12.326  48.425 105.089  1.00  0.00     0.052 C 
ENDROOT
BRANCH   1  10
HETATM   10  O2  UNL     1      10.548  46.174 105.362  1.00  0.00    -0.308 OA
BRANCH  10  11
HETATM   11  C8  UNL     1       9.568  45.530 106.095  1.00  0.00     0.290 C 
HETATM   12  O1  UNL     1       8.477  45.226 105.573  1.00  0.00    -0.260 OA
BRANCH  11  13
HETATM   13  C7  UNL     1       9.755  45.163 107.558  1.00  0.00     0.137 C 
BRANCH  13  14
HETATM   14  C6  UNL     1       8.936  45.981 108.357  1.00  0.00    -0.122 C 
BRANCH  14  15
HETATM   15  C5  UNL     1       8.202  46.716 109.074  1.00  0.00     0.055 C 
BRANCH  15  16
HETATM   16  C4  UNL     1       7.820  48.041 108.510  1.00  0.00     0.008 C 
HETATM   17  C3  UNL     1       7.867  49.148 109.187  1.00  0.00    -0.000 C 
BRANCH  17  18
HETATM   18  C2  UNL     1       8.285  49.299 110.574  1.00  0.00    -0.010 C 
HETATM   19  C1  UNL     1       8.685  50.447 111.076  1.00  0.00     0.011 C 
ENDBRANCH  17  18
ENDBRANCH  15  16
ENDBRANCH  14  15
ENDBRANCH  13  14
ENDBRANCH  11  13
ENDBRANCH  10  11
ENDBRANCH   1  10
BRANCH   2  20
HETATM   20  C11 UNL     1      12.289  44.182 104.163  1.00  0.00     0.179 C 
HETATM   21  O3  UNL     1      13.274  43.583 103.612  1.00  0.00    -0.648 OA
HETATM   22  O4  UNL     1      11.137  44.372 103.418  1.00  0.00    -0.648 OA
ENDBRANCH   2  20
BRANCH   8  23
HETATM   23  O7  UNL     1      13.085  46.669 103.754  1.00  0.00    -0.384 OA
ATOM     24  H7  UNL     1      14.011  46.622 103.544  1.00  0.00     0.210 HD
ENDBRANCH   8  23
BRANCH   4  25
HETATM   25  O5  UNL     1      15.661  45.536 106.928  1.00  0.00    -0.392 OA
ATOM     26  H5  UNL     1      16.461  45.938 106.610  1.00  0.00     0.210 HD
ENDBRANCH   4  25
TORSDOF 10
ENDMDL
MODEL 3
REMARK VINA RESULT: -7.489604779      4.349      7.996
REMARK  10 active torsions:
REMARK  status: ('A' for Active; 'I' for Inactive)
REMARK    1  A    between atoms: C2_2  and  C3_3 
REMARK    2  A    between atoms: C4_4  and  C5_5 
REMARK    3  A    between atoms: C5_5  and  C6_6 
REMARK    4  A    between atoms: C6_6  and  C7_7 
REMARK    5  A    between atoms: C7_7  and  C8_8 
REMARK    6  A    between atoms: C8_8  and  O2_10 
REMARK    7  A    between atoms: O2_10  and  C9_11 
REMARK    8  A    between atoms: C10_12  and  C11_13 
REMARK    9  A    between atoms: C13_17  and  O5_18 
REMARK   10  A    between atoms: C16_23  and  O7_25 
ROOT
HETATM    1  C9  UNL     1      11.958  46.422 105.769  1.00  0.00     0.183 C 
HETATM    2  C10 UNL     1      12.320  44.955 105.697  1.00  0.00     0.122 C 
HETATM    3  C12 UNL     1      13.660  44.676 106.274  1.00  0.00     0.053 C 
HETATM    4  C13 UNL     1      14.722  45.656 105.970  1.00  0.00     0.159 C 
HETATM    5  C14 UNL     1      14.290  47.064 105.800  1.00  0.00     0.141 A 
HETATM    6  C15 UNL     1      14.759  48.095 106.661  1.00  0.00     0.213 A 
HETATM    7  O6  UNL     1      15.316  47.902 105.275  1.00  0.00    -0.369 OA
HETATM    8  C16 UNL     1      12.997  47.198 105.026  1.00  0.00     0.117 C 
HETATM    9  C17 UNL     1      12.636  48.663 104.903  1.00  0.00     0.052 C 
ENDROOT
BRANCH   1  10
HETATM   10  O2  UNL     1      10.636  46.635 105.343  1.00  0.00    -0.308 OA
BRANCH  10  11
HETATM   11  C8  UNL     1       9.600  46.486 106.246  1.00  0.00     0.290 C 
HETATM   12  O1  UNL     1       8.989  47.481 106.686  1.00  0.00    -0.260 OA
BRANCH  11  13
HETATM   13  C7  UNL     1       9.150  45.126 106.753  1.00  0.00     0.137 C 
BRANCH  13  14
HETATM   14  C6  UNL     1       9.529  44.976 108.099  1.00  0.00    -0.122 C 
BRANCH  14  15
HETATM   15  C5  UNL     1       9.869  44.842 109.308  1.00  0.00     0.055 C 
BRANCH  15  16
HETATM   16  C4  UNL     1       8.773  44.642 110.297  1.00  0.00     0.008 C 
HETATM   17  C3  UNL     1       8.086  45.617 110.810  1.00  0.00    -0.000 C 
BRANCH  17  18
HETATM   18  C2  UNL     1       8.251  47.036 110.529  1.00  0.00    -0.010 C 
HETATM   19  C1  UNL     1       8.242  47.954 111.470  1.00  0.00     0.011 C 
ENDBRANCH  17  18
ENDBRANCH  15  16
ENDBRANCH  14  15
ENDBRANCH  13  14
ENDBRANCH  11  13
ENDBRANCH  10  11
ENDBRANCH   1  10
BRANCH   2  20
HETATM   20  C11 UNL     1      12.174  44.379 104.351  1.00  0.00     0.179 C 
HETATM   21  O3  UNL     1      13.093  43.630 103.875  1.00  0.00    -0.648 OA
HETATM   22  O4  UNL     1      11.057  44.626 103.570  1.00  0.00    -0.648 OA
ENDBRANCH   2  20
BRANCH   8  23
HETATM   23  O7  UNL     1      13.222  46.727 103.739  1.00  0.00    -0.384 OA
ATOM     24  H7  UNL     1      13.295  45.781 103.690  1.00  0.00     0.210 HD
ENDBRANCH   8  23
BRANCH   4  25
HETATM   25  O5  UNL     1      15.646  45.628 107.043  1.00  0.00    -0.392 OA
ATOM     26  H5  UNL     1      16.069  44.777 107.033  1.00  0.00     0.210 HD
ENDBRANCH   4  25
TORSDOF 10
ENDMDL
MODEL 4
REMARK VINA RESULT: -7.370194976      4.586      8.790
REMARK  10 active torsions:
REMARK  status: ('A' for Active; 'I' for Inactive)
REMARK    1  A    between atoms: C2_2  and  C3_3 
REMARK    2  A    between atoms: C4_4  and  C5_5 
REMARK    3  A    between atoms: C5_5  and  C6_6 
REMARK    4  A    between atoms: C6_6  and  C7_7 
REMARK    5  A    between atoms: C7_7  and  C8_8 
REMARK    6  A    between atoms: C8_8  and  O2_10 
REMARK    7  A    between atoms: O2_10  and  C9_11 
REMARK    8  A    between atoms: C10_12  and  C11_13 
REMARK    9  A    between atoms: C13_17  and  O5_18 
REMARK   10  A    between atoms: C16_23  and  O7_25 
ROOT
HETATM    1  C9  UNL     1      12.663  45.322 105.674  1.00  0.00     0.183 C 
HETATM    2  C10 UNL     1      12.529  44.164 104.710  1.00  0.00     0.122 C 
HETATM    3  C12 UNL     1      13.841  43.557 104.372  1.00  0.00     0.053 C 
HETATM    4  C13 UNL     1      14.962  44.493 104.160  1.00  0.00     0.159 C 
HETATM    5  C14 UNL     1      14.932  45.748 104.949  1.00  0.00     0.141 A 
HETATM    6  C15 UNL     1      15.957  46.063 105.885  1.00  0.00     0.213 A 
HETATM    7  O6  UNL     1      15.901  46.700 104.521  1.00  0.00    -0.369 OA
HETATM    8  C16 UNL     1      13.548  46.351 105.049  1.00  0.00     0.117 C 
HETATM    9  C17 UNL     1      13.613  47.622 105.869  1.00  0.00     0.052 C 
ENDROOT
BRANCH   1  10
HETATM   10  O2  UNL     1      11.401  45.787 106.079  1.00  0.00    -0.308 OA
BRANCH  10  11
HETATM   11  C8  UNL     1      10.659  45.040 106.976  1.00  0.00     0.290 C 
HETATM   12  O1  UNL     1       9.414  45.009 106.904  1.00  0.00    -0.260 OA
BRANCH  11  13
HETATM   13  C7  UNL     1      11.302  44.227 108.087  1.00  0.00     0.137 C 
BRANCH  13  14
HETATM   14  C6  UNL     1      10.633  44.475 109.299  1.00  0.00    -0.122 C 
BRANCH  14  15
HETATM   15  C5  UNL     1      10.033  44.698 110.388  1.00  0.00     0.055 C 
BRANCH  15  16
HETATM   16  C4  UNL     1       8.562  44.925 110.310  1.00  0.00     0.008 C 
HETATM   17  C3  UNL     1       7.969  45.956 110.830  1.00  0.00    -0.000 C 
BRANCH  17  18
HETATM   18  C2  UNL     1       8.603  47.044 111.561  1.00  0.00    -0.010 C 
HETATM   19  C1  UNL     1       8.236  48.300 111.427  1.00  0.00     0.011 C 
ENDBRANCH  17  18
ENDBRANCH  15  16
ENDBRANCH  14  15
ENDBRANCH  13  14
ENDBRANCH  11  13
ENDBRANCH  10  11
ENDBRANCH   1  10
BRANCH   2  20
HETATM   20  C11 UNL     1      11.751  44.490 103.505  1.00  0.00     0.179 C 
HETATM   21  O3  UNL     1      10.487  44.654 103.587  1.00  0.00    -0.648 OA
HETATM   22  O4  UNL     1      12.352  44.626 102.264  1.00  0.00    -0.648 OA
ENDBRANCH   2  20
BRANCH   8  23
HETATM   23  O7  UNL     1      13.152  46.716 103.769  1.00  0.00    -0.384 OA
ATOM     24  H7  UNL     1      12.385  46.246 103.462  1.00  0.00     0.210 HD
ENDBRANCH   8  23
BRANCH   4  25
HETATM   25  O5  UNL     1      16.156  43.813 104.502  1.00  0.00    -0.392 OA
ATOM     26  H5  UNL     1      16.796  44.468 104.755  1.00  0.00     0.210 HD
ENDBRANCH   4  25
TORSDOF 10
ENDMDL
MODEL 5
REMARK VINA RESULT: -7.344674407      5.717      9.574
REMARK  10 active torsions:
REMARK  status: ('A' for Active; 'I' for Inactive)
REMARK    1  A    between atoms: C2_2  and  C3_3 
REMARK    2  A    between atoms: C4_4  and  C5_5 
REMARK    3  A    between atoms: C5_5  and  C6_6 
REMARK    4  A    between atoms: C6_6  and  C7_7 
REMARK    5  A    between atoms: C7_7  and  C8_8 
REMARK    6  A    between atoms: C8_8  and  O2_10 
REMARK    7  A    between atoms: O2_10  and  C9_11 
REMARK    8  A    between atoms: C10_12  and  C11_13 
REMARK    9  A    between atoms: C13_17  and  O5_18 
REMARK   10  A    between atoms: C16_23  and  O7_25 
ROOT
HETATM    1  C9  UNL     1      14.270  46.762 104.903  1.00  0.00     0.183 C 
HETATM    2  C10 UNL     1      14.308  47.671 103.694  1.00  0.00     0.122 C 
HETATM    3  C12 UNL     1      15.263  47.195 102.661  1.00  0.00     0.053 C 
HETATM    4  C13 UNL     1      16.549  46.661 103.152  1.00  0.00     0.159 C 
HETATM    5  C14 UNL     1      16.521  45.985 104.472  1.00  0.00     0.141 A 
HETATM    6  C15 UNL     1      16.865  44.612 104.612  1.00  0.00     0.213 A 
HETATM    7  O6  UNL     1      17.821  45.714 104.987  1.00  0.00    -0.369 OA
HETATM    8  C16 UNL     1      15.646  46.695 105.482  1.00  0.00     0.117 C 
HETATM    9  C17 UNL     1      15.678  45.938 106.793  1.00  0.00     0.052 C 
ENDROOT
BRANCH   1  10
HETATM   10  O2  UNL     1      13.264  47.160 105.799  1.00  0.00    -0.308 OA
BRANCH  10  11
HETATM   11  C8  UNL     1      11.968  46.720 105.603  1.00  0.00     0.290 C 
HETATM   12  O1  UNL     1      11.039  47.533 105.423  1.00  0.00    -0.260 OA
BRANCH  11  13
HETATM   13  C7  UNL     1      11.601  45.246 105.597  1.00  0.00     0.137 C 
BRANCH  13  14
HETATM   14  C6  UNL     1      10.748  44.969 106.681  1.00  0.00    -0.122 C 
BRANCH  14  15
HETATM   15  C5  UNL     1       9.982  44.719 107.654  1.00  0.00     0.055 C 
BRANCH  15  16
HETATM   16  C4  UNL     1      10.633  44.363 108.947  1.00  0.00     0.008 C 
HETATM   17  C3  UNL     1      10.046  44.481 110.099  1.00  0.00    -0.000 C 
BRANCH  17  18
HETATM   18  C2  UNL     1       8.694  44.967 110.338  1.00  0.00    -0.010 C 
HETATM   19  C1  UNL     1       8.444  46.138 110.882  1.00  0.00     0.011 C 
ENDBRANCH  17  18
ENDBRANCH  15  16
ENDBRANCH  14  15
ENDBRANCH  13  14
ENDBRANCH  11  13
ENDBRANCH  10  11
ENDBRANCH   1  10
BRANCH   2  20
HETATM   20  C11 UNL     1      14.527  49.086 104.030  1.00  0.00     0.179 C 
HETATM   21  O3  UNL     1      13.627  49.737 104.662  1.00  0.00    -0.648 OA
HETATM   22  O4  UNL     1      15.692  49.747 103.678  1.00  0.00    -0.648 OA
ENDBRANCH   2  20
BRANCH   8  23
HETATM   23  O7  UNL     1      16.205  47.943 105.723  1.00  0.00    -0.384 OA
ATOM     24  H7  UNL     1      15.585  48.574 106.072  1.00  0.00     0.210 HD
ENDBRANCH   8  23
BRANCH   4  25
HETATM   25  O5  UNL     1      17.004  45.711 102.206  1.00  0.00    -0.392 OA
ATOM     26  H5  UNL     1      17.953  45.756 102.190  1.00  0.00     0.210 HD
ENDBRANCH   4  25
TORSDOF 10
ENDMDL
