MODEL 1
REMARK VINA RESULT: -7.330865348      0.000      0.000
REMARK  4 active torsions:
REMARK  status: ('A' for Active; 'I' for Inactive)
REMARK    1  A    between atoms: O1_2  and  N1_3 
REMARK    2  A    between atoms: C2_5  and  C4_7 
REMARK    3  A    between atoms: N2_8  and  N3_10 
REMARK    4  A    between atoms: N3_10  and  C5_12 
ROOT
HETATM    1  C5  UNL     1      10.782   0.675  -0.022  1.00  0.00     0.700 A 
HETATM    2  N4  UNL     1      11.902   1.216  -0.484  1.00  0.00    -0.153 N 
ATOM      3  H4  UNL     1      12.560   1.588   0.200  1.00  0.00     0.187 HD
HETATM    4  C6  UNL     1      12.237   1.313  -1.775  1.00  0.00     0.289 A 
HETATM    5  O2  UNL     1      13.332   1.853  -2.053  1.00  0.00    -0.265 OA
HETATM    6  C7  UNL     1      11.365   0.815  -2.763  1.00  0.00     0.138 A 
HETATM    7  N5  UNL     1      11.539   0.829  -4.070  1.00  0.00    -0.335 N 
ATOM      8  H5  UNL     1      12.381   1.234  -4.480  1.00  0.00     0.167 HD
HETATM    9  C8  UNL     1      10.588   0.302  -4.844  1.00  0.00     0.145 A 
HETATM   10  S1  UNL     1      10.576   0.202  -6.499  1.00  0.00    -0.052 SA
HETATM   11  S2  UNL     1       9.424  -0.223  -3.714  1.00  0.00    -0.040 SA
HETATM   12  C9  UNL     1      10.216   0.259  -2.284  1.00  0.00     0.125 A 
HETATM   13  N6  UNL     1       9.919   0.185  -0.950  1.00  0.00    -0.181 N 
ATOM     14  H6  UNL     1       9.043  -0.243  -0.650  1.00  0.00     0.185 HD
ENDROOT
BRANCH   1  15
HETATM   15  N3  UNL     1      10.505   0.605   1.226  1.00  0.00    -0.132 N 
ATOM     16  H3  UNL     1       9.521   0.575   1.492  1.00  0.00     0.205 HD
BRANCH  15  17
HETATM   17  N2  UNL     1      11.439   0.567   2.230  1.00  0.00    -0.296 N 
HETATM   18  C4  UNL     1      12.044  -0.515   2.540  1.00  0.00     0.134 C 
ATOM     19  H2  UNL     1      11.655   1.423   2.742  1.00  0.00     0.186 HD
BRANCH  18  20
HETATM   20  C2  UNL     1      11.825  -1.792   1.888  1.00  0.00     0.045 C 
HETATM   21  N1  UNL     1      12.737  -2.299   1.169  1.00  0.00    -0.270 N 
ATOM     22  H1  UNL     1      13.603  -1.767   1.083  1.00  0.00     0.194 HD
HETATM   23  C3  UNL     1      10.505  -2.472   2.094  1.00  0.00     0.071 C 
BRANCH  21  24
HETATM   24  O1  UNL     1      12.676  -3.478   0.501  1.00  0.00    -0.285 OA
HETATM   25  C1  UNL     1      13.295  -4.664   0.927  1.00  0.00     0.237 C 
ENDBRANCH  21  24
ENDBRANCH  18  20
ENDBRANCH  15  17
ENDBRANCH   1  15
TORSDOF 4
ENDMDL
MODEL 2
REMARK VINA RESULT: -6.951434907      2.519      2.962
REMARK  4 active torsions:
REMARK  status: ('A' for Active; 'I' for Inactive)
REMARK    1  A    between atoms: O1_2  and  N1_3 
REMARK    2  A    between atoms: C2_5  and  C4_7 
REMARK    3  A    between atoms: N2_8  and  N3_10 
REMARK    4  A    between atoms: N3_10  and  C5_12 
ROOT
HETATM    1  C5  UNL     1      11.253   0.751  -0.326  1.00  0.00     0.700 A 
HETATM    2  N4  UNL     1      10.803   0.813  -1.572  1.00  0.00    -0.153 N 
ATOM      3  H4  UNL     1       9.792   0.798  -1.706  1.00  0.00     0.187 HD
HETATM    4  C6  UNL     1      11.567   0.895  -2.666  1.00  0.00     0.289 A 
HETATM    5  O2  UNL     1      10.990   0.946  -3.776  1.00  0.00    -0.265 OA
HETATM    6  C7  UNL     1      12.970   0.921  -2.538  1.00  0.00     0.138 A 
HETATM    7  N5  UNL     1      13.864   0.999  -3.505  1.00  0.00    -0.335 N 
ATOM      8  H5  UNL     1      13.573   1.048  -4.482  1.00  0.00     0.167 HD
HETATM    9  C8  UNL     1      15.156   1.012  -3.175  1.00  0.00     0.145 A 
HETATM   10  S1  UNL     1      16.457   1.103  -4.200  1.00  0.00    -0.052 SA
HETATM   11  S2  UNL     1      15.118   0.910  -1.473  1.00  0.00    -0.040 SA
HETATM   12  C9  UNL     1      13.429   0.858  -1.257  1.00  0.00     0.125 A 
HETATM   13  N6  UNL     1      12.602   0.774  -0.168  1.00  0.00    -0.181 N 
ATOM     14  H6  UNL     1      13.002   0.729   0.769  1.00  0.00     0.185 HD
ENDROOT
BRANCH   1  15
HETATM   15  N3  UNL     1      10.480   0.673   0.692  1.00  0.00    -0.132 N 
ATOM     16  H3  UNL     1      10.599   1.365   1.432  1.00  0.00     0.205 HD
BRANCH  15  17
HETATM   17  N2  UNL     1       9.503  -0.275   0.857  1.00  0.00    -0.296 N 
HETATM   18  C4  UNL     1       9.745  -1.392   1.429  1.00  0.00     0.134 C 
ATOM     19  H2  UNL     1       8.561  -0.085   0.516  1.00  0.00     0.186 HD
BRANCH  18  20
HETATM   20  C2  UNL     1      11.040  -1.779   1.957  1.00  0.00     0.045 C 
HETATM   21  N1  UNL     1      11.815  -2.501   1.261  1.00  0.00    -0.270 N 
ATOM     22  H1  UNL     1      11.479  -2.781   0.340  1.00  0.00     0.194 HD
HETATM   23  C3  UNL     1      11.414  -1.301   3.327  1.00  0.00     0.071 C 
BRANCH  21  24
HETATM   24  O1  UNL     1      13.048  -2.938   1.621  1.00  0.00    -0.285 OA
HETATM   25  C1  UNL     1      13.614  -4.152   1.199  1.00  0.00     0.237 C 
ENDBRANCH  21  24
ENDBRANCH  18  20
ENDBRANCH  15  17
ENDBRANCH   1  15
TORSDOF 4
ENDMDL
MODEL 3
REMARK VINA RESULT: -6.850188425      3.023      6.415
REMARK  4 active torsions:
REMARK  status: ('A' for Active; 'I' for Inactive)
REMARK    1  A    between atoms: O1_2  and  N1_3 
REMARK    2  A    between atoms: C2_5  and  C4_7 
REMARK    3  A    between atoms: N2_8  and  N3_10 
REMARK    4  A    between atoms: N3_10  and  C5_12 
ROOT
HETATM    1  C5  UNL     1      11.441   0.797  -3.300  1.00  0.00     0.700 A 
HETATM    2  N4  UNL     1      12.508   1.334  -2.724  1.00  0.00    -0.153 N 
ATOM      3  H4  UNL     1      13.195   1.780  -3.333  1.00  0.00     0.187 HD
HETATM    4  C6  UNL     1      12.755   1.340  -1.410  1.00  0.00     0.289 A 
HETATM    5  O2  UNL     1      13.811   1.889  -1.019  1.00  0.00    -0.265 OA
HETATM    6  C7  UNL     1      11.840   0.739  -0.524  1.00  0.00     0.138 A 
HETATM    7  N5  UNL     1      11.929   0.657   0.790  1.00  0.00    -0.335 N 
ATOM      8  H5  UNL     1      12.729   1.052   1.285  1.00  0.00     0.167 HD
HETATM    9  C8  UNL     1      10.948   0.044   1.455  1.00  0.00     0.145 A 
HETATM   10  S1  UNL     1      10.833  -0.186   3.094  1.00  0.00    -0.052 SA
HETATM   11  S2  UNL     1       9.880  -0.428   0.213  1.00  0.00    -0.040 SA
HETATM   12  C9  UNL     1      10.745   0.189  -1.119  1.00  0.00     0.125 A 
HETATM   13  N6  UNL     1      10.538   0.210  -2.472  1.00  0.00    -0.181 N 
ATOM     14  H6  UNL     1       9.699  -0.219  -2.862  1.00  0.00     0.185 HD
ENDROOT
BRANCH   1  15
HETATM   15  N3  UNL     1      11.247   0.816  -4.566  1.00  0.00    -0.132 N 
ATOM     16  H3  UNL     1      12.049   1.013  -5.165  1.00  0.00     0.205 HD
BRANCH  15  17
HETATM   17  N2  UNL     1      10.038   0.592  -5.172  1.00  0.00    -0.296 N 
HETATM   18  C4  UNL     1       9.961   0.091  -6.346  1.00  0.00     0.134 C 
ATOM     19  H2  UNL     1       9.180   0.832  -4.676  1.00  0.00     0.186 HD
BRANCH  18  20
HETATM   20  C2  UNL     1      11.106  -0.290  -7.151  1.00  0.00     0.045 C 
HETATM   21  N1  UNL     1      12.182  -0.651  -6.587  1.00  0.00    -0.270 N 
ATOM     22  H1  UNL     1      12.187  -0.655  -5.567  1.00  0.00     0.194 HD
HETATM   23  C3  UNL     1      10.967  -0.240  -8.642  1.00  0.00     0.071 C 
BRANCH  21  24
HETATM   24  O1  UNL     1      13.328  -1.033  -7.206  1.00  0.00    -0.285 OA
HETATM   25  C1  UNL     1      13.748  -2.365  -7.345  1.00  0.00     0.237 C 
ENDBRANCH  21  24
ENDBRANCH  18  20
ENDBRANCH  15  17
ENDBRANCH   1  15
TORSDOF 4
ENDMDL
MODEL 4
REMARK VINA RESULT: -6.785238301      2.488      3.328
REMARK  4 active torsions:
REMARK  status: ('A' for Active; 'I' for Inactive)
REMARK    1  A    between atoms: O1_2  and  N1_3 
REMARK    2  A    between atoms: C2_5  and  C4_7 
REMARK    3  A    between atoms: N2_8  and  N3_10 
REMARK    4  A    between atoms: N3_10  and  C5_12 
ROOT
HETATM    1  C5  UNL     1      12.055   0.681  -0.064  1.00  0.00     0.700 A 
HETATM    2  N4  UNL     1      13.034   1.185  -0.804  1.00  0.00    -0.153 N 
ATOM      3  H4  UNL     1      13.865   1.520  -0.316  1.00  0.00     0.187 HD
HETATM    4  C6  UNL     1      13.019   1.289  -2.137  1.00  0.00     0.289 A 
HETATM    5  O2  UNL     1      14.024   1.790  -2.692  1.00  0.00    -0.265 OA
HETATM    6  C7  UNL     1      11.897   0.841  -2.860  1.00  0.00     0.138 A 
HETATM    7  N5  UNL     1      11.720   0.870  -4.167  1.00  0.00    -0.335 N 
ATOM      8  H5  UNL     1      12.440   1.247  -4.784  1.00  0.00     0.167 HD
HETATM    9  C8  UNL     1      10.577   0.393  -4.663  1.00  0.00     0.145 A 
HETATM   10  S1  UNL     1      10.123   0.320  -6.257  1.00  0.00    -0.052 SA
HETATM   11  S2  UNL     1       9.732  -0.104  -3.268  1.00  0.00    -0.040 SA
HETATM   12  C9  UNL     1      10.894   0.324  -2.097  1.00  0.00     0.125 A 
HETATM   13  N6  UNL     1      10.958   0.240  -0.732  1.00  0.00    -0.181 N 
ATOM     14  H6  UNL     1      10.175  -0.157  -0.213  1.00  0.00     0.185 HD
ENDROOT
BRANCH   1  15
HETATM   15  N3  UNL     1      12.115   0.602   1.213  1.00  0.00    -0.132 N 
ATOM     16  H3  UNL     1      12.304   1.459   1.732  1.00  0.00     0.205 HD
BRANCH  15  17
HETATM   17  N2  UNL     1      11.944  -0.554   1.931  1.00  0.00    -0.296 N 
HETATM   18  C4  UNL     1      11.038  -0.657   2.826  1.00  0.00     0.134 C 
ATOM     19  H2  UNL     1      12.555  -1.350   1.746  1.00  0.00     0.186 HD
BRANCH  18  20
HETATM   20  C2  UNL     1      10.109   0.401   3.178  1.00  0.00     0.045 C 
HETATM   21  N1  UNL     1      10.265   1.043   4.259  1.00  0.00    -0.270 N 
ATOM     22  H1  UNL     1      11.057   0.776   4.843  1.00  0.00     0.194 HD
HETATM   23  C3  UNL     1       8.985   0.696   2.232  1.00  0.00     0.071 C 
BRANCH  21  24
HETATM   24  O1  UNL     1       9.481   2.052   4.717  1.00  0.00    -0.285 OA
HETATM   25  C1  UNL     1       8.951   2.118   6.015  1.00  0.00     0.237 C 
ENDBRANCH  21  24
ENDBRANCH  18  20
ENDBRANCH  15  17
ENDBRANCH   1  15
TORSDOF 4
ENDMDL
MODEL 5
REMARK VINA RESULT: -6.690548336      3.323      4.234
REMARK  4 active torsions:
REMARK  status: ('A' for Active; 'I' for Inactive)
REMARK    1  A    between atoms: O1_2  and  N1_3 
REMARK    2  A    between atoms: C2_5  and  C4_7 
REMARK    3  A    between atoms: N2_8  and  N3_10 
REMARK    4  A    between atoms: N3_10  and  C5_12 
ROOT
HETATM    1  C5  UNL     1      11.016   0.750  -0.858  1.00  0.00     0.700 A 
HETATM    2  N4  UNL     1      10.811   0.792  -2.168  1.00  0.00    -0.153 N 
ATOM      3  H4  UNL     1       9.848   0.719  -2.495  1.00  0.00     0.187 HD
HETATM    4  C6  UNL     1      11.767   0.923  -3.095  1.00  0.00     0.289 A 
HETATM    5  O2  UNL     1      11.413   0.946  -4.296  1.00  0.00    -0.265 OA
HETATM    6  C7  UNL     1      13.114   1.029  -2.699  1.00  0.00     0.138 A 
HETATM    7  N5  UNL     1      14.172   1.162  -3.476  1.00  0.00    -0.335 N 
ATOM      8  H5  UNL     1      14.073   1.199  -4.491  1.00  0.00     0.167 HD
HETATM    9  C8  UNL     1      15.374   1.248  -2.903  1.00  0.00     0.145 A 
HETATM   10  S1  UNL     1      16.840   1.418  -3.658  1.00  0.00    -0.052 SA
HETATM   11  S2  UNL     1      15.014   1.136  -1.240  1.00  0.00    -0.040 SA
HETATM   12  C9  UNL     1      13.320   0.986  -1.353  1.00  0.00     0.125 A 
HETATM   13  N6  UNL     1      12.305   0.850  -0.444  1.00  0.00    -0.181 N 
ATOM     14  H6  UNL     1      12.519   0.824   0.553  1.00  0.00     0.185 HD
ENDROOT
BRANCH   1  15
HETATM   15  N3  UNL     1      10.066   0.623  -0.008  1.00  0.00    -0.132 N 
ATOM     16  H3  UNL     1       9.645   1.475   0.362  1.00  0.00     0.205 HD
BRANCH  15  17
HETATM   17  N2  UNL     1       9.576  -0.577   0.438  1.00  0.00    -0.296 N 
HETATM   18  C4  UNL     1       9.640  -0.909   1.671  1.00  0.00     0.134 C 
ATOM     19  H2  UNL     1       9.150  -1.220  -0.229  1.00  0.00     0.186 HD
BRANCH  18  20
HETATM   20  C2  UNL     1      10.219  -0.082   2.713  1.00  0.00     0.045 C 
HETATM   21  N1  UNL     1       9.662   1.010   3.036  1.00  0.00    -0.270 N 
ATOM     22  H1  UNL     1       8.811   1.258   2.531  1.00  0.00     0.194 HD
HETATM   23  C3  UNL     1      11.475  -0.561   3.377  1.00  0.00     0.071 C 
BRANCH  21  24
HETATM   24  O1  UNL     1      10.087   1.881   3.985  1.00  0.00    -0.285 OA
HETATM   25  C1  UNL     1       9.377   2.183   5.158  1.00  0.00     0.237 C 
ENDBRANCH  21  24
ENDBRANCH  18  20
ENDBRANCH  15  17
ENDBRANCH   1  15
TORSDOF 4
ENDMDL
