MODEL 1
REMARK VINA RESULT: -6.956734485      0.000      0.000
REMARK  7 active torsions:
REMARK  status: ('A' for Active; 'I' for Inactive)
REMARK    1  A    between atoms: O1_2  and  C2_3 
REMARK    2  A    between atoms: C3_4  and  C4_5 
REMARK    3  A    between atoms: C5_6  and  O2_7 
REMARK    4  A    between atoms: C10_15  and  C11_16 
REMARK    5  A    between atoms: C11_16  and  O5_17 
REMARK    6  A    between atoms: C11_16  and  O6_19 
REMARK    7  A    between atoms: N1_22  and  O8_23 
ROOT
HETATM    1  C2  UNL     1      13.964   0.612  -1.526  1.00  0.00     0.209 A 
HETATM    2  C3  UNL     1      12.785   0.127  -1.003  1.00  0.00     0.074 A 
HETATM    3  C10 UNL     1      11.748   0.682  -1.718  1.00  0.00     0.149 A 
HETATM    4  O7  UNL     1      12.309   1.455  -2.617  1.00  0.00    -0.206 OA
HETATM    5  N1  UNL     1      13.598   1.431  -2.525  1.00  0.00    -0.096 N 
ENDROOT
BRANCH   2   6
HETATM    6  C4  UNL     1      12.653  -0.795   0.096  1.00  0.00     0.075 A 
HETATM    7  C5  UNL     1      12.151  -0.491   1.339  1.00  0.00     0.197 A 
HETATM    8  O3  UNL     1      12.184  -1.583   2.075  1.00  0.00    -0.289 OA
HETATM    9  C6  UNL     1      12.674  -2.573   1.393  1.00  0.00     0.092 A 
HETATM   10  C7  UNL     1      12.990  -2.131   0.128  1.00  0.00     0.114 A 
HETATM   11  C9  UNL     1      13.035  -4.031   1.448  1.00  0.00     0.095 C 
HETATM   12  O4  UNL     1      13.518  -3.213  -0.597  1.00  0.00    -0.347 OA
HETATM   13  C8  UNL     1      12.922  -4.369  -0.036  1.00  0.00     0.182 C 
BRANCH   7  14
HETATM   14  O2  UNL     1      11.667   0.705   1.848  1.00  0.00    -0.340 OA
ATOM     15  H2  UNL     1      10.798   1.086   1.810  1.00  0.00     0.220 HD
ENDBRANCH   7  14
ENDBRANCH   2   6
BRANCH   1  16
HETATM   16  O1  UNL     1      15.275   0.317  -1.110  1.00  0.00    -0.337 OA
HETATM   17  C1  UNL     1      16.010   1.205  -0.292  1.00  0.00     0.212 C 
ENDBRANCH   1  16
BRANCH   3  18
HETATM   18  C11 UNL     1      10.276   0.468  -1.534  1.00  0.00     0.316 C 
BRANCH  18  19
HETATM   19  O5  UNL     1       9.552   0.785  -2.670  1.00  0.00    -0.365 OA
ATOM     20  H5  UNL     1       8.966   1.519  -2.532  1.00  0.00     0.213 HD
ENDBRANCH  18  19
BRANCH  18  21
HETATM   21  O6  UNL     1       9.800   1.073  -0.388  1.00  0.00    -0.365 OA
ATOM     22  H6  UNL     1      10.236   1.899  -0.210  1.00  0.00     0.213 HD
ENDBRANCH  18  21
ENDBRANCH   3  18
BRANCH   5  23
HETATM   23  O8  UNL     1      14.493   2.118  -3.305  1.00  0.00    -0.261 OA
ATOM     24  H8  UNL     1      14.396   3.036  -3.530  1.00  0.00     0.247 HD
ENDBRANCH   5  23
TORSDOF 7
ENDMDL
MODEL 2
REMARK VINA RESULT: -6.727760962      2.082      3.994
REMARK  7 active torsions:
REMARK  status: ('A' for Active; 'I' for Inactive)
REMARK    1  A    between atoms: O1_2  and  C2_3 
REMARK    2  A    between atoms: C3_4  and  C4_5 
REMARK    3  A    between atoms: C5_6  and  O2_7 
REMARK    4  A    between atoms: C10_15  and  C11_16 
REMARK    5  A    between atoms: C11_16  and  O5_17 
REMARK    6  A    between atoms: C11_16  and  O6_19 
REMARK    7  A    between atoms: N1_22  and  O8_23 
ROOT
HETATM    1  C2  UNL     1      10.825  -0.074   0.781  1.00  0.00     0.209 A 
HETATM    2  C3  UNL     1      11.309  -0.065  -0.510  1.00  0.00     0.074 A 
HETATM    3  C10 UNL     1      10.234  -0.168  -1.363  1.00  0.00     0.149 A 
HETATM    4  O7  UNL     1       9.173  -0.234  -0.594  1.00  0.00    -0.206 OA
HETATM    5  N1  UNL     1       9.492  -0.182   0.658  1.00  0.00    -0.096 N 
ENDROOT
BRANCH   2   6
HETATM    6  C4  UNL     1      12.691   0.035  -0.903  1.00  0.00     0.075 A 
HETATM    7  C5  UNL     1      13.269   1.118  -1.522  1.00  0.00     0.197 A 
HETATM    8  O3  UNL     1      14.542   0.846  -1.724  1.00  0.00    -0.289 OA
HETATM    9  C6  UNL     1      14.827  -0.340  -1.278  1.00  0.00     0.092 A 
HETATM   10  C7  UNL     1      13.689  -0.902  -0.745  1.00  0.00     0.114 A 
HETATM   11  C9  UNL     1      15.929  -1.349  -1.115  1.00  0.00     0.095 C 
HETATM   12  O4  UNL     1      14.013  -2.183  -0.268  1.00  0.00    -0.347 OA
HETATM   13  C8  UNL     1      15.383  -2.118   0.085  1.00  0.00     0.182 C 
BRANCH   7  14
HETATM   14  O2  UNL     1      12.723   2.331  -1.914  1.00  0.00    -0.340 OA
ATOM     15  H2  UNL     1      13.141   3.128  -2.218  1.00  0.00     0.220 HD
ENDBRANCH   7  14
ENDBRANCH   2   6
BRANCH   1  16
HETATM   16  O1  UNL     1      11.562   0.011   1.975  1.00  0.00    -0.337 OA
HETATM   17  C1  UNL     1      11.653  -1.081   2.869  1.00  0.00     0.212 C 
ENDBRANCH   1  16
BRANCH   3  18
HETATM   18  C11 UNL     1      10.239  -0.201  -2.861  1.00  0.00     0.316 C 
BRANCH  18  19
HETATM   19  O5  UNL     1      10.226   1.068  -3.415  1.00  0.00    -0.365 OA
ATOM     20  H5  UNL     1      10.665   1.099  -4.258  1.00  0.00     0.213 HD
ENDBRANCH  18  19
BRANCH  18  21
HETATM   21  O6  UNL     1       9.265  -1.037  -3.369  1.00  0.00    -0.365 OA
ATOM     22  H6  UNL     1       8.392  -0.678  -3.261  1.00  0.00     0.213 HD
ENDBRANCH  18  21
ENDBRANCH   3  18
BRANCH   5  23
HETATM   23  O8  UNL     1       8.636  -0.224   1.729  1.00  0.00    -0.261 OA
ATOM     24  H8  UNL     1       7.766  -0.604   1.689  1.00  0.00     0.247 HD
ENDBRANCH   5  23
TORSDOF 7
ENDMDL
MODEL 3
REMARK VINA RESULT: -6.708657927      1.910      3.699
REMARK  7 active torsions:
REMARK  status: ('A' for Active; 'I' for Inactive)
REMARK    1  A    between atoms: O1_2  and  C2_3 
REMARK    2  A    between atoms: C3_4  and  C4_5 
REMARK    3  A    between atoms: C5_6  and  O2_7 
REMARK    4  A    between atoms: C10_15  and  C11_16 
REMARK    5  A    between atoms: C11_16  and  O5_17 
REMARK    6  A    between atoms: C11_16  and  O6_19 
REMARK    7  A    between atoms: N1_22  and  O8_23 
ROOT
HETATM    1  C2  UNL     1      10.650  -0.708   1.340  1.00  0.00     0.209 A 
HETATM    2  C3  UNL     1      11.530  -0.623   0.282  1.00  0.00     0.074 A 
HETATM    3  C10 UNL     1      10.966   0.199  -0.668  1.00  0.00     0.149 A 
HETATM    4  O7  UNL     1       9.809   0.571  -0.176  1.00  0.00    -0.206 OA
HETATM    5  N1  UNL     1       9.603   0.055   0.992  1.00  0.00    -0.096 N 
ENDROOT
BRANCH   2   6
HETATM    6  C4  UNL     1      12.811  -1.273   0.181  1.00  0.00     0.075 A 
HETATM    7  C5  UNL     1      14.025  -0.636   0.086  1.00  0.00     0.197 A 
HETATM    8  O3  UNL     1      14.968  -1.554   0.014  1.00  0.00    -0.289 OA
HETATM    9  C6  UNL     1      14.445  -2.741   0.055  1.00  0.00     0.092 A 
HETATM   10  C7  UNL     1      13.078  -2.625   0.162  1.00  0.00     0.114 A 
HETATM   11  C9  UNL     1      14.757  -4.212   0.032  1.00  0.00     0.095 C 
HETATM   12  O4  UNL     1      12.528  -3.917   0.206  1.00  0.00    -0.347 OA
HETATM   13  C8  UNL     1      13.533  -4.735   0.778  1.00  0.00     0.182 C 
BRANCH   7  14
HETATM   14  O2  UNL     1      14.335   0.716   0.060  1.00  0.00    -0.340 OA
ATOM     15  H2  UNL     1      15.057   1.192   0.454  1.00  0.00     0.220 HD
ENDBRANCH   7  14
ENDBRANCH   2   6
BRANCH   1  16
HETATM   16  O1  UNL     1      10.808  -1.437   2.532  1.00  0.00    -0.337 OA
HETATM   17  C1  UNL     1      11.306  -0.834   3.709  1.00  0.00     0.212 C 
ENDBRANCH   1  16
BRANCH   3  18
HETATM   18  C11 UNL     1      11.531   0.604  -1.996  1.00  0.00     0.316 C 
BRANCH  18  19
HETATM   19  O5  UNL     1      12.442   1.640  -1.887  1.00  0.00    -0.365 OA
ATOM     20  H5  UNL     1      12.779   1.916  -2.731  1.00  0.00     0.213 HD
ENDBRANCH  18  19
BRANCH  18  21
HETATM   21  O6  UNL     1      10.545   0.831  -2.935  1.00  0.00    -0.365 OA
ATOM     22  H6  UNL     1      10.529   0.160  -3.608  1.00  0.00     0.213 HD
ENDBRANCH  18  21
ENDBRANCH   3  18
BRANCH   5  23
HETATM   23  O8  UNL     1       8.500   0.234   1.788  1.00  0.00    -0.261 OA
ATOM     24  H8  UNL     1       7.760   0.778   1.544  1.00  0.00     0.247 HD
ENDBRANCH   5  23
TORSDOF 7
ENDMDL
MODEL 4
REMARK VINA RESULT: -6.703667048      1.872      4.300
REMARK  7 active torsions:
REMARK  status: ('A' for Active; 'I' for Inactive)
REMARK    1  A    between atoms: O1_2  and  C2_3 
REMARK    2  A    between atoms: C3_4  and  C4_5 
REMARK    3  A    between atoms: C5_6  and  O2_7 
REMARK    4  A    between atoms: C10_15  and  C11_16 
REMARK    5  A    between atoms: C11_16  and  O5_17 
REMARK    6  A    between atoms: C11_16  and  O6_19 
REMARK    7  A    between atoms: N1_22  and  O8_23 
ROOT
HETATM    1  C2  UNL     1      11.039  -0.745   1.171  1.00  0.00     0.209 A 
HETATM    2  C3  UNL     1      11.964  -0.442   0.196  1.00  0.00     0.074 A 
HETATM    3  C10 UNL     1      11.350   0.371  -0.730  1.00  0.00     0.149 A 
HETATM    4  O7  UNL     1      10.120   0.529  -0.304  1.00  0.00    -0.206 OA
HETATM    5  N1  UNL     1       9.915  -0.111   0.801  1.00  0.00    -0.096 N 
ENDROOT
BRANCH   2   6
HETATM    6  C4  UNL     1      13.332  -0.892   0.146  1.00  0.00     0.075 A 
HETATM    7  C5  UNL     1      13.745  -2.202   0.204  1.00  0.00     0.197 A 
HETATM    8  O3  UNL     1      15.060  -2.223   0.130  1.00  0.00    -0.289 OA
HETATM    9  C6  UNL     1      15.526  -1.016   0.028  1.00  0.00     0.092 A 
HETATM   10  C7  UNL     1      14.473  -0.129   0.033  1.00  0.00     0.114 A 
HETATM   11  C9  UNL     1      16.783  -0.200  -0.095  1.00  0.00     0.095 C 
HETATM   12  O4  UNL     1      14.993   1.172  -0.078  1.00  0.00    -0.347 OA
HETATM   13  C8  UNL     1      16.210   1.032  -0.790  1.00  0.00     0.182 C 
BRANCH   7  14
HETATM   14  O2  UNL     1      13.013  -3.374   0.320  1.00  0.00    -0.340 OA
ATOM     15  H2  UNL     1      12.793  -3.892   1.086  1.00  0.00     0.220 HD
ENDBRANCH   7  14
ENDBRANCH   2   6
BRANCH   1  16
HETATM   16  O1  UNL     1      11.223  -1.545   2.312  1.00  0.00    -0.337 OA
HETATM   17  C1  UNL     1      11.380  -0.979   3.598  1.00  0.00     0.212 C 
ENDBRANCH   1  16
BRANCH   3  18
HETATM   18  C11 UNL     1      11.936   0.967  -1.974  1.00  0.00     0.316 C 
BRANCH  18  19
HETATM   19  O5  UNL     1      12.655   2.121  -1.716  1.00  0.00    -0.365 OA
ATOM     20  H5  UNL     1      13.421   2.202  -2.274  1.00  0.00     0.213 HD
ENDBRANCH  18  19
BRANCH  18  21
HETATM   21  O6  UNL     1      10.997   1.113  -2.975  1.00  0.00    -0.365 OA
ATOM     22  H6  UNL     1      11.352   0.913  -3.833  1.00  0.00     0.213 HD
ENDBRANCH  18  21
ENDBRANCH   3  18
BRANCH   5  23
HETATM   23  O8  UNL     1       8.747  -0.162   1.519  1.00  0.00    -0.261 OA
ATOM     24  H8  UNL     1       8.716  -0.297   2.459  1.00  0.00     0.247 HD
ENDBRANCH   5  23
TORSDOF 7
ENDMDL
MODEL 5
REMARK VINA RESULT: -6.623831375      1.816      3.676
REMARK  7 active torsions:
REMARK  status: ('A' for Active; 'I' for Inactive)
REMARK    1  A    between atoms: O1_2  and  C2_3 
REMARK    2  A    between atoms: C3_4  and  C4_5 
REMARK    3  A    between atoms: C5_6  and  O2_7 
REMARK    4  A    between atoms: C10_15  and  C11_16 
REMARK    5  A    between atoms: C11_16  and  O5_17 
REMARK    6  A    between atoms: C11_16  and  O6_19 
REMARK    7  A    between atoms: N1_22  and  O8_23 
ROOT
HETATM    1  C2  UNL     1      11.030   0.012   1.012  1.00  0.00     0.209 A 
HETATM    2  C3  UNL     1      11.668  -0.003  -0.209  1.00  0.00     0.074 A 
HETATM    3  C10 UNL     1      10.766   0.419  -1.160  1.00  0.00     0.149 A 
HETATM    4  O7  UNL     1       9.653   0.666  -0.511  1.00  0.00    -0.206 OA
HETATM    5  N1  UNL     1       9.782   0.436   0.755  1.00  0.00    -0.096 N 
ENDROOT
BRANCH   2   6
HETATM    6  C4  UNL     1      13.034  -0.388  -0.455  1.00  0.00     0.075 A 
HETATM    7  C5  UNL     1      14.054   0.464  -0.806  1.00  0.00     0.197 A 
HETATM    8  O3  UNL     1      15.155  -0.246  -0.944  1.00  0.00    -0.289 OA
HETATM    9  C6  UNL     1      14.917  -1.499  -0.705  1.00  0.00     0.092 A 
HETATM   10  C7  UNL     1      13.585  -1.649  -0.389  1.00  0.00     0.114 A 
HETATM   11  C9  UNL     1      15.537  -2.867  -0.639  1.00  0.00     0.095 C 
HETATM   12  O4  UNL     1      13.344  -3.010  -0.134  1.00  0.00    -0.347 OA
HETATM   13  C8  UNL     1      14.573  -3.527   0.342  1.00  0.00     0.182 C 
BRANCH   7  14
HETATM   14  O2  UNL     1      14.053   1.836  -1.010  1.00  0.00    -0.340 OA
ATOM     15  H2  UNL     1      14.617   2.514  -0.656  1.00  0.00     0.220 HD
ENDBRANCH   7  14
ENDBRANCH   2   6
BRANCH   1  16
HETATM   16  O1  UNL     1      11.563  -0.341   2.265  1.00  0.00    -0.337 OA
HETATM   17  C1  UNL     1      11.364  -1.625   2.820  1.00  0.00     0.212 C 
ENDBRANCH   1  16
BRANCH   3  18
HETATM   18  C11 UNL     1      10.979   0.574  -2.635  1.00  0.00     0.316 C 
BRANCH  18  19
HETATM   19  O5  UNL     1      11.891   1.573  -2.933  1.00  0.00    -0.365 OA
ATOM     20  H5  UNL     1      12.710   1.226  -3.268  1.00  0.00     0.213 HD
ENDBRANCH  18  19
BRANCH  18  21
HETATM   21  O6  UNL     1       9.790   0.688  -3.326  1.00  0.00    -0.365 OA
ATOM     22  H6  UNL     1       9.567  -0.110  -3.792  1.00  0.00     0.213 HD
ENDBRANCH  18  21
ENDBRANCH   3  18
BRANCH   5  23
HETATM   23  O8  UNL     1       8.821   0.588   1.722  1.00  0.00    -0.261 OA
ATOM     24  H8  UNL     1       7.995   0.120   1.718  1.00  0.00     0.247 HD
ENDBRANCH   5  23
TORSDOF 7
ENDMDL
