MODEL 1
REMARK VINA RESULT: -7.779576892      0.000      0.000
REMARK  9 active torsions:
REMARK  status: ('A' for Active; 'I' for Inactive)
REMARK    1  A    between atoms: C3_5  and  N2_6 
REMARK    2  A    between atoms: C5_13  and  C6_14 
REMARK    3  A    between atoms: C6_14  and  N4_15 
REMARK    4  A    between atoms: N4_15  and  C7_17 
REMARK    5  A    between atoms: C8_20  and  N6_21 
REMARK    6  A    between atoms: N6_21  and  O2_23 
REMARK    7  A    between atoms: C10_27  and  N8_28 
REMARK    8  A    between atoms: N8_28  and  C12_31 
REMARK    9  A    between atoms: C12_31  and  O3_32 
ROOT
HETATM    1  N8  UNL     1      21.553 -30.807  18.783  1.00  0.00    -0.093 N 
HETATM    2  C11 UNL     1      22.273 -29.971  19.643  1.00  0.00     0.201 C 
HETATM    3  N9  UNL     1      22.892 -29.283  20.334  1.00  0.00    -0.171 NA
ENDROOT
BRANCH   1   4
HETATM    4  C10 UNL     1      20.359 -30.300  18.219  1.00  0.00     0.724 A 
HETATM    5  N7  UNL     1      20.073 -30.347  16.909  1.00  0.00    -0.018 N 
HETATM    6  C8  UNL     1      18.873 -29.888  16.412  1.00  0.00     0.732 A 
ATOM      7  H7  UNL     1      20.763 -30.733  16.264  1.00  0.00     0.203 HD
HETATM    8  N5  UNL     1      18.016 -29.385  17.288  1.00  0.00    -0.019 N 
HETATM    9  C7  UNL     1      18.228 -29.290  18.625  1.00  0.00     0.711 A 
ATOM     10  H5  UNL     1      17.125 -29.042  16.929  1.00  0.00     0.203 HD
HETATM   11  N10 UNL     1      19.443 -29.778  19.042  1.00  0.00    -0.020 N 
ATOM     12  H10 UNL     1      19.659 -29.739  20.038  1.00  0.00     0.203 HD
BRANCH   6  13
HETATM   13  N6  UNL     1      18.554 -29.865  15.029  1.00  0.00    -0.094 N 
HETATM   14  C9  UNL     1      19.370 -29.055  14.171  1.00  0.00     0.205 C 
BRANCH  13  15
HETATM   15  O2  UNL     1      17.537 -30.569  14.544  1.00  0.00    -0.274 OA
ATOM     16  H2  UNL     1      17.680 -31.364  14.043  1.00  0.00     0.245 HD
ENDBRANCH  13  15
ENDBRANCH   6  13
BRANCH   9  17
HETATM   17  N4  UNL     1      17.405 -28.882  19.433  1.00  0.00    -0.200 N 
ATOM     18  H4  UNL     1      17.895 -28.426  20.203  1.00  0.00     0.183 HD
BRANCH  17  19
HETATM   19  C6  UNL     1      16.032 -28.821  19.671  1.00  0.00     0.125 C 
BRANCH  19  20
HETATM   20  C5  UNL     1      15.659 -27.360  19.739  1.00  0.00     0.071 A 
HETATM   21  C2  UNL     1      15.124 -27.029  20.969  1.00  0.00     0.040 A 
HETATM   22  C1  UNL     1      15.127 -28.042  22.057  1.00  0.00     0.070 C 
HETATM   23  N1  UNL     1      14.680 -25.789  21.181  1.00  0.00    -0.195 N 
HETATM   24  C3  UNL     1      14.757 -24.855  20.181  1.00  0.00     0.679 A 
ATOM     25  H1  UNL     1      14.284 -25.536  22.086  1.00  0.00     0.184 HD
HETATM   26  N3  UNL     1      15.271 -25.195  18.996  1.00  0.00    -0.156 N 
HETATM   27  C4  UNL     1      15.750 -26.461  18.711  1.00  0.00     0.273 A 
ATOM     28  H3  UNL     1      15.312 -24.486  18.265  1.00  0.00     0.187 HD
HETATM   29  O1  UNL     1      16.221 -26.773  17.627  1.00  0.00    -0.267 OA
BRANCH  24  30
HETATM   30  N2  UNL     1      14.305 -23.629  20.410  1.00  0.00    -0.234 N 
ATOM     31  H22 UNL     1      13.660 -23.174  19.765  1.00  0.00     0.174 HD
ATOM     32  H21 UNL     1      14.604 -23.142  21.254  1.00  0.00     0.174 HD
ENDBRANCH  24  30
ENDBRANCH  19  20
ENDBRANCH  17  19
ENDBRANCH   9  17
ENDBRANCH   1   4
BRANCH   1  33
HETATM   33  C12 UNL     1      22.091 -32.124  18.481  1.00  0.00     0.325 C 
BRANCH  33  34
HETATM   34  O3  UNL     1      23.433 -32.241  18.767  1.00  0.00    -0.380 OA
ATOM     35  H3  UNL     1      23.628 -32.957  19.359  1.00  0.00     0.211 HD
ENDBRANCH  33  34
ENDBRANCH   1  33
TORSDOF 9
ENDMDL
MODEL 2
REMARK VINA RESULT: -7.543254849      6.282      8.182
REMARK  9 active torsions:
REMARK  status: ('A' for Active; 'I' for Inactive)
REMARK    1  A    between atoms: C3_5  and  N2_6 
REMARK    2  A    between atoms: C5_13  and  C6_14 
REMARK    3  A    between atoms: C6_14  and  N4_15 
REMARK    4  A    between atoms: N4_15  and  C7_17 
REMARK    5  A    between atoms: C8_20  and  N6_21 
REMARK    6  A    between atoms: N6_21  and  O2_23 
REMARK    7  A    between atoms: C10_27  and  N8_28 
REMARK    8  A    between atoms: N8_28  and  C12_31 
REMARK    9  A    between atoms: C12_31  and  O3_32 
ROOT
HETATM    1  N8  UNL     1      14.840 -26.648  23.875  1.00  0.00    -0.093 N 
HETATM    2  C11 UNL     1      14.724 -25.821  24.997  1.00  0.00     0.201 C 
HETATM    3  N9  UNL     1      14.661 -25.139  25.927  1.00  0.00    -0.171 NA
ENDROOT
BRANCH   1   4
HETATM    4  C10 UNL     1      14.310 -26.174  22.651  1.00  0.00     0.724 A 
HETATM    5  N7  UNL     1      14.972 -25.357  21.817  1.00  0.00    -0.018 N 
HETATM    6  C8  UNL     1      14.436 -24.965  20.610  1.00  0.00     0.732 A 
ATOM      7  H7  UNL     1      15.897 -25.019  22.085  1.00  0.00     0.203 HD
HETATM    8  N5  UNL     1      13.228 -25.422  20.315  1.00  0.00    -0.019 N 
HETATM    9  C7  UNL     1      12.487 -26.240  21.103  1.00  0.00     0.711 A 
ATOM     10  H5  UNL     1      12.823 -25.135  19.424  1.00  0.00     0.203 HD
HETATM   11  N10 UNL     1      13.094 -26.594  22.284  1.00  0.00    -0.020 N 
ATOM     12  H10 UNL     1      12.589 -27.213  22.917  1.00  0.00     0.203 HD
BRANCH   6  13
HETATM   13  N6  UNL     1      15.077 -24.057  19.727  1.00  0.00    -0.094 N 
HETATM   14  C9  UNL     1      16.454 -24.300  19.406  1.00  0.00     0.205 C 
BRANCH  13  15
HETATM   15  O2  UNL     1      14.426 -23.018  19.214  1.00  0.00    -0.274 OA
ATOM     16  H2  UNL     1      14.469 -22.160  19.619  1.00  0.00     0.245 HD
ENDBRANCH  13  15
ENDBRANCH   6  13
BRANCH   9  17
HETATM   17  N4  UNL     1      11.400 -26.707  20.793  1.00  0.00    -0.200 N 
ATOM     18  H4  UNL     1      10.664 -26.092  21.142  1.00  0.00     0.183 HD
BRANCH  17  19
HETATM   19  C6  UNL     1      10.812 -27.784  20.130  1.00  0.00     0.125 C 
BRANCH  19  20
HETATM   20  C5  UNL     1       9.707 -28.303  21.018  1.00  0.00     0.071 A 
HETATM   21  C2  UNL     1       9.904 -29.628  21.352  1.00  0.00     0.040 A 
HETATM   22  C1  UNL     1      11.173 -30.295  20.958  1.00  0.00     0.070 C 
HETATM   23  N1  UNL     1       8.987 -30.266  22.082  1.00  0.00    -0.195 N 
HETATM   24  C3  UNL     1       7.860 -29.603  22.494  1.00  0.00     0.679 A 
ATOM     25  H1  UNL     1       9.125 -31.245  22.334  1.00  0.00     0.184 HD
HETATM   26  N3  UNL     1       7.684 -28.324  22.155  1.00  0.00    -0.156 N 
HETATM   27  C4  UNL     1       8.595 -27.605  21.402  1.00  0.00     0.273 A 
ATOM     28  H3  UNL     1       6.834 -27.853  22.466  1.00  0.00     0.187 HD
HETATM   29  O1  UNL     1       8.434 -26.433  21.092  1.00  0.00    -0.267 OA
BRANCH  24  30
HETATM   30  N2  UNL     1       6.958 -30.256  23.213  1.00  0.00    -0.234 N 
ATOM     31  H22 UNL     1       7.234 -30.963  23.895  1.00  0.00     0.174 HD
ATOM     32  H21 UNL     1       5.970 -30.036  23.085  1.00  0.00     0.174 HD
ENDBRANCH  24  30
ENDBRANCH  19  20
ENDBRANCH  17  19
ENDBRANCH   9  17
ENDBRANCH   1   4
BRANCH   1  33
HETATM   33  C12 UNL     1      15.533 -27.919  24.015  1.00  0.00     0.325 C 
BRANCH  33  34
HETATM   34  O3  UNL     1      16.416 -28.171  22.988  1.00  0.00    -0.380 OA
ATOM     35  H3  UNL     1      16.029 -28.665  22.275  1.00  0.00     0.211 HD
ENDBRANCH  33  34
ENDBRANCH   1  33
TORSDOF 9
ENDMDL
MODEL 3
REMARK VINA RESULT: -7.523348120      2.052      4.237
REMARK  9 active torsions:
REMARK  status: ('A' for Active; 'I' for Inactive)
REMARK    1  A    between atoms: C3_5  and  N2_6 
REMARK    2  A    between atoms: C5_13  and  C6_14 
REMARK    3  A    between atoms: C6_14  and  N4_15 
REMARK    4  A    between atoms: N4_15  and  C7_17 
REMARK    5  A    between atoms: C8_20  and  N6_21 
REMARK    6  A    between atoms: N6_21  and  O2_23 
REMARK    7  A    between atoms: C10_27  and  N8_28 
REMARK    8  A    between atoms: N8_28  and  C12_31 
REMARK    9  A    between atoms: C12_31  and  O3_32 
ROOT
HETATM    1  N8  UNL     1      21.150 -30.838  14.695  1.00  0.00    -0.093 N 
HETATM    2  C11 UNL     1      20.282 -30.131  13.857  1.00  0.00     0.201 C 
HETATM    3  N9  UNL     1      19.557 -29.575  13.150  1.00  0.00    -0.171 NA
ENDROOT
BRANCH   1   4
HETATM    4  C10 UNL     1      20.951 -30.729  16.092  1.00  0.00     0.724 A 
HETATM    5  N7  UNL     1      21.834 -31.156  17.007  1.00  0.00    -0.018 N 
HETATM    6  C8  UNL     1      21.621 -30.981  18.357  1.00  0.00     0.732 A 
ATOM      7  H7  UNL     1      22.686 -31.624  16.695  1.00  0.00     0.203 HD
HETATM    8  N5  UNL     1      20.494 -30.380  18.711  1.00  0.00    -0.019 N 
HETATM    9  C7  UNL     1      19.545 -29.928  17.854  1.00  0.00     0.711 A 
ATOM     10  H5  UNL     1      20.327 -30.247  19.709  1.00  0.00     0.203 HD
HETATM   11  N10 UNL     1      19.836 -30.131  16.527  1.00  0.00    -0.020 N 
ATOM     12  H10 UNL     1      19.163 -29.808  15.833  1.00  0.00     0.203 HD
BRANCH   6  13
HETATM   13  N6  UNL     1      22.499 -31.469  19.360  1.00  0.00    -0.094 N 
HETATM   14  C9  UNL     1      22.003 -31.533  20.705  1.00  0.00     0.205 C 
BRANCH  13  15
HETATM   15  O2  UNL     1      23.736 -31.853  19.065  1.00  0.00    -0.274 OA
ATOM     16  H2  UNL     1      24.146 -32.584  19.513  1.00  0.00     0.245 HD
ENDBRANCH  13  15
ENDBRANCH   6  13
BRANCH   9  17
HETATM   17  N4  UNL     1      18.539 -29.318  18.189  1.00  0.00    -0.200 N 
ATOM     18  H4  UNL     1      18.779 -28.671  18.940  1.00  0.00     0.183 HD
BRANCH  17  19
HETATM   19  C6  UNL     1      17.178 -29.196  17.905  1.00  0.00     0.125 C 
BRANCH  19  20
HETATM   20  C5  UNL     1      16.702 -27.920  18.554  1.00  0.00     0.071 A 
HETATM   21  C2  UNL     1      16.347 -26.973  17.614  1.00  0.00     0.040 A 
HETATM   22  C1  UNL     1      16.325 -27.352  16.176  1.00  0.00     0.070 C 
HETATM   23  N1  UNL     1      15.963 -25.760  18.014  1.00  0.00    -0.195 N 
HETATM   24  C3  UNL     1      15.923 -25.463  19.351  1.00  0.00     0.679 A 
ATOM     25  H1  UNL     1      15.699 -25.054  17.326  1.00  0.00     0.184 HD
HETATM   26  N3  UNL     1      16.277 -26.389  20.246  1.00  0.00    -0.156 N 
HETATM   27  C4  UNL     1      16.683 -27.665  19.898  1.00  0.00     0.273 A 
ATOM     28  H3  UNL     1      16.246 -26.143  21.235  1.00  0.00     0.187 HD
HETATM   29  O1  UNL     1      17.006 -28.513  20.717  1.00  0.00    -0.267 OA
BRANCH  24  30
HETATM   30  N2  UNL     1      15.544 -24.249  19.728  1.00  0.00    -0.234 N 
ATOM     31  H22 UNL     1      14.750 -24.112  20.353  1.00  0.00     0.174 HD
ATOM     32  H21 UNL     1      16.068 -23.441  19.392  1.00  0.00     0.174 HD
ENDBRANCH  24  30
ENDBRANCH  19  20
ENDBRANCH  17  19
ENDBRANCH   9  17
ENDBRANCH   1   4
BRANCH   1  33
HETATM   33  C12 UNL     1      22.173 -31.677  14.090  1.00  0.00     0.325 C 
BRANCH  33  34
HETATM   34  O3  UNL     1      23.442 -31.152  14.204  1.00  0.00    -0.380 OA
ATOM     35  H3  UNL     1      23.975 -31.293  13.431  1.00  0.00     0.211 HD
ENDBRANCH  33  34
ENDBRANCH   1  33
TORSDOF 9
ENDMDL
MODEL 4
REMARK VINA RESULT: -7.523255532      1.185      1.760
REMARK  9 active torsions:
REMARK  status: ('A' for Active; 'I' for Inactive)
REMARK    1  A    between atoms: C3_5  and  N2_6 
REMARK    2  A    between atoms: C5_13  and  C6_14 
REMARK    3  A    between atoms: C6_14  and  N4_15 
REMARK    4  A    between atoms: N4_15  and  C7_17 
REMARK    5  A    between atoms: C8_20  and  N6_21 
REMARK    6  A    between atoms: N6_21  and  O2_23 
REMARK    7  A    between atoms: C10_27  and  N8_28 
REMARK    8  A    between atoms: N8_28  and  C12_31 
REMARK    9  A    between atoms: C12_31  and  O3_32 
ROOT
HETATM    1  N8  UNL     1      21.790 -30.761  18.610  1.00  0.00    -0.093 N 
HETATM    2  C11 UNL     1      22.228 -30.070  19.743  1.00  0.00     0.201 C 
HETATM    3  N9  UNL     1      22.618 -29.495  20.666  1.00  0.00    -0.171 NA
ENDROOT
BRANCH   1   4
HETATM    4  C10 UNL     1      20.645 -30.269  17.940  1.00  0.00     0.724 A 
HETATM    5  N7  UNL     1      20.550 -30.159  16.606  1.00  0.00    -0.018 N 
HETATM    6  C8  UNL     1      19.394 -29.724  15.995  1.00  0.00     0.732 A 
ATOM      7  H7  UNL     1      21.354 -30.405  16.029  1.00  0.00     0.203 HD
HETATM    8  N5  UNL     1      18.382 -29.405  16.789  1.00  0.00    -0.019 N 
HETATM    9  C7  UNL     1      18.396 -29.476  18.143  1.00  0.00     0.711 A 
ATOM     10  H5  UNL     1      17.522 -29.081  16.345  1.00  0.00     0.203 HD
HETATM   11  N10 UNL     1      19.580 -29.928  18.675  1.00  0.00    -0.020 N 
ATOM     12  H10 UNL     1      19.651 -30.009  19.689  1.00  0.00     0.203 HD
BRANCH   6  13
HETATM   13  N6  UNL     1      19.270 -29.537  14.593  1.00  0.00    -0.094 N 
HETATM   14  C9  UNL     1      20.456 -29.671  13.797  1.00  0.00     0.205 C 
BRANCH  13  15
HETATM   15  O2  UNL     1      18.099 -29.249  14.037  1.00  0.00    -0.274 OA
ATOM     16  H2  UNL     1      17.520 -28.597  14.414  1.00  0.00     0.245 HD
ENDBRANCH  13  15
ENDBRANCH   6  13
BRANCH   9  17
HETATM   17  N4  UNL     1      17.436 -29.241  18.863  1.00  0.00    -0.200 N 
ATOM     18  H4  UNL     1      17.771 -29.019  19.801  1.00  0.00     0.183 HD
BRANCH  17  19
HETATM   19  C6  UNL     1      16.043 -29.167  18.852  1.00  0.00     0.125 C 
BRANCH  19  20
HETATM   20  C5  UNL     1      15.661 -27.882  19.544  1.00  0.00     0.071 A 
HETATM   21  C2  UNL     1      15.376 -26.881  18.636  1.00  0.00     0.040 A 
HETATM   22  C1  UNL     1      15.327 -27.209  17.186  1.00  0.00     0.070 C 
HETATM   23  N1  UNL     1      15.081 -25.657  19.077  1.00  0.00    -0.195 N 
HETATM   24  C3  UNL     1      15.063 -25.402  20.423  1.00  0.00     0.679 A 
ATOM     25  H1  UNL     1      14.870 -24.912  18.413  1.00  0.00     0.184 HD
HETATM   26  N3  UNL     1      15.348 -26.380  21.286  1.00  0.00    -0.156 N 
HETATM   27  C4  UNL     1      15.659 -27.670  20.896  1.00  0.00     0.273 A 
ATOM     28  H3  UNL     1      15.335 -26.165  22.283  1.00  0.00     0.187 HD
HETATM   29  O1  UNL     1      15.919 -28.566  21.686  1.00  0.00    -0.267 OA
BRANCH  24  30
HETATM   30  N2  UNL     1      14.773 -24.177  20.841  1.00  0.00    -0.234 N 
ATOM     31  H22 UNL     1      14.568 -23.986  21.821  1.00  0.00     0.174 HD
ATOM     32  H21 UNL     1      14.768 -23.413  20.165  1.00  0.00     0.174 HD
ENDBRANCH  24  30
ENDBRANCH  19  20
ENDBRANCH  17  19
ENDBRANCH   9  17
ENDBRANCH   1   4
BRANCH   1  33
HETATM   33  C12 UNL     1      22.555 -31.912  18.156  1.00  0.00     0.325 C 
BRANCH  33  34
HETATM   34  O3  UNL     1      23.705 -32.120  18.886  1.00  0.00    -0.380 OA
ATOM     35  H3  UNL     1      24.488 -31.816  18.444  1.00  0.00     0.211 HD
ENDBRANCH  33  34
ENDBRANCH   1  33
TORSDOF 9
ENDMDL
MODEL 5
REMARK VINA RESULT: -7.511048527      1.959      4.255
REMARK  9 active torsions:
REMARK  status: ('A' for Active; 'I' for Inactive)
REMARK    1  A    between atoms: C3_5  and  N2_6 
REMARK    2  A    between atoms: C5_13  and  C6_14 
REMARK    3  A    between atoms: C6_14  and  N4_15 
REMARK    4  A    between atoms: N4_15  and  C7_17 
REMARK    5  A    between atoms: C8_20  and  N6_21 
REMARK    6  A    between atoms: N6_21  and  O2_23 
REMARK    7  A    between atoms: C10_27  and  N8_28 
REMARK    8  A    between atoms: N8_28  and  C12_31 
REMARK    9  A    between atoms: C12_31  and  O3_32 
ROOT
HETATM    1  N8  UNL     1      21.208 -30.125  14.815  1.00  0.00    -0.093 N 
HETATM    2  C11 UNL     1      22.370 -30.718  14.314  1.00  0.00     0.201 C 
HETATM    3  N9  UNL     1      23.340 -31.181  13.889  1.00  0.00    -0.171 NA
ENDROOT
BRANCH   1   4
HETATM    4  C10 UNL     1      20.958 -30.233  16.204  1.00  0.00     0.724 A 
HETATM    5  N7  UNL     1      21.855 -30.693  17.090  1.00  0.00    -0.018 N 
HETATM    6  C8  UNL     1      21.586 -30.730  18.440  1.00  0.00     0.732 A 
ATOM      7  H7  UNL     1      22.760 -31.023  16.754  1.00  0.00     0.203 HD
HETATM    8  N5  UNL     1      20.392 -30.302  18.824  1.00  0.00    -0.019 N 
HETATM    9  C7  UNL     1      19.425 -29.833  17.996  1.00  0.00     0.711 A 
ATOM     10  H5  UNL     1      20.184 -30.327  19.822  1.00  0.00     0.203 HD
HETATM   11  N10 UNL     1      19.774 -29.818  16.668  1.00  0.00    -0.020 N 
ATOM     12  H10 UNL     1      19.091 -29.470  15.996  1.00  0.00     0.203 HD
BRANCH   6  13
HETATM   13  N6  UNL     1      22.482 -31.262  19.404  1.00  0.00    -0.094 N 
HETATM   14  C9  UNL     1      22.027 -31.343  20.762  1.00  0.00     0.205 C 
BRANCH  13  15
HETATM   15  O2  UNL     1      23.699 -31.672  19.063  1.00  0.00    -0.274 OA
ATOM     16  H2  UNL     1      24.313 -31.088  18.632  1.00  0.00     0.245 HD
ENDBRANCH  13  15
ENDBRANCH   6  13
BRANCH   9  17
HETATM   17  N4  UNL     1      18.351 -29.381  18.368  1.00  0.00    -0.200 N 
ATOM     18  H4  UNL     1      18.437 -29.077  19.338  1.00  0.00     0.183 HD
BRANCH  17  19
HETATM   19  C6  UNL     1      17.049 -29.135  17.931  1.00  0.00     0.125 C 
BRANCH  19  20
HETATM   20  C5  UNL     1      16.589 -27.864  18.602  1.00  0.00     0.071 A 
HETATM   21  C2  UNL     1      16.296 -26.879  17.679  1.00  0.00     0.040 A 
HETATM   22  C1  UNL     1      16.314 -27.215  16.230  1.00  0.00     0.070 C 
HETATM   23  N1  UNL     1      15.935 -25.666  18.102  1.00  0.00    -0.195 N 
HETATM   24  C3  UNL     1      15.858 -25.407  19.445  1.00  0.00     0.679 A 
ATOM     25  H1  UNL     1      15.717 -24.933  17.427  1.00  0.00     0.184 HD
HETATM   26  N3  UNL     1      16.151 -26.370  20.323  1.00  0.00    -0.156 N 
HETATM   27  C4  UNL     1      16.530 -27.647  19.952  1.00  0.00     0.273 A 
ATOM     28  H3  UNL     1      16.093 -26.151  21.318  1.00  0.00     0.187 HD
HETATM   29  O1  UNL     1      16.798 -28.528  20.755  1.00  0.00    -0.267 OA
BRANCH  24  30
HETATM   30  N2  UNL     1      15.502 -24.193  19.846  1.00  0.00    -0.234 N 
ATOM     31  H22 UNL     1      14.603 -24.026  20.296  1.00  0.00     0.174 HD
ATOM     32  H21 UNL     1      16.151 -23.418  19.707  1.00  0.00     0.174 HD
ENDBRANCH  24  30
ENDBRANCH  19  20
ENDBRANCH  17  19
ENDBRANCH   9  17
ENDBRANCH   1   4
BRANCH   1  33
HETATM   33  C12 UNL     1      20.348 -29.394  13.897  1.00  0.00     0.325 C 
BRANCH  33  34
HETATM   34  O3  UNL     1      19.095 -29.953  13.767  1.00  0.00    -0.380 OA
ATOM     35  H3  UNL     1      18.499 -29.417  13.258  1.00  0.00     0.211 HD
ENDBRANCH  33  34
ENDBRANCH   1  33
TORSDOF 9
ENDMDL
