MODEL 1
REMARK VINA RESULT: -7.874596283      0.000      0.000
REMARK  8 active torsions:
REMARK  status: ('A' for Active; 'I' for Inactive)
REMARK    1  A    between atoms: N1_1  and  C1_4 
REMARK    2  A    between atoms: C4_11  and  N4_12 
REMARK    3  A    between atoms: N5_15  and  C5_16 
REMARK    4  A    between atoms: C5_16  and  C6_17 
REMARK    5  A    between atoms: C6_17  and  C7_18 
REMARK    6  A    between atoms: C7_18  and  C8_19 
REMARK    7  A    between atoms: C9_27  and  S1_28 
REMARK    8  A    between atoms: S1_28  and  N10_29 
ROOT
HETATM    1  C1  UNL     1      19.983 -30.069  16.820  1.00  0.00     0.678 A 
HETATM    2  N2  UNL     1      18.857 -29.633  17.388  1.00  0.00    -0.174 N 
ATOM      3  H2  UNL     1      18.079 -29.342  16.797  1.00  0.00     0.186 HD
HETATM    4  C2  UNL     1      18.728 -29.568  18.719  1.00  0.00     0.169 A 
HETATM    5  C3  UNL     1      19.787 -29.966  19.500  1.00  0.00     0.135 A 
HETATM    6  N3  UNL     1      19.384 -29.783  20.770  1.00  0.00    -0.185 N 
ATOM      7  H3  UNL     1      19.948 -29.989  21.594  1.00  0.00     0.184 HD
HETATM    8  C4  UNL     1      18.136 -29.292  20.796  1.00  0.00     0.680 A 
HETATM    9  N5  UNL     1      17.704 -29.151  19.511  1.00  0.00    -0.166 N 
HETATM   10  C9  UNL     1      20.985 -30.431  18.940  1.00  0.00     0.195 A 
HETATM   11  N11 UNL     1      21.043 -30.468  17.581  1.00  0.00    -0.177 N 
ATOM     12  H11 UNL     1      21.892 -30.799  17.124  1.00  0.00     0.185 HD
ENDROOT
BRANCH   9  13
HETATM   13  C5  UNL     1      16.423 -28.648  19.136  1.00  0.00     0.150 C 
BRANCH  13  14
HETATM   14  C6  UNL     1      16.295 -27.148  19.136  1.00  0.00     0.028 C 
BRANCH  14  15
HETATM   15  C7  UNL     1      14.998 -26.864  19.929  1.00  0.00     0.080 C 
BRANCH  15  16
HETATM   16  C8  UNL     1      14.687 -25.419  19.813  1.00  0.00     0.110 A 
HETATM   17  N6  UNL     1      14.977 -24.640  18.776  1.00  0.00    -0.271 N 
HETATM   18  N7  UNL     1      14.545 -23.401  19.018  1.00  0.00    -0.005 NA
ATOM     19  H6  UNL     1      15.456 -24.941  17.927  1.00  0.00     0.185 HD
HETATM   20  N8  UNL     1      13.987 -23.440  20.218  1.00  0.00    -0.225 N 
HETATM   21  N9  UNL     1      14.071 -24.648  20.697  1.00  0.00    -0.275 N 
ATOM     22  H8  UNL     1      13.556 -22.647  20.694  1.00  0.00     0.205 HD
ATOM     23  H9  UNL     1      13.720 -24.951  21.606  1.00  0.00     0.189 HD
ENDBRANCH  15  16
ENDBRANCH  14  15
ENDBRANCH  13  14
ENDBRANCH   9  13
BRANCH   8  24
HETATM   24  N4  UNL     1      17.430 -28.986  21.860  1.00  0.00    -0.234 N 
ATOM     25  H42 UNL     1      16.571 -29.459  22.144  1.00  0.00     0.174 HD
ATOM     26  H41 UNL     1      17.627 -28.249  22.538  1.00  0.00     0.174 HD
ENDBRANCH   8  24
BRANCH   1  27
HETATM   27  N1  UNL     1      20.137 -30.154  15.578  1.00  0.00    -0.234 N 
ATOM     28  H12 UNL     1      19.303 -30.394  15.041  1.00  0.00     0.174 HD
ATOM     29  H11 UNL     1      21.029 -29.987  15.113  1.00  0.00     0.174 HD
ENDBRANCH   1  27
BRANCH  10  30
HETATM   30  S1  UNL     1      22.319 -30.928  19.953  1.00  0.00     0.275 S 
HETATM   31  O1  UNL     1      22.756 -29.715  20.730  1.00  0.00    -0.199 OA
HETATM   32  O2  UNL     1      23.506 -31.325  19.085  1.00  0.00    -0.199 OA
BRANCH  30  33
HETATM   33  N10 UNL     1      21.911 -32.230  20.999  1.00  0.00    -0.323 N 
ATOM     34 2H10 UNL     1      20.972 -32.361  21.378  1.00  0.00     0.169 HD
ATOM     35 1H10 UNL     1      22.702 -32.843  21.192  1.00  0.00     0.169 HD
ENDBRANCH  30  33
ENDBRANCH  10  30
TORSDOF 8
ENDMDL
MODEL 2
REMARK VINA RESULT: -7.702133487      3.521      5.518
REMARK  8 active torsions:
REMARK  status: ('A' for Active; 'I' for Inactive)
REMARK    1  A    between atoms: N1_1  and  C1_4 
REMARK    2  A    between atoms: C4_11  and  N4_12 
REMARK    3  A    between atoms: N5_15  and  C5_16 
REMARK    4  A    between atoms: C5_16  and  C6_17 
REMARK    5  A    between atoms: C6_17  and  C7_18 
REMARK    6  A    between atoms: C7_18  and  C8_19 
REMARK    7  A    between atoms: C9_27  and  S1_28 
REMARK    8  A    between atoms: S1_28  and  N10_29 
ROOT
HETATM    1  C1  UNL     1      19.046 -29.596  18.239  1.00  0.00     0.678 A 
HETATM    2  N2  UNL     1      19.480 -29.950  17.028  1.00  0.00    -0.174 N 
ATOM      3  H2  UNL     1      18.919 -29.716  16.208  1.00  0.00     0.186 HD
HETATM    4  C2  UNL     1      20.636 -30.606  16.865  1.00  0.00     0.169 A 
HETATM    5  C3  UNL     1      21.378 -30.910  17.982  1.00  0.00     0.135 A 
HETATM    6  N3  UNL     1      22.459 -31.566  17.525  1.00  0.00    -0.185 N 
ATOM      7  H3  UNL     1      23.211 -31.929  18.110  1.00  0.00     0.184 HD
HETATM    8  C4  UNL     1      22.406 -31.677  16.189  1.00  0.00     0.680 A 
HETATM    9  N5  UNL     1      21.263 -31.075  15.754  1.00  0.00    -0.166 N 
HETATM   10  C9  UNL     1      20.956 -30.554  19.270  1.00  0.00     0.195 A 
HETATM   11  N11 UNL     1      19.771 -29.891  19.356  1.00  0.00    -0.177 N 
ATOM     12  H11 UNL     1      19.420 -29.609  20.271  1.00  0.00     0.185 HD
ENDROOT
BRANCH   9  13
HETATM   13  C5  UNL     1      20.856 -30.996  14.389  1.00  0.00     0.150 C 
BRANCH  13  14
HETATM   14  C6  UNL     1      21.088 -29.664  13.725  1.00  0.00     0.028 C 
BRANCH  14  15
HETATM   15  C7  UNL     1      19.776 -29.374  12.959  1.00  0.00     0.080 C 
BRANCH  15  16
HETATM   16  C8  UNL     1      18.786 -28.828  13.918  1.00  0.00     0.110 A 
HETATM   17  N6  UNL     1      17.786 -29.503  14.476  1.00  0.00    -0.271 N 
HETATM   18  N7  UNL     1      17.103 -28.693  15.288  1.00  0.00    -0.005 NA
ATOM     19  H6  UNL     1      17.573 -30.487  14.309  1.00  0.00     0.185 HD
HETATM   20  N8  UNL     1      17.704 -27.516  15.215  1.00  0.00    -0.225 N 
HETATM   21  N9  UNL     1      18.713 -27.593  14.394  1.00  0.00    -0.275 N 
ATOM     22  H8  UNL     1      17.422 -26.678  15.723  1.00  0.00     0.205 HD
ATOM     23  H9  UNL     1      19.344 -26.828  14.157  1.00  0.00     0.189 HD
ENDBRANCH  15  16
ENDBRANCH  14  15
ENDBRANCH  13  14
ENDBRANCH   9  13
BRANCH   8  24
HETATM   24  N4  UNL     1      23.286 -32.263  15.409  1.00  0.00    -0.234 N 
ATOM     25  H42 UNL     1      23.052 -32.849  14.607  1.00  0.00     0.174 HD
ATOM     26  H41 UNL     1      24.302 -32.223  15.490  1.00  0.00     0.174 HD
ENDBRANCH   8  24
BRANCH   1  27
HETATM   27  N1  UNL     1      17.974 -28.972  18.430  1.00  0.00    -0.234 N 
ATOM     28  H12 UNL     1      17.446 -28.728  17.592  1.00  0.00     0.174 HD
ATOM     29  H11 UNL     1      17.630 -28.724  19.357  1.00  0.00     0.174 HD
ENDBRANCH   1  27
BRANCH  10  30
HETATM   30  S1  UNL     1      21.914 -30.956  20.675  1.00  0.00     0.275 S 
HETATM   31  O1  UNL     1      22.893 -29.830  20.876  1.00  0.00    -0.199 OA
HETATM   32  O2  UNL     1      22.750 -32.197  20.391  1.00  0.00    -0.199 OA
BRANCH  30  33
HETATM   33  N10 UNL     1      20.958 -31.214  22.081  1.00  0.00    -0.323 N 
ATOM     34 2H10 UNL     1      21.281 -31.770  22.874  1.00  0.00     0.169 HD
ATOM     35 1H10 UNL     1      20.049 -30.756  22.029  1.00  0.00     0.169 HD
ENDBRANCH  30  33
ENDBRANCH  10  30
TORSDOF 8
ENDMDL
MODEL 3
REMARK VINA RESULT: -7.573224230      1.178      1.337
REMARK  8 active torsions:
REMARK  status: ('A' for Active; 'I' for Inactive)
REMARK    1  A    between atoms: N1_1  and  C1_4 
REMARK    2  A    between atoms: C4_11  and  N4_12 
REMARK    3  A    between atoms: N5_15  and  C5_16 
REMARK    4  A    between atoms: C5_16  and  C6_17 
REMARK    5  A    between atoms: C6_17  and  C7_18 
REMARK    6  A    between atoms: C7_18  and  C8_19 
REMARK    7  A    between atoms: C9_27  and  S1_28 
REMARK    8  A    between atoms: S1_28  and  N10_29 
ROOT
HETATM    1  C1  UNL     1      20.733 -30.079  16.120  1.00  0.00     0.678 A 
HETATM    2  N2  UNL     1      19.468 -29.772  16.416  1.00  0.00    -0.174 N 
ATOM      3  H2  UNL     1      18.817 -29.555  15.662  1.00  0.00     0.186 HD
HETATM    4  C2  UNL     1      19.036 -29.743  17.683  1.00  0.00     0.169 A 
HETATM    5  C3  UNL     1      19.928 -30.041  18.686  1.00  0.00     0.135 A 
HETATM    6  N3  UNL     1      19.233 -29.923  19.830  1.00  0.00    -0.185 N 
ATOM      7  H3  UNL     1      19.614 -30.082  20.763  1.00  0.00     0.184 HD
HETATM    8  C4  UNL     1      17.966 -29.566  19.571  1.00  0.00     0.680 A 
HETATM    9  N5  UNL     1      17.823 -29.449  18.220  1.00  0.00    -0.166 N 
HETATM   10  C9  UNL     1      21.264 -30.369  18.414  1.00  0.00     0.195 A 
HETATM   11  N11 UNL     1      21.630 -30.377  17.104  1.00  0.00    -0.177 N 
ATOM     12  H11 UNL     1      22.591 -30.610  16.853  1.00  0.00     0.185 HD
ENDROOT
BRANCH   9  13
HETATM   13  C5  UNL     1      16.613 -29.077  17.562  1.00  0.00     0.150 C 
BRANCH  13  14
HETATM   14  C6  UNL     1      16.441 -27.601  17.318  1.00  0.00     0.028 C 
BRANCH  14  15
HETATM   15  C7  UNL     1      15.150 -27.225  18.082  1.00  0.00     0.080 C 
BRANCH  15  16
HETATM   16  C8  UNL     1      15.402 -25.975  18.837  1.00  0.00     0.110 A 
HETATM   17  N6  UNL     1      14.616 -24.902  18.855  1.00  0.00    -0.271 N 
HETATM   18  N7  UNL     1      15.156 -23.971  19.644  1.00  0.00    -0.005 NA
ATOM     19  H6  UNL     1      13.739 -24.806  18.344  1.00  0.00     0.185 HD
HETATM   20  N8  UNL     1      16.281 -24.494  20.106  1.00  0.00    -0.225 N 
HETATM   21  N9  UNL     1      16.432 -25.694  19.624  1.00  0.00    -0.275 N 
ATOM     22  H8  UNL     1      16.929 -24.029  20.742  1.00  0.00     0.205 HD
ATOM     23  H9  UNL     1      17.215 -26.318  19.820  1.00  0.00     0.189 HD
ENDBRANCH  15  16
ENDBRANCH  14  15
ENDBRANCH  13  14
ENDBRANCH   9  13
BRANCH   8  24
HETATM   24  N4  UNL     1      17.010 -29.353  20.445  1.00  0.00    -0.234 N 
ATOM     25  H42 UNL     1      16.466 -30.085  20.902  1.00  0.00     0.174 HD
ATOM     26  H41 UNL     1      16.676 -28.450  20.783  1.00  0.00     0.174 HD
ENDBRANCH   8  24
BRANCH   1  27
HETATM   27  N1  UNL     1      21.171 -30.127  14.945  1.00  0.00    -0.234 N 
ATOM     28  H12 UNL     1      21.165 -31.047  14.505  1.00  0.00     0.174 HD
ATOM     29  H11 UNL     1      21.507 -29.307  14.440  1.00  0.00     0.174 HD
ENDBRANCH   1  27
BRANCH  10  30
HETATM   30  S1  UNL     1      22.380 -30.740  19.706  1.00  0.00     0.275 S 
HETATM   31  O1  UNL     1      22.851 -29.427  20.271  1.00  0.00    -0.199 OA
HETATM   32  O2  UNL     1      23.617 -31.424  19.139  1.00  0.00    -0.199 OA
BRANCH  30  33
HETATM   33  N10 UNL     1      21.682 -31.733  20.924  1.00  0.00    -0.323 N 
ATOM     34 2H10 UNL     1      21.676 -31.475  21.911  1.00  0.00     0.169 HD
ATOM     35 1H10 UNL     1      21.282 -32.594  20.550  1.00  0.00     0.169 HD
ENDBRANCH  30  33
ENDBRANCH  10  30
TORSDOF 8
ENDMDL
MODEL 4
REMARK VINA RESULT: -7.548049128      2.534      3.193
REMARK  8 active torsions:
REMARK  status: ('A' for Active; 'I' for Inactive)
REMARK    1  A    between atoms: N1_1  and  C1_4 
REMARK    2  A    between atoms: C4_11  and  N4_12 
REMARK    3  A    between atoms: N5_15  and  C5_16 
REMARK    4  A    between atoms: C5_16  and  C6_17 
REMARK    5  A    between atoms: C6_17  and  C7_18 
REMARK    6  A    between atoms: C7_18  and  C8_19 
REMARK    7  A    between atoms: C9_27  and  S1_28 
REMARK    8  A    between atoms: S1_28  and  N10_29 
ROOT
HETATM    1  C1  UNL     1      19.873 -30.761  16.972  1.00  0.00     0.678 A 
HETATM    2  N2  UNL     1      18.764 -30.279  17.537  1.00  0.00    -0.174 N 
ATOM      3  H2  UNL     1      17.932 -30.139  16.965  1.00  0.00     0.186 HD
HETATM    4  C2  UNL     1      18.722 -29.977  18.841  1.00  0.00     0.169 A 
HETATM    5  C3  UNL     1      19.853 -30.175  19.597  1.00  0.00     0.135 A 
HETATM    6  N3  UNL     1      19.527 -29.781  20.839  1.00  0.00    -0.185 N 
ATOM      7  H3  UNL     1      20.156 -29.805  21.642  1.00  0.00     0.184 HD
HETATM    8  C4  UNL     1      18.256 -29.352  20.874  1.00  0.00     0.680 A 
HETATM    9  N5  UNL     1      17.731 -29.469  19.621  1.00  0.00    -0.166 N 
HETATM   10  C9  UNL     1      21.036 -30.680  19.038  1.00  0.00     0.195 A 
HETATM   11  N11 UNL     1      21.003 -30.963  17.708  1.00  0.00    -0.177 N 
ATOM     12  H11 UNL     1      21.838 -31.333  17.254  1.00  0.00     0.185 HD
ENDROOT
BRANCH   9  13
HETATM   13  C5  UNL     1      16.400 -29.104  19.262  1.00  0.00     0.150 C 
BRANCH  13  14
HETATM   14  C6  UNL     1      16.243 -27.716  18.700  1.00  0.00     0.028 C 
BRANCH  14  15
HETATM   15  C7  UNL     1      15.439 -27.910  17.393  1.00  0.00     0.080 C 
BRANCH  15  16
HETATM   16  C8  UNL     1      16.397 -28.143  16.286  1.00  0.00     0.110 A 
HETATM   17  N6  UNL     1      16.647 -29.312  15.704  1.00  0.00    -0.271 N 
HETATM   18  N7  UNL     1      17.560 -29.143  14.746  1.00  0.00    -0.005 NA
ATOM     19  H6  UNL     1      16.210 -30.199  15.952  1.00  0.00     0.185 HD
HETATM   20  N8  UNL     1      17.860 -27.853  14.754  1.00  0.00    -0.225 N 
HETATM   21  N9  UNL     1      17.165 -27.251  15.676  1.00  0.00    -0.275 N 
ATOM     22  H8  UNL     1      18.532 -27.401  14.133  1.00  0.00     0.205 HD
ATOM     23  H9  UNL     1      17.206 -26.256  15.894  1.00  0.00     0.189 HD
ENDBRANCH  15  16
ENDBRANCH  14  15
ENDBRANCH  13  14
ENDBRANCH   9  13
BRANCH   8  24
HETATM   24  N4  UNL     1      17.606 -28.888  21.917  1.00  0.00    -0.234 N 
ATOM     25  H42 UNL     1      17.833 -29.107  22.887  1.00  0.00     0.174 HD
ATOM     26  H41 UNL     1      16.800 -28.263  21.910  1.00  0.00     0.174 HD
ENDBRANCH   8  24
BRANCH   1  27
HETATM   27  N1  UNL     1      19.948 -31.066  15.757  1.00  0.00    -0.234 N 
ATOM     28  H12 UNL     1      19.277 -30.607  15.140  1.00  0.00     0.174 HD
ATOM     29  H11 UNL     1      20.636 -31.721  15.386  1.00  0.00     0.174 HD
ENDBRANCH   1  27
BRANCH  10  30
HETATM   30  S1  UNL     1      22.462 -30.920  20.017  1.00  0.00     0.275 S 
HETATM   31  O1  UNL     1      22.834 -29.578  20.590  1.00  0.00    -0.199 OA
HETATM   32  O2  UNL     1      23.629 -31.341  19.135  1.00  0.00    -0.199 OA
BRANCH  30  33
HETATM   33  N10 UNL     1      22.228 -32.087  21.259  1.00  0.00    -0.323 N 
ATOM     34 2H10 UNL     1      21.414 -32.701  21.293  1.00  0.00     0.169 HD
ATOM     35 1H10 UNL     1      22.985 -32.093  21.942  1.00  0.00     0.169 HD
ENDBRANCH  30  33
ENDBRANCH  10  30
TORSDOF 8
ENDMDL
MODEL 5
REMARK VINA RESULT: -7.538740486      4.824      7.212
REMARK  8 active torsions:
REMARK  status: ('A' for Active; 'I' for Inactive)
REMARK    1  A    between atoms: N1_1  and  C1_4 
REMARK    2  A    between atoms: C4_11  and  N4_12 
REMARK    3  A    between atoms: N5_15  and  C5_16 
REMARK    4  A    between atoms: C5_16  and  C6_17 
REMARK    5  A    between atoms: C6_17  and  C7_18 
REMARK    6  A    between atoms: C7_18  and  C8_19 
REMARK    7  A    between atoms: C9_27  and  S1_28 
REMARK    8  A    between atoms: S1_28  and  N10_29 
ROOT
HETATM    1  C1  UNL     1      14.687 -29.139  21.656  1.00  0.00     0.678 A 
HETATM    2  N2  UNL     1      14.654 -28.337  20.590  1.00  0.00    -0.174 N 
ATOM      3  H2  UNL     1      14.639 -28.747  19.656  1.00  0.00     0.186 HD
HETATM    4  C2  UNL     1      14.640 -27.004  20.721  1.00  0.00     0.169 A 
HETATM    5  C3  UNL     1      14.657 -26.471  21.988  1.00  0.00     0.135 A 
HETATM    6  N3  UNL     1      14.650 -25.138  21.815  1.00  0.00    -0.185 N 
ATOM      7  H3  UNL     1      14.658 -24.452  22.570  1.00  0.00     0.184 HD
HETATM    8  C4  UNL     1      14.631 -24.838  20.507  1.00  0.00     0.680 A 
HETATM    9  N5  UNL     1      14.623 -26.004  19.801  1.00  0.00    -0.166 N 
HETATM   10  C9  UNL     1      14.691 -27.282  23.131  1.00  0.00     0.195 A 
HETATM   11  N11 UNL     1      14.705 -28.625  22.919  1.00  0.00    -0.177 N 
ATOM     12  H11 UNL     1      14.729 -29.259  23.718  1.00  0.00     0.185 HD
ENDROOT
BRANCH   9  13
HETATM   13  C5  UNL     1      14.610 -26.090  18.377  1.00  0.00     0.150 C 
BRANCH  13  14
HETATM   14  C6  UNL     1      15.902 -26.539  17.748  1.00  0.00     0.028 C 
BRANCH  14  15
HETATM   15  C7  UNL     1      15.529 -27.811  16.951  1.00  0.00     0.080 C 
BRANCH  15  16
HETATM   16  C8  UNL     1      16.626 -28.103  15.997  1.00  0.00     0.110 A 
HETATM   17  N6  UNL     1      17.121 -29.306  15.723  1.00  0.00    -0.271 N 
HETATM   18  N7  UNL     1      18.094 -29.188  14.817  1.00  0.00    -0.005 NA
ATOM     19  H6  UNL     1      16.807 -30.181  16.140  1.00  0.00     0.185 HD
HETATM   20  N8  UNL     1      18.181 -27.895  14.545  1.00  0.00    -0.225 N 
HETATM   21  N9  UNL     1      17.304 -27.242  15.251  1.00  0.00    -0.275 N 
ATOM     22  H8  UNL     1      18.835 -27.475  13.884  1.00  0.00     0.205 HD
ATOM     23  H9  UNL     1      17.161 -26.232  15.233  1.00  0.00     0.189 HD
ENDBRANCH  15  16
ENDBRANCH  14  15
ENDBRANCH  13  14
ENDBRANCH   9  13
BRANCH   8  24
HETATM   24  N4  UNL     1      14.627 -23.639  19.971  1.00  0.00    -0.234 N 
ATOM     25  H42 UNL     1      14.282 -22.797  20.433  1.00  0.00     0.174 HD
ATOM     26  H41 UNL     1      14.954 -23.381  19.040  1.00  0.00     0.174 HD
ENDBRANCH   8  24
BRANCH   1  27
HETATM   27  N1  UNL     1      14.690 -30.391  21.573  1.00  0.00    -0.234 N 
ATOM     28  H12 UNL     1      14.891 -30.776  20.650  1.00  0.00     0.174 HD
ATOM     29  H11 UNL     1      14.515 -31.004  22.370  1.00  0.00     0.174 HD
ENDBRANCH   1  27
BRANCH  10  30
HETATM   30  S1  UNL     1      14.718 -26.580  24.731  1.00  0.00     0.275 S 
HETATM   31  O1  UNL     1      14.626 -25.087  24.559  1.00  0.00    -0.199 OA
HETATM   32  O2  UNL     1      16.064 -26.848  25.390  1.00  0.00    -0.199 OA
BRANCH  30  33
HETATM   33  N10 UNL     1      13.456 -27.173  25.738  1.00  0.00    -0.323 N 
ATOM     34 2H10 UNL     1      12.475 -26.933  25.594  1.00  0.00     0.169 HD
ATOM     35 1H10 UNL     1      13.798 -27.782  26.482  1.00  0.00     0.169 HD
ENDBRANCH  30  33
ENDBRANCH  10  30
TORSDOF 8
ENDMDL
