MODEL 1
REMARK VINA RESULT: -8.005779562      0.000      0.000
REMARK  7 active torsions:
REMARK  status: ('A' for Active; 'I' for Inactive)
REMARK    1  A    between atoms: N5_15  and  C6_16 
REMARK    2  A    between atoms: C6_16  and  C7_17 
REMARK    3  A    between atoms: C7_17  and  C8_18 
REMARK    4  A    between atoms: C8_18  and  N6_19 
REMARK    5  A    between atoms: C9_21  and  C10_22 
REMARK    6  A    between atoms: C13_31  and  N9_32 
REMARK    7  A    between atoms: N9_32  and  N10_34 
ROOT
HETATM    1  C8  UNL     1      17.675 -29.295  16.139  1.00  0.00     0.120 C 
ENDROOT
BRANCH   1   2
HETATM    2  C7  UNL     1      16.298 -28.884  16.583  1.00  0.00     0.040 C 
BRANCH   2   3
HETATM    3  C6  UNL     1      16.167 -28.742  18.062  1.00  0.00     0.133 C 
BRANCH   3   4
HETATM    4  N5  UNL     1      15.872 -27.403  18.520  1.00  0.00    -0.327 N 
HETATM    5  C3  UNL     1      15.440 -27.037  19.730  1.00  0.00     0.140 A 
HETATM    6  N3  UNL     1      15.128 -27.703  20.856  1.00  0.00    -0.336 N 
HETATM    7  C4  UNL     1      15.294 -25.650  19.775  1.00  0.00     0.122 A 
HETATM    8  C2  UNL     1      14.701 -27.098  21.972  1.00  0.00     0.183 A 
ATOM      9  H3  UNL     1      15.222 -28.719  20.861  1.00  0.00     0.168 HD
HETATM   10  N2  UNL     1      14.558 -25.759  22.025  1.00  0.00    -0.337 N 
HETATM   11  C1  UNL     1      14.855 -25.053  20.930  1.00  0.00     0.131 A 
ATOM     12  H2  UNL     1      14.232 -25.298  22.875  1.00  0.00     0.168 HD
HETATM   13  N1  UNL     1      14.720 -23.763  20.975  1.00  0.00    -0.383 N 
ATOM     14  H12 UNL     1      14.394 -23.319  21.833  1.00  0.00     0.157 HD
ATOM     15  H11 UNL     1      14.946 -23.224  20.139  1.00  0.00     0.157 HD
HETATM   16  N4  UNL     1      15.653 -25.214  18.562  1.00  0.00    -0.346 N 
HETATM   17  C5  UNL     1      15.999 -26.269  17.807  1.00  0.00     0.185 A 
ATOM     18  H4  UNL     1      15.662 -24.240  18.261  1.00  0.00     0.167 HD
ENDBRANCH   3   4
ENDBRANCH   2   3
ENDBRANCH   1   2
BRANCH   1  19
HETATM   19  N6  UNL     1      18.579 -29.425  17.282  1.00  0.00    -0.397 N 
HETATM   20  C9  UNL     1      19.465 -30.360  17.304  1.00  0.00     0.115 C 
ATOM     21  H6  UNL     1      18.508 -28.773  18.064  1.00  0.00     0.158 HD
BRANCH  20  22
HETATM   22  C10 UNL     1      20.377 -30.543  18.392  1.00  0.00     0.085 A 
HETATM   23  N7  UNL     1      20.098 -30.300  19.683  1.00  0.00    -0.305 N 
HETATM   24  C11 UNL     1      21.008 -30.519  20.659  1.00  0.00     0.327 A 
ATOM     25  H7  UNL     1      19.176 -29.942  19.934  1.00  0.00     0.171 HD
HETATM   26  O1  UNL     1      20.733 -30.288  21.871  1.00  0.00    -0.247 OA
HETATM   27  N8  UNL     1      22.241 -30.987  20.417  1.00  0.00    -0.273 N 
HETATM   28  C12 UNL     1      22.584 -31.251  19.133  1.00  0.00     0.279 A 
ATOM     29  H8  UNL     1      22.902 -31.141  21.178  1.00  0.00     0.173 HD
HETATM   30  O2  UNL     1      23.726 -31.691  18.835  1.00  0.00    -0.265 OA
HETATM   31  C13 UNL     1      21.665 -31.031  18.132  1.00  0.00     0.144 A 
BRANCH  31  32
HETATM   32  N9  UNL     1      22.020 -31.297  16.763  1.00  0.00    -0.300 N 
ATOM     33  H9  UNL     1      21.986 -30.569  16.050  1.00  0.00     0.186 HD
BRANCH  32  34
HETATM   34  N10 UNL     1      22.412 -32.593  16.462  1.00  0.00    -0.344 N 
ATOM     35 2H10 UNL     1      22.052 -33.069  15.635  1.00  0.00     0.176 HD
ATOM     36 1H10 UNL     1      23.071 -33.033  17.105  1.00  0.00     0.176 HD
ENDBRANCH  32  34
ENDBRANCH  31  32
ENDBRANCH  20  22
ENDBRANCH   1  19
TORSDOF 7
ENDMDL
MODEL 2
REMARK VINA RESULT: -7.935230800      0.633      1.576
REMARK  7 active torsions:
REMARK  status: ('A' for Active; 'I' for Inactive)
REMARK    1  A    between atoms: N5_15  and  C6_16 
REMARK    2  A    between atoms: C6_16  and  C7_17 
REMARK    3  A    between atoms: C7_17  and  C8_18 
REMARK    4  A    between atoms: C8_18  and  N6_19 
REMARK    5  A    between atoms: C9_21  and  C10_22 
REMARK    6  A    between atoms: C13_31  and  N9_32 
REMARK    7  A    between atoms: N9_32  and  N10_34 
ROOT
HETATM    1  C8  UNL     1      17.670 -29.266  16.089  1.00  0.00     0.120 C 
ENDROOT
BRANCH   1   2
HETATM    2  C7  UNL     1      16.281 -28.863  16.509  1.00  0.00     0.040 C 
BRANCH   2   3
HETATM    3  C6  UNL     1      16.183 -27.445  16.959  1.00  0.00     0.133 C 
BRANCH   3   4
HETATM    4  N5  UNL     1      15.821 -27.272  18.348  1.00  0.00    -0.327 N 
HETATM    5  C3  UNL     1      15.512 -26.131  18.969  1.00  0.00     0.140 A 
HETATM    6  N3  UNL     1      15.446 -24.843  18.587  1.00  0.00    -0.336 N 
HETATM    7  C4  UNL     1      15.202 -26.393  20.304  1.00  0.00     0.122 A 
HETATM    8  C2  UNL     1      15.106 -23.848  19.416  1.00  0.00     0.183 A 
ATOM      9  H3  UNL     1      15.666 -24.613  17.618  1.00  0.00     0.168 HD
HETATM   10  N2  UNL     1      14.805 -24.092  20.707  1.00  0.00    -0.337 N 
HETATM   11  C1  UNL     1      14.857 -25.358  21.134  1.00  0.00     0.131 A 
ATOM     12  H2  UNL     1      14.546 -23.334  21.339  1.00  0.00     0.168 HD
HETATM   13  N1  UNL     1      14.567 -25.599  22.376  1.00  0.00    -0.383 N 
ATOM     14  H12 UNL     1      14.310 -24.829  22.994  1.00  0.00     0.157 HD
ATOM     15  H11 UNL     1      14.607 -26.565  22.702  1.00  0.00     0.157 HD
HETATM   16  N4  UNL     1      15.337 -27.717  20.447  1.00  0.00    -0.346 N 
HETATM   17  C5  UNL     1      15.710 -28.245  19.271  1.00  0.00     0.185 A 
ATOM     18  H4  UNL     1      15.182 -28.238  21.310  1.00  0.00     0.167 HD
ENDBRANCH   3   4
ENDBRANCH   2   3
ENDBRANCH   1   2
BRANCH   1  19
HETATM   19  N6  UNL     1      18.543 -29.427  17.252  1.00  0.00    -0.397 N 
HETATM   20  C9  UNL     1      19.510 -30.278  17.221  1.00  0.00     0.115 C 
ATOM     21  H6  UNL     1      18.386 -28.864  18.088  1.00  0.00     0.158 HD
BRANCH  20  22
HETATM   22  C10 UNL     1      20.399 -30.485  18.324  1.00  0.00     0.085 A 
HETATM   23  N7  UNL     1      20.105 -30.235  19.611  1.00  0.00    -0.305 N 
HETATM   24  C11 UNL     1      20.993 -30.479  20.601  1.00  0.00     0.327 A 
ATOM     25  H7  UNL     1      19.189 -29.852  19.847  1.00  0.00     0.171 HD
HETATM   26  O1  UNL     1      20.705 -30.241  21.808  1.00  0.00    -0.247 OA
HETATM   27  N8  UNL     1      22.216 -30.980  20.379  1.00  0.00    -0.273 N 
HETATM   28  C12 UNL     1      22.573 -31.252  19.100  1.00  0.00     0.279 A 
ATOM     29  H8  UNL     1      22.861 -31.152  21.151  1.00  0.00     0.173 HD
HETATM   30  O2  UNL     1      23.708 -31.723  18.821  1.00  0.00    -0.265 OA
HETATM   31  C13 UNL     1      21.678 -31.008  18.085  1.00  0.00     0.144 A 
BRANCH  31  32
HETATM   32  N9  UNL     1      22.049 -31.282  16.721  1.00  0.00    -0.300 N 
ATOM     33  H9  UNL     1      22.073 -30.548  16.015  1.00  0.00     0.186 HD
BRANCH  32  34
HETATM   34  N10 UNL     1      22.371 -32.596  16.417  1.00  0.00    -0.344 N 
ATOM     35 2H10 UNL     1      21.645 -33.310  16.352  1.00  0.00     0.176 HD
ATOM     36 1H10 UNL     1      23.358 -32.802  16.264  1.00  0.00     0.176 HD
ENDBRANCH  32  34
ENDBRANCH  31  32
ENDBRANCH  20  22
ENDBRANCH   1  19
TORSDOF 7
ENDMDL
MODEL 3
REMARK VINA RESULT: -7.878820144      1.461      1.520
REMARK  7 active torsions:
REMARK  status: ('A' for Active; 'I' for Inactive)
REMARK    1  A    between atoms: N5_15  and  C6_16 
REMARK    2  A    between atoms: C6_16  and  C7_17 
REMARK    3  A    between atoms: C7_17  and  C8_18 
REMARK    4  A    between atoms: C8_18  and  N6_19 
REMARK    5  A    between atoms: C9_21  and  C10_22 
REMARK    6  A    between atoms: C13_31  and  N9_32 
REMARK    7  A    between atoms: N9_32  and  N10_34 
ROOT
HETATM    1  C8  UNL     1      17.870 -29.602  16.488  1.00  0.00     0.120 C 
ENDROOT
BRANCH   1   2
HETATM    2  C7  UNL     1      16.588 -29.098  17.095  1.00  0.00     0.040 C 
BRANCH   2   3
HETATM    3  C6  UNL     1      16.752 -28.570  18.480  1.00  0.00     0.133 C 
BRANCH   3   4
HETATM    4  N5  UNL     1      16.169 -27.267  18.707  1.00  0.00    -0.327 N 
HETATM    5  C3  UNL     1      15.612 -26.814  19.833  1.00  0.00     0.140 A 
HETATM    6  N3  UNL     1      15.387 -27.344  21.049  1.00  0.00    -0.336 N 
HETATM    7  C4  UNL     1      15.185 -25.498  19.648  1.00  0.00     0.122 A 
HETATM    8  C2  UNL     1      14.791 -26.674  22.043  1.00  0.00     0.183 A 
ATOM      9  H3  UNL     1      15.685 -28.304  21.222  1.00  0.00     0.168 HD
HETATM   10  N2  UNL     1      14.376 -25.403  21.873  1.00  0.00    -0.337 N 
HETATM   11  C1  UNL     1      14.578 -24.832  20.681  1.00  0.00     0.131 A 
ATOM     12  H2  UNL     1      13.922 -24.892  22.631  1.00  0.00     0.168 HD
HETATM   13  N1  UNL     1      14.181 -23.607  20.512  1.00  0.00    -0.383 N 
ATOM     14  H12 UNL     1      13.729 -23.112  21.280  1.00  0.00     0.157 HD
ATOM     15  H11 UNL     1      14.334 -23.172  19.602  1.00  0.00     0.157 HD
HETATM   16  N4  UNL     1      15.508 -25.194  18.386  1.00  0.00    -0.346 N 
HETATM   17  C5  UNL     1      16.098 -26.259  17.820  1.00  0.00     0.185 A 
ATOM     18  H4  UNL     1      15.333 -24.299  17.928  1.00  0.00     0.167 HD
ENDBRANCH   3   4
ENDBRANCH   2   3
ENDBRANCH   1   2
BRANCH   1  19
HETATM   19  N6  UNL     1      18.934 -29.669  17.490  1.00  0.00    -0.397 N 
HETATM   20  C9  UNL     1      19.533 -30.786  17.723  1.00  0.00     0.115 C 
ATOM     21  H6  UNL     1      19.203 -28.830  18.004  1.00  0.00     0.158 HD
BRANCH  20  22
HETATM   22  C10 UNL     1      20.580 -30.920  18.690  1.00  0.00     0.085 A 
HETATM   23  N7  UNL     1      21.410 -29.936  19.071  1.00  0.00    -0.305 N 
HETATM   24  C11 UNL     1      22.363 -30.136  20.010  1.00  0.00     0.327 A 
ATOM     25  H7  UNL     1      21.320 -29.015  18.643  1.00  0.00     0.171 HD
HETATM   26  O1  UNL     1      23.138 -29.201  20.361  1.00  0.00    -0.247 OA
HETATM   27  N8  UNL     1      22.551 -31.313  20.622  1.00  0.00    -0.273 N 
HETATM   28  C12 UNL     1      21.744 -32.348  20.279  1.00  0.00     0.279 A 
ATOM     29  H8  UNL     1      23.280 -31.428  21.326  1.00  0.00     0.173 HD
HETATM   30  O2  UNL     1      21.867 -33.481  20.815  1.00  0.00    -0.265 OA
HETATM   31  C13 UNL     1      20.772 -32.155  19.325  1.00  0.00     0.144 A 
BRANCH  31  32
HETATM   32  N9  UNL     1      19.916 -33.249  18.945  1.00  0.00    -0.300 N 
ATOM     33  H9  UNL     1      18.925 -33.261  19.184  1.00  0.00     0.186 HD
BRANCH  32  34
HETATM   34  N10 UNL     1      20.507 -34.284  18.237  1.00  0.00    -0.344 N 
ATOM     35 2H10 UNL     1      21.514 -34.443  18.288  1.00  0.00     0.176 HD
ATOM     36 1H10 UNL     1      19.887 -34.867  17.675  1.00  0.00     0.176 HD
ENDBRANCH  32  34
ENDBRANCH  31  32
ENDBRANCH  20  22
ENDBRANCH   1  19
TORSDOF 7
ENDMDL
MODEL 4
REMARK VINA RESULT: -7.796669598      3.914      5.628
REMARK  7 active torsions:
REMARK  status: ('A' for Active; 'I' for Inactive)
REMARK    1  A    between atoms: N5_15  and  C6_16 
REMARK    2  A    between atoms: C6_16  and  C7_17 
REMARK    3  A    between atoms: C7_17  and  C8_18 
REMARK    4  A    between atoms: C8_18  and  N6_19 
REMARK    5  A    between atoms: C9_21  and  C10_22 
REMARK    6  A    between atoms: C13_31  and  N9_32 
REMARK    7  A    between atoms: N9_32  and  N10_34 
ROOT
HETATM    1  C8  UNL     1      22.072 -33.610  15.523  1.00  0.00     0.120 C 
ENDROOT
BRANCH   1   2
HETATM    2  C7  UNL     1      21.406 -32.819  14.429  1.00  0.00     0.040 C 
BRANCH   2   3
HETATM    3  C6  UNL     1      21.820 -31.387  14.393  1.00  0.00     0.133 C 
BRANCH   3   4
HETATM    4  N5  UNL     1      20.731 -30.442  14.288  1.00  0.00    -0.327 N 
HETATM    5  C3  UNL     1      19.861 -30.099  15.241  1.00  0.00     0.140 A 
HETATM    6  N3  UNL     1      19.672 -30.474  16.519  1.00  0.00    -0.336 N 
HETATM    7  C4  UNL     1      18.976 -29.141  14.744  1.00  0.00     0.122 A 
HETATM    8  C2  UNL     1      18.701 -29.976  17.294  1.00  0.00     0.183 A 
ATOM      9  H3  UNL     1      20.299 -31.173  16.916  1.00  0.00     0.168 HD
HETATM   10  N2  UNL     1      17.842 -29.050  16.822  1.00  0.00    -0.337 N 
HETATM   11  C1  UNL     1      17.990 -28.645  15.557  1.00  0.00     0.131 A 
ATOM     12  H2  UNL     1      17.102 -28.670  17.413  1.00  0.00     0.168 HD
HETATM   13  N1  UNL     1      17.166 -27.752  15.098  1.00  0.00    -0.383 N 
ATOM     14  H12 UNL     1      16.432 -27.383  15.702  1.00  0.00     0.157 HD
ATOM     15  H11 UNL     1      17.279 -27.444  14.132  1.00  0.00     0.157 HD
HETATM   16  N4  UNL     1      19.352 -28.932  13.477  1.00  0.00    -0.346 N 
HETATM   17  C5  UNL     1      20.407 -29.716  13.202  1.00  0.00     0.185 A 
ATOM     18  H4  UNL     1      18.909 -28.284  12.826  1.00  0.00     0.167 HD
ENDBRANCH   3   4
ENDBRANCH   2   3
ENDBRANCH   1   2
BRANCH   1  19
HETATM   19  N6  UNL     1      22.320 -32.775  16.698  1.00  0.00    -0.397 N 
HETATM   20  C9  UNL     1      21.785 -33.078  17.831  1.00  0.00     0.115 C 
ATOM     21  H6  UNL     1      22.917 -31.952  16.621  1.00  0.00     0.158 HD
BRANCH  20  22
HETATM   22  C10 UNL     1      21.985 -32.303  19.017  1.00  0.00     0.085 A 
HETATM   23  N7  UNL     1      22.378 -31.019  19.044  1.00  0.00    -0.305 N 
HETATM   24  C11 UNL     1      22.524 -30.346  20.208  1.00  0.00     0.327 A 
ATOM     25  H7  UNL     1      22.571 -30.538  18.165  1.00  0.00     0.171 HD
HETATM   26  O1  UNL     1      22.893 -29.137  20.221  1.00  0.00    -0.247 OA
HETATM   27  N8  UNL     1      22.293 -30.900  21.407  1.00  0.00    -0.273 N 
HETATM   28  C12 UNL     1      21.895 -32.195  21.446  1.00  0.00     0.279 A 
ATOM     29  H8  UNL     1      22.413 -30.362  22.265  1.00  0.00     0.173 HD
HETATM   30  O2  UNL     1      21.662 -32.777  22.539  1.00  0.00    -0.265 OA
HETATM   31  C13 UNL     1      21.744 -32.889  20.268  1.00  0.00     0.144 A 
BRANCH  31  32
HETATM   32  N9  UNL     1      21.332 -34.268  20.297  1.00  0.00    -0.300 N 
ATOM     33  H9  UNL     1      21.878 -34.999  19.843  1.00  0.00     0.186 HD
BRANCH  32  34
HETATM   34  N10 UNL     1      20.155 -34.551  20.973  1.00  0.00    -0.344 N 
ATOM     35 2H10 UNL     1      19.335 -33.953  20.868  1.00  0.00     0.176 HD
ATOM     36 1H10 UNL     1      20.158 -35.378  21.570  1.00  0.00     0.176 HD
ENDBRANCH  32  34
ENDBRANCH  31  32
ENDBRANCH  20  22
ENDBRANCH   1  19
TORSDOF 7
ENDMDL
MODEL 5
REMARK VINA RESULT: -7.743878380      1.109      1.206
REMARK  7 active torsions:
REMARK  status: ('A' for Active; 'I' for Inactive)
REMARK    1  A    between atoms: N5_15  and  C6_16 
REMARK    2  A    between atoms: C6_16  and  C7_17 
REMARK    3  A    between atoms: C7_17  and  C8_18 
REMARK    4  A    between atoms: C8_18  and  N6_19 
REMARK    5  A    between atoms: C9_21  and  C10_22 
REMARK    6  A    between atoms: C13_31  and  N9_32 
REMARK    7  A    between atoms: N9_32  and  N10_34 
ROOT
HETATM    1  C8  UNL     1      17.544 -29.467  16.122  1.00  0.00     0.120 C 
ENDROOT
BRANCH   1   2
HETATM    2  C7  UNL     1      16.659 -28.255  16.240  1.00  0.00     0.040 C 
BRANCH   2   3
HETATM    3  C6  UNL     1      15.520 -28.439  17.183  1.00  0.00     0.133 C 
BRANCH   3   4
HETATM    4  N5  UNL     1      15.595 -27.646  18.390  1.00  0.00    -0.327 N 
HETATM    5  C3  UNL     1      14.582 -27.255  19.167  1.00  0.00     0.140 A 
HETATM    6  N3  UNL     1      13.247 -27.416  19.121  1.00  0.00    -0.336 N 
HETATM    7  C4  UNL     1      15.076 -26.521  20.246  1.00  0.00     0.122 A 
HETATM    8  C2  UNL     1      12.415 -26.912  20.042  1.00  0.00     0.183 A 
ATOM      9  H3  UNL     1      12.849 -27.947  18.346  1.00  0.00     0.168 HD
HETATM   10  N2  UNL     1      12.884 -26.202  21.087  1.00  0.00    -0.337 N 
HETATM   11  C1  UNL     1      14.204 -26.015  21.176  1.00  0.00     0.131 A 
ATOM     12  H2  UNL     1      12.250 -25.818  21.788  1.00  0.00     0.168 HD
HETATM   13  N1  UNL     1      14.662 -25.333  22.182  1.00  0.00    -0.383 N 
ATOM     14  H12 UNL     1      14.013 -24.957  22.874  1.00  0.00     0.157 HD
ATOM     15  H11 UNL     1      15.669 -25.190  22.250  1.00  0.00     0.157 HD
HETATM   16  N4  UNL     1      16.403 -26.493  20.080  1.00  0.00    -0.346 N 
HETATM   17  C5  UNL     1      16.715 -27.169  18.962  1.00  0.00     0.185 A 
ATOM     18  H4  UNL     1      17.069 -26.033  20.701  1.00  0.00     0.167 HD
ENDBRANCH   3   4
ENDBRANCH   2   3
ENDBRANCH   1   2
BRANCH   1  19
HETATM   19  N6  UNL     1      18.437 -29.580  17.275  1.00  0.00    -0.397 N 
HETATM   20  C9  UNL     1      19.445 -30.381  17.237  1.00  0.00     0.115 C 
ATOM     21  H6  UNL     1      18.261 -29.022  18.111  1.00  0.00     0.158 HD
BRANCH  20  22
HETATM   22  C10 UNL     1      20.355 -30.540  18.330  1.00  0.00     0.085 A 
HETATM   23  N7  UNL     1      20.073 -30.270  19.616  1.00  0.00    -0.305 N 
HETATM   24  C11 UNL     1      20.982 -30.467  20.597  1.00  0.00     0.327 A 
ATOM     25  H7  UNL     1      19.150 -29.908  19.857  1.00  0.00     0.171 HD
HETATM   26  O1  UNL     1      20.704 -30.211  21.804  1.00  0.00    -0.247 OA
HETATM   27  N8  UNL     1      22.215 -30.938  20.369  1.00  0.00    -0.273 N 
HETATM   28  C12 UNL     1      22.562 -31.228  19.090  1.00  0.00     0.279 A 
ATOM     29  H8  UNL     1      22.875 -31.074  21.134  1.00  0.00     0.173 HD
HETATM   30  O2  UNL     1      23.705 -31.672  18.804  1.00  0.00    -0.265 OA
HETATM   31  C13 UNL     1      21.645 -31.031  18.084  1.00  0.00     0.144 A 
BRANCH  31  32
HETATM   32  N9  UNL     1      22.004 -31.325  16.721  1.00  0.00    -0.300 N 
ATOM     33  H9  UNL     1      21.957 -30.615  15.990  1.00  0.00     0.186 HD
BRANCH  32  34
HETATM   34  N10 UNL     1      22.415 -32.621  16.451  1.00  0.00    -0.344 N 
ATOM     35 2H10 UNL     1      21.931 -33.419  16.865  1.00  0.00     0.176 HD
ATOM     36 1H10 UNL     1      23.214 -32.728  15.827  1.00  0.00     0.176 HD
ENDBRANCH  32  34
ENDBRANCH  31  32
ENDBRANCH  20  22
ENDBRANCH   1  19
TORSDOF 7
ENDMDL
