MODEL 1
REMARK VINA RESULT: -7.914382284      0.000      0.000
REMARK  7 active torsions:
REMARK  status: ('A' for Active; 'I' for Inactive)
REMARK    1  A    between atoms: C2_2  and  C3_3 
REMARK    2  A    between atoms: C3_3  and  N1_4 
REMARK    3  A    between atoms: C4_5  and  N2_6 
REMARK    4  A    between atoms: C5_11  and  C6_12 
REMARK    5  A    between atoms: N4_14  and  N5_16 
REMARK    6  A    between atoms: N5_16  and  N6_18 
REMARK    7  A    between atoms: N6_18  and  C8_20 
ROOT
HETATM    1  N1  UNL     1      17.727 -30.143  17.838  1.00  0.00    -0.166 N 
HETATM    2  C4  UNL     1      17.339 -30.645  19.020  1.00  0.00     0.680 A 
HETATM    3  N3  UNL     1      16.480 -30.020  19.810  1.00  0.00    -0.189 N 
ATOM      4  H3  UNL     1      16.228 -30.457  20.696  1.00  0.00     0.184 HD
HETATM    5  C5  UNL     1      15.906 -28.793  19.488  1.00  0.00     0.092 A 
HETATM    6  C9  UNL     1      16.308 -28.289  18.273  1.00  0.00     0.108 A 
HETATM    7  C10 UNL     1      15.973 -27.170  17.593  1.00  0.00     0.276 A 
HETATM    8  O1  UNL     1      15.183 -26.275  17.951  1.00  0.00    -0.266 OA
HETATM    9  N11 UNL     1      16.652 -27.179  16.420  1.00  0.00    -0.264 N 
ATOM     10  H11 UNL     1      16.587 -26.448  15.711  1.00  0.00     0.190 HD
HETATM   11  N12 UNL     1      17.397 -28.236  16.316  1.00  0.00    -0.281 N 
ATOM     12  H12 UNL     1      18.003 -28.476  15.532  1.00  0.00     0.188 HD
HETATM   13  C11 UNL     1      17.217 -28.956  17.441  1.00  0.00     0.156 A 
ENDROOT
BRANCH   5  14
HETATM   14  C6  UNL     1      15.040 -28.192  20.450  1.00  0.00     0.051 C 
HETATM   15  C7  UNL     1      13.667 -28.364  20.858  1.00  0.00     0.072 C 
HETATM   16  N4  UNL     1      15.644 -27.190  21.117  1.00  0.00    -0.288 N 
ATOM     17  H4  UNL     1      16.611 -26.972  20.878  1.00  0.00     0.188 HD
BRANCH  16  18
HETATM   18  N5  UNL     1      15.047 -26.451  22.087  1.00  0.00    -0.228 N 
ATOM     19  H5  UNL     1      14.799 -26.909  22.965  1.00  0.00     0.209 HD
BRANCH  18  20
HETATM   20  N6  UNL     1      14.757 -25.097  21.939  1.00  0.00    -0.115 N 
ATOM     21  H6  UNL     1      14.366 -24.606  22.742  1.00  0.00     0.207 HD
BRANCH  20  22
HETATM   22  C8  UNL     1      14.944 -24.432  20.876  1.00  0.00     0.729 A 
HETATM   23  N7  UNL     1      16.097 -24.354  20.196  1.00  0.00    -0.114 N 
HETATM   24  N8  UNL     1      15.937 -23.575  19.137  1.00  0.00    -0.213 N 
ATOM     25  H7  UNL     1      16.965 -24.823  20.455  1.00  0.00     0.207 HD
HETATM   26  N9  UNL     1      14.689 -23.155  19.133  1.00  0.00    -0.213 N 
ATOM     27  H8  UNL     1      16.652 -23.343  18.447  1.00  0.00     0.210 HD
HETATM   28  N10 UNL     1      14.069 -23.674  20.196  1.00  0.00    -0.114 N 
ATOM     29  H9  UNL     1      14.267 -22.539  18.438  1.00  0.00     0.210 HD
ATOM     30  H10 UNL     1      13.092 -23.520  20.449  1.00  0.00     0.207 HD
ENDBRANCH  20  22
ENDBRANCH  18  20
ENDBRANCH  16  18
ENDBRANCH   5  14
BRANCH   2  31
HETATM   31  N2  UNL     1      17.869 -31.799  19.343  1.00  0.00    -0.234 N 
ATOM     32  H22 UNL     1      18.878 -31.947  19.354  1.00  0.00     0.174 HD
ATOM     33  H21 UNL     1      17.205 -32.535  19.579  1.00  0.00     0.174 HD
ENDBRANCH   2  31
BRANCH   1  34
HETATM   34  C3  UNL     1      18.650 -30.861  17.006  1.00  0.00     0.149 C 
BRANCH  34  35
HETATM   35  C2  UNL     1      20.068 -30.367  17.068  1.00  0.00     0.016 C 
HETATM   36  C1  UNL     1      20.654 -29.966  15.751  1.00  0.00     0.006 C 
ENDBRANCH  34  35
ENDBRANCH   1  34
TORSDOF 7
ENDMDL
MODEL 2
REMARK VINA RESULT: -7.594596935      1.862      3.300
REMARK  7 active torsions:
REMARK  status: ('A' for Active; 'I' for Inactive)
REMARK    1  A    between atoms: C2_2  and  C3_3 
REMARK    2  A    between atoms: C3_3  and  N1_4 
REMARK    3  A    between atoms: C4_5  and  N2_6 
REMARK    4  A    between atoms: C5_11  and  C6_12 
REMARK    5  A    between atoms: N4_14  and  N5_16 
REMARK    6  A    between atoms: N5_16  and  N6_18 
REMARK    7  A    between atoms: N6_18  and  C8_20 
ROOT
HETATM    1  N1  UNL     1      18.857 -30.443  15.490  1.00  0.00    -0.166 N 
HETATM    2  C4  UNL     1      18.376 -29.239  15.147  1.00  0.00     0.680 A 
HETATM    3  N3  UNL     1      17.617 -28.519  15.958  1.00  0.00    -0.189 N 
ATOM      4  H3  UNL     1      17.284 -27.611  15.634  1.00  0.00     0.184 HD
HETATM    5  C5  UNL     1      17.252 -28.944  17.233  1.00  0.00     0.092 A 
HETATM    6  C9  UNL     1      17.752 -30.179  17.575  1.00  0.00     0.108 A 
HETATM    7  C10 UNL     1      17.661 -30.920  18.702  1.00  0.00     0.276 A 
HETATM    8  O1  UNL     1      17.044 -30.637  19.747  1.00  0.00    -0.266 OA
HETATM    9  N11 UNL     1      18.375 -32.056  18.509  1.00  0.00    -0.264 N 
ATOM     10  H11 UNL     1      18.476 -32.798  19.202  1.00  0.00     0.190 HD
HETATM   11  N12 UNL     1      18.913 -32.079  17.329  1.00  0.00    -0.281 N 
ATOM     12  H12 UNL     1      19.495 -32.821  16.942  1.00  0.00     0.188 HD
HETATM   13  C11 UNL     1      18.556 -30.935  16.711  1.00  0.00     0.156 A 
ENDROOT
BRANCH   5  14
HETATM   14  C6  UNL     1      16.381 -28.104  17.989  1.00  0.00     0.051 C 
HETATM   15  C7  UNL     1      15.025 -27.629  17.853  1.00  0.00     0.072 C 
HETATM   16  N4  UNL     1      16.987 -27.598  19.079  1.00  0.00    -0.288 N 
ATOM     17  H4  UNL     1      17.961 -27.853  19.246  1.00  0.00     0.188 HD
BRANCH  16  18
HETATM   18  N5  UNL     1      16.386 -26.768  19.970  1.00  0.00    -0.228 N 
ATOM     19  H5  UNL     1      15.767 -27.175  20.673  1.00  0.00     0.209 HD
BRANCH  18  20
HETATM   20  N6  UNL     1      16.575 -25.388  19.969  1.00  0.00    -0.115 N 
ATOM     21  H6  UNL     1      17.533 -25.041  20.015  1.00  0.00     0.207 HD
BRANCH  20  22
HETATM   22  C8  UNL     1      15.640 -24.533  19.916  1.00  0.00     0.729 A 
HETATM   23  N7  UNL     1      15.431 -23.666  18.914  1.00  0.00    -0.114 N 
HETATM   24  N8  UNL     1      14.370 -22.922  19.185  1.00  0.00    -0.213 N 
ATOM     25  H7  UNL     1      16.002 -23.592  18.072  1.00  0.00     0.207 HD
HETATM   26  N9  UNL     1      13.898 -23.307  20.353  1.00  0.00    -0.213 N 
ATOM     27  H8  UNL     1      13.986 -22.183  18.595  1.00  0.00     0.210 HD
HETATM   28  N10 UNL     1      14.669 -24.295  20.812  1.00  0.00    -0.114 N 
ATOM     29  H9  UNL     1      13.083 -22.917  20.826  1.00  0.00     0.210 HD
ATOM     30  H10 UNL     1      14.542 -24.787  21.697  1.00  0.00     0.207 HD
ENDBRANCH  20  22
ENDBRANCH  18  20
ENDBRANCH  16  18
ENDBRANCH   5  14
BRANCH   2  31
HETATM   31  N2  UNL     1      18.707 -28.820  13.950  1.00  0.00    -0.234 N 
ATOM     32  H22 UNL     1      19.062 -29.454  13.233  1.00  0.00     0.174 HD
ATOM     33  H21 UNL     1      18.588 -27.821  13.787  1.00  0.00     0.174 HD
ENDBRANCH   2  31
BRANCH   1  34
HETATM   34  C3  UNL     1      19.688 -31.184  14.583  1.00  0.00     0.149 C 
BRANCH  34  35
HETATM   35  C2  UNL     1      21.147 -31.198  14.936  1.00  0.00     0.016 C 
HETATM   36  C1  UNL     1      21.990 -30.224  14.176  1.00  0.00     0.006 C 
ENDBRANCH  34  35
ENDBRANCH   1  34
TORSDOF 7
ENDMDL
MODEL 3
REMARK VINA RESULT: -7.557815349      4.349      7.439
REMARK  7 active torsions:
REMARK  status: ('A' for Active; 'I' for Inactive)
REMARK    1  A    between atoms: C2_2  and  C3_3 
REMARK    2  A    between atoms: C3_3  and  N1_4 
REMARK    3  A    between atoms: C4_5  and  N2_6 
REMARK    4  A    between atoms: C5_11  and  C6_12 
REMARK    5  A    between atoms: N4_14  and  N5_16 
REMARK    6  A    between atoms: N5_16  and  N6_18 
REMARK    7  A    between atoms: N6_18  and  C8_20 
ROOT
HETATM    1  N1  UNL     1       9.239 -28.604  22.317  1.00  0.00    -0.166 N 
HETATM    2  C4  UNL     1      10.119 -29.100  23.201  1.00  0.00     0.680 A 
HETATM    3  N3  UNL     1      11.351 -28.630  23.316  1.00  0.00    -0.189 N 
ATOM      4  H3  UNL     1      11.969 -29.053  24.008  1.00  0.00     0.184 HD
HETATM    5  C5  UNL     1      11.842 -27.585  22.538  1.00  0.00     0.092 A 
HETATM    6  C9  UNL     1      10.932 -27.083  21.638  1.00  0.00     0.108 A 
HETATM    7  C10 UNL     1      10.996 -26.073  20.741  1.00  0.00     0.276 A 
HETATM    8  O1  UNL     1      11.972 -25.335  20.501  1.00  0.00    -0.266 OA
HETATM    9  N11 UNL     1       9.791 -25.987  20.127  1.00  0.00    -0.264 N 
ATOM     10  H11 UNL     1       9.562 -25.308  19.401  1.00  0.00     0.190 HD
HETATM   11  N12 UNL     1       8.967 -26.880  20.581  1.00  0.00    -0.281 N 
ATOM     12  H12 UNL     1       8.002 -27.022  20.283  1.00  0.00     0.188 HD
HETATM   13  C11 UNL     1       9.628 -27.585  21.520  1.00  0.00     0.156 A 
ENDROOT
BRANCH   5  14
HETATM   14  C6  UNL     1      13.207 -27.209  22.717  1.00  0.00     0.051 C 
HETATM   15  C7  UNL     1      13.988 -26.618  23.776  1.00  0.00     0.072 C 
HETATM   16  N4  UNL     1      13.940 -27.424  21.608  1.00  0.00    -0.288 N 
ATOM     17  H4  UNL     1      13.468 -27.815  20.792  1.00  0.00     0.188 HD
BRANCH  16  18
HETATM   18  N5  UNL     1      15.266 -27.155  21.506  1.00  0.00    -0.228 N 
ATOM     19  H5  UNL     1      15.916 -27.680  22.091  1.00  0.00     0.209 HD
BRANCH  18  20
HETATM   20  N6  UNL     1      15.781 -26.193  20.639  1.00  0.00    -0.115 N 
ATOM     21  H6  UNL     1      16.701 -26.364  20.235  1.00  0.00     0.207 HD
BRANCH  20  22
HETATM   22  C8  UNL     1      15.186 -25.121  20.316  1.00  0.00     0.729 A 
HETATM   23  N7  UNL     1      14.661 -24.231  21.170  1.00  0.00    -0.114 N 
HETATM   24  N8  UNL     1      14.117 -23.232  20.493  1.00  0.00    -0.213 N 
ATOM     25  H7  UNL     1      14.678 -24.312  22.187  1.00  0.00     0.207 HD
HETATM   26  N9  UNL     1      14.291 -23.475  19.210  1.00  0.00    -0.213 N 
ATOM     27  H8  UNL     1      13.648 -22.419  20.893  1.00  0.00     0.210 HD
HETATM   28  N10 UNL     1      14.946 -24.632  19.089  1.00  0.00    -0.114 N 
ATOM     29  H9  UNL     1      13.980 -22.882  18.442  1.00  0.00     0.210 HD
ATOM     30  H10 UNL     1      15.219 -25.072  18.209  1.00  0.00     0.207 HD
ENDBRANCH  20  22
ENDBRANCH  18  20
ENDBRANCH  16  18
ENDBRANCH   5  14
BRANCH   2  31
HETATM   31  N2  UNL     1       9.676 -30.085  23.943  1.00  0.00    -0.234 N 
ATOM     32  H22 UNL     1       8.783 -30.541  23.761  1.00  0.00     0.174 HD
ATOM     33  H21 UNL     1      10.285 -30.360  24.714  1.00  0.00     0.174 HD
ENDBRANCH   2  31
BRANCH   1  34
HETATM   34  C3  UNL     1       7.908 -29.135  22.234  1.00  0.00     0.149 C 
BRANCH  34  35
HETATM   35  C2  UNL     1       6.845 -28.266  22.845  1.00  0.00     0.016 C 
HETATM   36  C1  UNL     1       6.290 -28.767  24.141  1.00  0.00     0.006 C 
ENDBRANCH  34  35
ENDBRANCH   1  34
TORSDOF 7
ENDMDL
MODEL 4
REMARK VINA RESULT: -7.540071700      4.097      6.890
REMARK  7 active torsions:
REMARK  status: ('A' for Active; 'I' for Inactive)
REMARK    1  A    between atoms: C2_2  and  C3_3 
REMARK    2  A    between atoms: C3_3  and  N1_4 
REMARK    3  A    between atoms: C4_5  and  N2_6 
REMARK    4  A    between atoms: C5_11  and  C6_12 
REMARK    5  A    between atoms: N4_14  and  N5_16 
REMARK    6  A    between atoms: N5_16  and  N6_18 
REMARK    7  A    between atoms: N6_18  and  C8_20 
ROOT
HETATM    1  N1  UNL     1       9.545 -29.783  21.166  1.00  0.00    -0.166 N 
HETATM    2  C4  UNL     1      10.728 -30.410  21.076  1.00  0.00     0.680 A 
HETATM    3  N3  UNL     1      11.864 -29.760  20.879  1.00  0.00    -0.189 N 
ATOM      4  H3  UNL     1      12.728 -30.298  20.821  1.00  0.00     0.184 HD
HETATM    5  C5  UNL     1      11.934 -28.375  20.749  1.00  0.00     0.092 A 
HETATM    6  C9  UNL     1      10.716 -27.742  20.845  1.00  0.00     0.108 A 
HETATM    7  C10 UNL     1      10.359 -26.439  20.806  1.00  0.00     0.276 A 
HETATM    8  O1  UNL     1      11.106 -25.455  20.642  1.00  0.00    -0.266 OA
HETATM    9  N11 UNL     1       9.017 -26.372  20.981  1.00  0.00    -0.264 N 
ATOM     10  H11 UNL     1       8.481 -25.504  20.994  1.00  0.00     0.190 HD
HETATM   11  N12 UNL     1       8.502 -27.554  21.130  1.00  0.00    -0.281 N 
ATOM     12  H12 UNL     1       7.517 -27.772  21.277  1.00  0.00     0.188 HD
HETATM   13  C11 UNL     1       9.517 -28.437  21.054  1.00  0.00     0.156 A 
ENDROOT
BRANCH   5  14
HETATM   14  C6  UNL     1      13.210 -27.797  20.481  1.00  0.00     0.051 C 
HETATM   15  C7  UNL     1      14.121 -27.772  19.362  1.00  0.00     0.072 C 
HETATM   16  N4  UNL     1      13.706 -27.146  21.550  1.00  0.00    -0.288 N 
ATOM     17  H4  UNL     1      13.145 -27.133  22.403  1.00  0.00     0.188 HD
BRANCH  16  18
HETATM   18  N5  UNL     1      14.903 -26.507  21.567  1.00  0.00    -0.228 N 
ATOM     19  H5  UNL     1      15.755 -27.066  21.514  1.00  0.00     0.209 HD
BRANCH  18  20
HETATM   20  N6  UNL     1      15.023 -25.121  21.653  1.00  0.00    -0.115 N 
ATOM     21  H6  UNL     1      15.179 -24.716  22.575  1.00  0.00     0.207 HD
BRANCH  20  22
HETATM   22  C8  UNL     1      14.951 -24.329  20.666  1.00  0.00     0.729 A 
HETATM   23  N7  UNL     1      15.936 -24.079  19.792  1.00  0.00    -0.114 N 
HETATM   24  N8  UNL     1      15.519 -23.205  18.889  1.00  0.00    -0.213 N 
ATOM     25  H7  UNL     1      16.866 -24.499  19.818  1.00  0.00     0.207 HD
HETATM   26  N9  UNL     1      14.273 -22.894  19.179  1.00  0.00    -0.213 N 
ATOM     27  H8  UNL     1      16.065 -22.837  18.109  1.00  0.00     0.210 HD
HETATM   28  N10 UNL     1      13.912 -23.578  20.267  1.00  0.00    -0.114 N 
ATOM     29  H9  UNL     1      13.683 -22.243  18.661  1.00  0.00     0.210 HD
ATOM     30  H10 UNL     1      12.999 -23.536  20.721  1.00  0.00     0.207 HD
ENDBRANCH  20  22
ENDBRANCH  18  20
ENDBRANCH  16  18
ENDBRANCH   5  14
BRANCH   2  31
HETATM   31  N2  UNL     1      10.684 -31.714  21.195  1.00  0.00    -0.234 N 
ATOM     32  H22 UNL     1      11.429 -32.242  21.650  1.00  0.00     0.174 HD
ATOM     33  H21 UNL     1       9.858 -32.163  20.800  1.00  0.00     0.174 HD
ENDBRANCH   2  31
BRANCH   1  34
HETATM   34  C3  UNL     1       8.339 -30.527  21.392  1.00  0.00     0.149 C 
BRANCH  34  35
HETATM   35  C2  UNL     1       7.894 -30.583  22.826  1.00  0.00     0.016 C 
HETATM   36  C1  UNL     1       7.253 -31.870  23.238  1.00  0.00     0.006 C 
ENDBRANCH  34  35
ENDBRANCH   1  34
TORSDOF 7
ENDMDL
MODEL 5
REMARK VINA RESULT: -7.505265419      3.515      6.445
REMARK  7 active torsions:
REMARK  status: ('A' for Active; 'I' for Inactive)
REMARK    1  A    between atoms: C2_2  and  C3_3 
REMARK    2  A    between atoms: C3_3  and  N1_4 
REMARK    3  A    between atoms: C4_5  and  N2_6 
REMARK    4  A    between atoms: C5_11  and  C6_12 
REMARK    5  A    between atoms: N4_14  and  N5_16 
REMARK    6  A    between atoms: N5_16  and  N6_18 
REMARK    7  A    between atoms: N6_18  and  C8_20 
ROOT
HETATM    1  N1  UNL     1      10.252 -29.527  21.031  1.00  0.00    -0.166 N 
HETATM    2  C4  UNL     1      11.260 -30.312  20.620  1.00  0.00     0.680 A 
HETATM    3  N3  UNL     1      12.403 -29.821  20.167  1.00  0.00    -0.189 N 
ATOM      4  H3  UNL     1      13.128 -30.473  19.870  1.00  0.00     0.184 HD
HETATM    5  C5  UNL     1      12.662 -28.455  20.079  1.00  0.00     0.092 A 
HETATM    6  C9  UNL     1      11.623 -27.661  20.505  1.00  0.00     0.108 A 
HETATM    7  C10 UNL     1      11.482 -26.321  20.609  1.00  0.00     0.276 A 
HETATM    8  O1  UNL     1      12.315 -25.446  20.301  1.00  0.00    -0.266 OA
HETATM    9  N11 UNL     1      10.253 -26.072  21.121  1.00  0.00    -0.264 N 
ATOM     10  H11 UNL     1       9.883 -25.139  21.304  1.00  0.00     0.190 HD
HETATM   11  N12 UNL     1       9.606 -27.174  21.350  1.00  0.00    -0.281 N 
ATOM     12  H12 UNL     1       8.665 -27.256  21.733  1.00  0.00     0.188 HD
HETATM   13  C11 UNL     1      10.416 -28.187  20.983  1.00  0.00     0.156 A 
ENDROOT
BRANCH   5  14
HETATM   14  C6  UNL     1      13.910 -28.051  19.518  1.00  0.00     0.051 C 
HETATM   15  C7  UNL     1      14.526 -28.107  18.215  1.00  0.00     0.072 C 
HETATM   16  N4  UNL     1      14.732 -27.522  20.444  1.00  0.00    -0.288 N 
ATOM     17  H4  UNL     1      14.395 -27.466  21.405  1.00  0.00     0.188 HD
BRANCH  16  18
HETATM   18  N5  UNL     1      15.980 -27.057  20.179  1.00  0.00    -0.228 N 
ATOM     19  H5  UNL     1      16.711 -27.730  19.946  1.00  0.00     0.209 HD
BRANCH  18  20
HETATM   20  N6  UNL     1      16.309 -25.704  20.212  1.00  0.00    -0.115 N 
ATOM     21  H6  UNL     1      17.292 -25.458  20.319  1.00  0.00     0.207 HD
BRANCH  20  22
HETATM   22  C8  UNL     1      15.471 -24.756  20.117  1.00  0.00     0.729 A 
HETATM   23  N7  UNL     1      15.125 -24.130  18.984  1.00  0.00    -0.114 N 
HETATM   24  N8  UNL     1      14.227 -23.194  19.250  1.00  0.00    -0.213 N 
ATOM     25  H7  UNL     1      15.496 -24.343  18.058  1.00  0.00     0.207 HD
HETATM   26  N9  UNL     1      13.996 -23.217  20.546  1.00  0.00    -0.213 N 
ATOM     27  H8  UNL     1      13.792 -22.566  18.572  1.00  0.00     0.210 HD
HETATM   28  N10 UNL     1      14.754 -24.172  21.090  1.00  0.00    -0.114 N 
ATOM     29  H9  UNL     1      13.349 -22.609  21.048  1.00  0.00     0.210 HD
ATOM     30  H10 UNL     1      14.783 -24.416  22.080  1.00  0.00     0.207 HD
ENDBRANCH  20  22
ENDBRANCH  18  20
ENDBRANCH  16  18
ENDBRANCH   5  14
BRANCH   2  31
HETATM   31  N2  UNL     1      11.037 -31.601  20.694  1.00  0.00    -0.234 N 
ATOM     32  H22 UNL     1      10.137 -31.979  20.988  1.00  0.00     0.174 HD
ATOM     33  H21 UNL     1      11.824 -32.197  20.441  1.00  0.00     0.174 HD
ENDBRANCH   2  31
BRANCH   1  34
HETATM   34  C3  UNL     1       9.034 -30.103  21.527  1.00  0.00     0.149 C 
BRANCH  34  35
HETATM   35  C2  UNL     1       8.929 -30.159  23.024  1.00  0.00     0.016 C 
HETATM   36  C1  UNL     1       7.838 -29.320  23.612  1.00  0.00     0.006 C 
ENDBRANCH  34  35
ENDBRANCH   1  34
TORSDOF 7
ENDMDL
