MODEL 1
REMARK VINA RESULT: -6.482609769      0.000      0.000
REMARK  6 active torsions:
REMARK  status: ('A' for Active; 'I' for Inactive)
REMARK    1  A    between atoms: C2_2  and  N1_3 
REMARK    2  A    between atoms: N1_3  and  S1_4 
REMARK    3  A    between atoms: N1_3  and  C3_8 
REMARK    4  A    between atoms: S1_4  and  N2_5 
REMARK    5  A    between atoms: C5_12  and  N4_13 
REMARK    6  A    between atoms: C10_22  and  N7_23 
ROOT
HETATM    1  C3  UNL     1      20.600 -31.503  17.924  1.00  0.00     0.185 A 
HETATM    2  N3  UNL     1      21.009 -31.746  16.654  1.00  0.00    -0.331 N 
ATOM      3  H3  UNL     1      21.581 -32.570  16.469  1.00  0.00     0.168 HD
HETATM    4  C4  UNL     1      20.684 -30.934  15.628  1.00  0.00     0.124 A 
HETATM    5  C5  UNL     1      21.106 -31.189  14.336  1.00  0.00     0.150 A 
HETATM    6  N6  UNL     1      20.738 -30.327  13.359  1.00  0.00    -0.175 N 
ATOM      7  H6  UNL     1      21.048 -30.512  12.406  1.00  0.00     0.186 HD
HETATM    8  C10 UNL     1      19.984 -29.237  13.588  1.00  0.00     0.679 A 
HETATM    9  N8  UNL     1      19.592 -29.020  14.848  1.00  0.00    -0.174 N 
ATOM     10  H8  UNL     1      19.019 -28.196  15.033  1.00  0.00     0.186 HD
HETATM   11  C11 UNL     1      19.903 -29.814  15.887  1.00  0.00     0.154 A 
HETATM   12  N9  UNL     1      19.479 -29.544  17.139  1.00  0.00    -0.304 N 
ATOM     13  H9  UNL     1      18.906 -28.723  17.330  1.00  0.00     0.171 HD
HETATM   14  C12 UNL     1      19.833 -30.388  18.133  1.00  0.00     0.292 A 
HETATM   15  O1  UNL     1      19.435 -30.124  19.282  1.00  0.00    -0.264 OA
ENDROOT
BRANCH   1  16
HETATM   16  N1  UNL     1      20.973 -32.396  18.942  1.00  0.00    -0.285 N 
BRANCH  16  17
HETATM   17  C2  UNL     1      20.207 -33.572  19.244  1.00  0.00     0.136 C 
HETATM   18  C1  UNL     1      19.478 -33.561  20.541  1.00  0.00     0.028 C 
ENDBRANCH  16  17
BRANCH  16  19
HETATM   19  S1  UNL     1      22.385 -32.073  19.877  1.00  0.00     0.064 SA
BRANCH  19  20
HETATM   20  N2  UNL     1      22.193 -30.677  20.879  1.00  0.00    -0.356 N 
ATOM     21  H22 UNL     1      21.437 -30.003  20.757  1.00  0.00     0.165 HD
ATOM     22  H21 UNL     1      22.919 -30.617  21.593  1.00  0.00     0.165 HD
ENDBRANCH  19  20
ENDBRANCH  16  19
ENDBRANCH   1  16
BRANCH   5  23
HETATM   23  N4  UNL     1      21.900 -32.317  14.036  1.00  0.00    -0.362 N 
HETATM   24  C6  UNL     1      23.320 -32.173  13.829  1.00  0.00     0.143 C 
HETATM   25  C7  UNL     1      24.048 -33.480  13.839  1.00  0.00     0.133 C 
HETATM   26  N5  UNL     1      23.389 -34.560  13.182  1.00  0.00    -0.418 N 
HETATM   27  C8  UNL     1      22.043 -34.308  12.769  1.00  0.00     0.133 C 
ATOM     28  H5  UNL     1      23.848 -35.455  13.016  1.00  0.00     0.153 HD
HETATM   29  C9  UNL     1      21.319 -33.633  13.926  1.00  0.00     0.143 C 
ENDBRANCH   5  23
BRANCH   8  30
HETATM   30  N7  UNL     1      19.664 -28.448  12.598  1.00  0.00    -0.234 N 
ATOM     31  H72 UNL     1      19.022 -28.721  11.856  1.00  0.00     0.174 HD
ATOM     32  H71 UNL     1      20.066 -27.512  12.546  1.00  0.00     0.174 HD
ENDBRANCH   8  30
TORSDOF 6
ENDMDL
MODEL 2
REMARK VINA RESULT: -6.437980185      3.089      5.928
REMARK  6 active torsions:
REMARK  status: ('A' for Active; 'I' for Inactive)
REMARK    1  A    between atoms: C2_2  and  N1_3 
REMARK    2  A    between atoms: N1_3  and  S1_4 
REMARK    3  A    between atoms: N1_3  and  C3_8 
REMARK    4  A    between atoms: S1_4  and  N2_5 
REMARK    5  A    between atoms: C5_12  and  N4_13 
REMARK    6  A    between atoms: C10_22  and  N7_23 
ROOT
HETATM    1  C3  UNL     1      21.123 -34.217  14.678  1.00  0.00     0.185 A 
HETATM    2  N3  UNL     1      20.833 -32.944  15.048  1.00  0.00    -0.331 N 
ATOM      3  H3  UNL     1      20.232 -32.380  14.446  1.00  0.00     0.168 HD
HETATM    4  C4  UNL     1      21.313 -32.401  16.184  1.00  0.00     0.124 A 
HETATM    5  C5  UNL     1      21.013 -31.102  16.553  1.00  0.00     0.150 A 
HETATM    6  N6  UNL     1      21.533 -30.628  17.709  1.00  0.00    -0.175 N 
ATOM      7  H6  UNL     1      21.314 -29.671  17.984  1.00  0.00     0.186 HD
HETATM    8  C10 UNL     1      22.326 -31.360  18.512  1.00  0.00     0.679 A 
HETATM    9  N8  UNL     1      22.596 -32.611  18.127  1.00  0.00    -0.174 N 
ATOM     10  H8  UNL     1      23.196 -33.175  18.729  1.00  0.00     0.186 HD
HETATM   11  C11 UNL     1      22.129 -33.175  16.999  1.00  0.00     0.154 A 
HETATM   12  N9  UNL     1      22.436 -34.445  16.661  1.00  0.00    -0.304 N 
ATOM     13  H9  UNL     1      23.035 -35.014  17.259  1.00  0.00     0.171 HD
HETATM   14  C12 UNL     1      21.931 -34.943  15.511  1.00  0.00     0.292 A 
HETATM   15  O1  UNL     1      22.224 -36.114  15.213  1.00  0.00    -0.264 OA
ENDROOT
BRANCH   1  16
HETATM   16  N1  UNL     1      20.582 -34.718  13.482  1.00  0.00    -0.285 N 
BRANCH  16  17
HETATM   17  C2  UNL     1      19.304 -35.371  13.437  1.00  0.00     0.136 C 
HETATM   18  C1  UNL     1      18.326 -34.962  14.480  1.00  0.00     0.028 C 
ENDBRANCH  16  17
BRANCH  16  19
HETATM   19  S1  UNL     1      21.479 -34.566  12.018  1.00  0.00     0.064 SA
BRANCH  19  20
HETATM   20  N2  UNL     1      22.895 -35.557  12.020  1.00  0.00    -0.356 N 
ATOM     21  H22 UNL     1      23.778 -35.268  12.441  1.00  0.00     0.165 HD
ATOM     22  H21 UNL     1      22.737 -36.451  11.554  1.00  0.00     0.165 HD
ENDBRANCH  19  20
ENDBRANCH  16  19
ENDBRANCH   1  16
BRANCH   5  23
HETATM   23  N4  UNL     1      20.187 -30.287  15.750  1.00  0.00    -0.362 N 
HETATM   24  C6  UNL     1      18.752 -30.367  15.867  1.00  0.00     0.143 C 
HETATM   25  C7  UNL     1      18.046 -29.234  15.192  1.00  0.00     0.133 C 
HETATM   26  N5  UNL     1      18.586 -28.827  13.937  1.00  0.00    -0.418 N 
HETATM   27  C8  UNL     1      19.838 -29.420  13.578  1.00  0.00     0.133 C 
ATOM     28  H5  UNL     1      18.111 -28.156  13.334  1.00  0.00     0.153 HD
HETATM   29  C9  UNL     1      20.748 -29.361  14.797  1.00  0.00     0.143 C 
ENDBRANCH   5  23
BRANCH   8  30
HETATM   30  N7  UNL     1      22.792 -30.839  19.615  1.00  0.00    -0.234 N 
ATOM     31  H72 UNL     1      22.583 -31.217  20.539  1.00  0.00     0.174 HD
ATOM     32  H71 UNL     1      23.394 -30.017  19.573  1.00  0.00     0.174 HD
ENDBRANCH   8  30
TORSDOF 6
ENDMDL
MODEL 3
REMARK VINA RESULT: -6.374231523      2.410      4.815
REMARK  6 active torsions:
REMARK  status: ('A' for Active; 'I' for Inactive)
REMARK    1  A    between atoms: C2_2  and  N1_3 
REMARK    2  A    between atoms: N1_3  and  S1_4 
REMARK    3  A    between atoms: N1_3  and  C3_8 
REMARK    4  A    between atoms: S1_4  and  N2_5 
REMARK    5  A    between atoms: C5_12  and  N4_13 
REMARK    6  A    between atoms: C10_22  and  N7_23 
ROOT
HETATM    1  C3  UNL     1      20.872 -31.019  17.779  1.00  0.00     0.185 A 
HETATM    2  N3  UNL     1      19.811 -30.390  17.214  1.00  0.00    -0.331 N 
ATOM      3  H3  UNL     1      18.981 -30.216  17.782  1.00  0.00     0.168 HD
HETATM    4  C4  UNL     1      19.817 -29.988  15.928  1.00  0.00     0.124 A 
HETATM    5  C5  UNL     1      18.731 -29.349  15.360  1.00  0.00     0.150 A 
HETATM    6  N6  UNL     1      18.814 -28.975  14.061  1.00  0.00    -0.175 N 
ATOM      7  H6  UNL     1      18.014 -28.503  13.640  1.00  0.00     0.186 HD
HETATM    8  C10 UNL     1      19.900 -29.197  13.301  1.00  0.00     0.679 A 
HETATM    9  N8  UNL     1      20.933 -29.817  13.881  1.00  0.00    -0.174 N 
ATOM     10  H8  UNL     1      21.763 -29.991  13.314  1.00  0.00     0.186 HD
HETATM   11  C11 UNL     1      20.951 -30.227  15.161  1.00  0.00     0.154 A 
HETATM   12  N9  UNL     1      22.023 -30.850  15.692  1.00  0.00    -0.304 N 
ATOM     13  H9  UNL     1      22.856 -31.026  15.131  1.00  0.00     0.171 HD
HETATM   14  C12 UNL     1      21.967 -31.235  16.986  1.00  0.00     0.292 A 
HETATM   15  O1  UNL     1      22.964 -31.808  17.461  1.00  0.00    -0.264 OA
ENDROOT
BRANCH   1  16
HETATM   16  N1  UNL     1      20.796 -31.405  19.128  1.00  0.00    -0.285 N 
BRANCH  16  17
HETATM   17  C2  UNL     1      20.322 -32.701  19.525  1.00  0.00     0.136 C 
HETATM   18  C1  UNL     1      21.283 -33.540  20.290  1.00  0.00     0.028 C 
ENDBRANCH  16  17
BRANCH  16  19
HETATM   19  S1  UNL     1      21.269 -30.292  20.356  1.00  0.00     0.064 SA
BRANCH  19  20
HETATM   20  N2  UNL     1      22.960 -29.937  20.290  1.00  0.00    -0.356 N 
ATOM     21  H22 UNL     1      23.675 -30.649  20.138  1.00  0.00     0.165 HD
ATOM     22  H21 UNL     1      23.147 -28.943  20.422  1.00  0.00     0.165 HD
ENDBRANCH  19  20
ENDBRANCH  16  19
ENDBRANCH   1  16
BRANCH   5  23
HETATM   23  N4  UNL     1      17.563 -29.088  16.109  1.00  0.00    -0.362 N 
HETATM   24  C6  UNL     1      16.877 -27.827  15.971  1.00  0.00     0.143 C 
HETATM   25  C7  UNL     1      15.510 -27.836  16.578  1.00  0.00     0.133 C 
HETATM   26  N5  UNL     1      15.388 -28.524  17.821  1.00  0.00    -0.418 N 
HETATM   27  C8  UNL     1      16.535 -29.276  18.229  1.00  0.00     0.133 C 
ATOM     28  H5  UNL     1      14.538 -28.483  18.383  1.00  0.00     0.153 HD
HETATM   29  C9  UNL     1      17.028 -30.066  17.025  1.00  0.00     0.143 C 
ENDBRANCH   5  23
BRANCH   8  30
HETATM   30  N7  UNL     1      19.913 -28.808  12.055  1.00  0.00    -0.234 N 
ATOM     31  H72 UNL     1      19.846 -29.457  11.271  1.00  0.00     0.174 HD
ATOM     32  H71 UNL     1      19.995 -27.816  11.833  1.00  0.00     0.174 HD
ENDBRANCH   8  30
TORSDOF 6
ENDMDL
MODEL 4
REMARK VINA RESULT: -6.217324627      6.826      8.742
REMARK  6 active torsions:
REMARK  status: ('A' for Active; 'I' for Inactive)
REMARK    1  A    between atoms: C2_2  and  N1_3 
REMARK    2  A    between atoms: N1_3  and  S1_4 
REMARK    3  A    between atoms: N1_3  and  C3_8 
REMARK    4  A    between atoms: S1_4  and  N2_5 
REMARK    5  A    between atoms: C5_12  and  N4_13 
REMARK    6  A    between atoms: C10_22  and  N7_23 
ROOT
HETATM    1  C3  UNL     1      15.122 -27.685  22.836  1.00  0.00     0.185 A 
HETATM    2  N3  UNL     1      15.348 -27.587  21.502  1.00  0.00    -0.331 N 
ATOM      3  H3  UNL     1      15.658 -28.414  20.992  1.00  0.00     0.168 HD
HETATM    4  C4  UNL     1      15.176 -26.432  20.829  1.00  0.00     0.124 A 
HETATM    5  C5  UNL     1      15.409 -26.341  19.469  1.00  0.00     0.150 A 
HETATM    6  N6  UNL     1      15.213 -25.146  18.863  1.00  0.00    -0.175 N 
ATOM      7  H6  UNL     1      15.384 -25.076  17.861  1.00  0.00     0.186 HD
HETATM    8  C10 UNL     1      14.804 -24.048  19.522  1.00  0.00     0.679 A 
HETATM    9  N8  UNL     1      14.587 -24.170  20.836  1.00  0.00    -0.174 N 
ATOM     10  H8  UNL     1      14.276 -23.343  21.346  1.00  0.00     0.186 HD
HETATM   11  C11 UNL     1      14.751 -25.310  21.529  1.00  0.00     0.154 A 
HETATM   12  N9  UNL     1      14.518 -25.374  22.857  1.00  0.00    -0.304 N 
ATOM     13  H9  UNL     1      14.206 -24.551  23.372  1.00  0.00     0.171 HD
HETATM   14  C12 UNL     1      14.706 -26.554  23.486  1.00  0.00     0.292 A 
HETATM   15  O1  UNL     1      14.486 -26.596  24.710  1.00  0.00    -0.264 OA
ENDROOT
BRANCH   1  16
HETATM   16  N1  UNL     1      15.317 -28.923  23.470  1.00  0.00    -0.285 N 
BRANCH  16  17
HETATM   17  C2  UNL     1      14.294 -29.929  23.512  1.00  0.00     0.136 C 
HETATM   18  C1  UNL     1      13.535 -30.035  24.788  1.00  0.00     0.028 C 
ENDBRANCH  16  17
BRANCH  16  19
HETATM   19  S1  UNL     1      16.824 -29.252  24.241  1.00  0.00     0.064 SA
BRANCH  19  20
HETATM   20  N2  UNL     1      17.122 -28.181  25.565  1.00  0.00    -0.356 N 
ATOM     21  H22 UNL     1      17.408 -27.210  25.443  1.00  0.00     0.165 HD
ATOM     22  H21 UNL     1      16.977 -28.638  26.465  1.00  0.00     0.165 HD
ENDBRANCH  19  20
ENDBRANCH  16  19
ENDBRANCH   1  16
BRANCH   5  23
HETATM   23  N4  UNL     1      15.840 -27.461  18.725  1.00  0.00    -0.362 N 
HETATM   24  C6  UNL     1      17.151 -28.019  18.945  1.00  0.00     0.143 C 
HETATM   25  C7  UNL     1      17.324 -29.367  18.319  1.00  0.00     0.133 C 
HETATM   26  N5  UNL     1      16.744 -29.529  17.028  1.00  0.00    -0.418 N 
HETATM   27  C8  UNL     1      15.912 -28.455  16.581  1.00  0.00     0.133 C 
ATOM     28  H5  UNL     1      16.912 -30.358  16.458  1.00  0.00     0.153 HD
HETATM   29  C9  UNL     1      14.991 -28.070  17.730  1.00  0.00     0.143 C 
ENDBRANCH   5  23
BRANCH   8  30
HETATM   30  N7  UNL     1      14.634 -22.926  18.875  1.00  0.00    -0.234 N 
ATOM     31  H72 UNL     1      14.292 -22.886  17.916  1.00  0.00     0.174 HD
ATOM     32  H71 UNL     1      14.848 -22.039  19.331  1.00  0.00     0.174 HD
ENDBRANCH   8  30
TORSDOF 6
ENDMDL
MODEL 5
REMARK VINA RESULT: -6.179851306      7.003      8.874
REMARK  6 active torsions:
REMARK  status: ('A' for Active; 'I' for Inactive)
REMARK    1  A    between atoms: C2_2  and  N1_3 
REMARK    2  A    between atoms: N1_3  and  S1_4 
REMARK    3  A    between atoms: N1_3  and  C3_8 
REMARK    4  A    between atoms: S1_4  and  N2_5 
REMARK    5  A    between atoms: C5_12  and  N4_13 
REMARK    6  A    between atoms: C10_22  and  N7_23 
ROOT
HETATM    1  C3  UNL     1      15.097 -27.685  22.827  1.00  0.00     0.185 A 
HETATM    2  N3  UNL     1      15.333 -27.587  21.495  1.00  0.00    -0.331 N 
ATOM      3  H3  UNL     1      15.642 -28.415  20.986  1.00  0.00     0.168 HD
HETATM    4  C4  UNL     1      15.171 -26.430  20.822  1.00  0.00     0.124 A 
HETATM    5  C5  UNL     1      15.414 -26.339  19.464  1.00  0.00     0.150 A 
HETATM    6  N6  UNL     1      15.228 -25.142  18.859  1.00  0.00    -0.175 N 
ATOM      7  H6  UNL     1      15.406 -25.071  17.857  1.00  0.00     0.186 HD
HETATM    8  C10 UNL     1      14.820 -24.042  19.516  1.00  0.00     0.679 A 
HETATM    9  N8  UNL     1      14.593 -24.165  20.828  1.00  0.00    -0.174 N 
ATOM     10  H8  UNL     1      14.283 -23.337  21.338  1.00  0.00     0.186 HD
HETATM   11  C11 UNL     1      14.747 -25.307  21.521  1.00  0.00     0.154 A 
HETATM   12  N9  UNL     1      14.505 -25.371  22.847  1.00  0.00    -0.304 N 
ATOM     13  H9  UNL     1      14.194 -24.547  23.361  1.00  0.00     0.171 HD
HETATM   14  C12 UNL     1      14.683 -26.553  23.476  1.00  0.00     0.292 A 
HETATM   15  O1  UNL     1      14.455 -26.596  24.698  1.00  0.00    -0.264 OA
ENDROOT
BRANCH   1  16
HETATM   16  N1  UNL     1      15.282 -28.926  23.461  1.00  0.00    -0.285 N 
BRANCH  16  17
HETATM   17  C2  UNL     1      16.579 -29.389  23.868  1.00  0.00     0.136 C 
HETATM   18  C1  UNL     1      17.052 -28.918  25.197  1.00  0.00     0.028 C 
ENDBRANCH  16  17
BRANCH  16  19
HETATM   19  S1  UNL     1      13.919 -29.940  23.754  1.00  0.00     0.064 SA
BRANCH  19  20
HETATM   20  N2  UNL     1      12.882 -29.293  24.977  1.00  0.00    -0.356 N 
ATOM     21  H22 UNL     1      13.057 -28.404  25.444  1.00  0.00     0.165 HD
ATOM     22  H21 UNL     1      12.089 -29.906  25.167  1.00  0.00     0.165 HD
ENDBRANCH  19  20
ENDBRANCH  16  19
ENDBRANCH   1  16
BRANCH   5  23
HETATM   23  N4  UNL     1      15.844 -27.459  18.721  1.00  0.00    -0.362 N 
HETATM   24  C6  UNL     1      17.153 -28.022  18.946  1.00  0.00     0.143 C 
HETATM   25  C7  UNL     1      17.324 -29.370  18.320  1.00  0.00     0.133 C 
HETATM   26  N5  UNL     1      16.748 -29.531  17.027  1.00  0.00    -0.418 N 
HETATM   27  C8  UNL     1      15.920 -28.454  16.578  1.00  0.00     0.133 C 
ATOM     28  H5  UNL     1      16.915 -30.360  16.458  1.00  0.00     0.153 HD
HETATM   29  C9  UNL     1      14.996 -28.067  17.724  1.00  0.00     0.143 C 
ENDBRANCH   5  23
BRANCH   8  30
HETATM   30  N7  UNL     1      14.660 -22.919  18.870  1.00  0.00    -0.234 N 
ATOM     31  H72 UNL     1      14.203 -22.104  19.278  1.00  0.00     0.174 HD
ATOM     32  H71 UNL     1      14.998 -22.833  17.911  1.00  0.00     0.174 HD
ENDBRANCH   8  30
TORSDOF 6
ENDMDL
