MODEL 1
REMARK VINA RESULT: -7.239348645      0.000      0.000
REMARK  4 active torsions:
REMARK  status: ('A' for Active; 'I' for Inactive)
REMARK    1  A    between atoms: N1_1  and  C1_4 
REMARK    2  A    between atoms: C2_10  and  C3_11 
REMARK    3  A    between atoms: C4_14  and  N5_15 
REMARK    4  A    between atoms: N6_18  and  N7_19 
ROOT
HETATM    1  C3  UNL     1     -22.387 -18.887 -21.075  1.00  0.00     0.126 A 
HETATM    2  N4  UNL     1     -23.025 -19.658 -22.022  1.00  0.00    -0.183 N 
ATOM      3  H4  UNL     1     -23.891 -20.131 -21.763  1.00  0.00     0.184 HD
HETATM    4  C4  UNL     1     -22.559 -19.814 -23.262  1.00  0.00     0.713 A 
HETATM    5  N6  UNL     1     -21.427 -19.218 -23.661  1.00  0.00    -0.021 N 
HETATM    6  N8  UNL     1     -20.795 -18.476 -22.782  1.00  0.00    -0.248 N 
ATOM      7  H8  UNL     1     -19.931 -18.013 -23.064  1.00  0.00     0.191 HD
HETATM    8  C9  UNL     1     -21.252 -18.296 -21.493  1.00  0.00     0.146 A 
HETATM    9  N9  UNL     1     -20.555 -17.561 -20.743  1.00  0.00    -0.382 N 
ATOM     10  H91 UNL     1     -19.695 -17.114 -21.059  1.00  0.00     0.157 HD
ATOM     11  H92 UNL     1     -20.893 -17.428 -19.790  1.00  0.00     0.157 HD
ENDROOT
BRANCH   1  12
HETATM   12  C2  UNL     1     -22.985 -18.796 -19.777  1.00  0.00     0.133 A 
HETATM   13  C1  UNL     1     -22.739 -19.309 -18.553  1.00  0.00     0.152 A 
HETATM   14  N2  UNL     1     -23.695 -18.840 -17.674  1.00  0.00    -0.224 N 
HETATM   15  O1  UNL     1     -24.480 -18.082 -18.326  1.00  0.00    -0.155 OA
ATOM     16  H2  UNL     1     -23.759 -19.062 -16.680  1.00  0.00     0.198 HD
HETATM   17  N3  UNL     1     -24.117 -18.017 -19.559  1.00  0.00    -0.236 N 
ATOM     18  H3  UNL     1     -24.593 -17.470 -20.277  1.00  0.00     0.197 HD
BRANCH  13  19
HETATM   19  N1  UNL     1     -21.792 -20.097 -18.231  1.00  0.00    -0.382 N 
ATOM     20  H12 UNL     1     -21.873 -20.967 -17.703  1.00  0.00     0.157 HD
ATOM     21  H11 UNL     1     -20.812 -19.947 -18.469  1.00  0.00     0.157 HD
ENDBRANCH  13  19
ENDBRANCH   1  12
BRANCH   4  22
HETATM   22  N5  UNL     1     -23.230 -20.560 -24.097  1.00  0.00    -0.232 N 
ATOM     23  H52 UNL     1     -23.566 -21.477 -23.803  1.00  0.00     0.174 HD
ATOM     24  H51 UNL     1     -23.404 -20.209 -25.038  1.00  0.00     0.174 HD
ENDBRANCH   4  22
BRANCH   5  25
HETATM   25  N7  UNL     1     -20.887 -19.352 -24.945  1.00  0.00    -0.292 N 
HETATM   26  C5  UNL     1     -19.599 -18.780 -25.357  1.00  0.00     0.145 C 
HETATM   27  C6  UNL     1     -19.758 -18.673 -26.865  1.00  0.00     0.023 C 
HETATM   28  C7  UNL     1     -20.449 -19.973 -27.176  1.00  0.00     0.023 C 
HETATM   29  C8  UNL     1     -21.482 -20.059 -26.049  1.00  0.00     0.145 C 
ENDBRANCH   5  25
TORSDOF 4
ENDMDL
MODEL 2
REMARK VINA RESULT: -7.006314066      2.565      6.650
REMARK  4 active torsions:
REMARK  status: ('A' for Active; 'I' for Inactive)
REMARK    1  A    between atoms: N1_1  and  C1_4 
REMARK    2  A    between atoms: C2_10  and  C3_11 
REMARK    3  A    between atoms: C4_14  and  N5_15 
REMARK    4  A    between atoms: N6_18  and  N7_19 
ROOT
HETATM    1  C3  UNL     1     -21.546 -19.315 -23.881  1.00  0.00     0.126 A 
HETATM    2  N4  UNL     1     -20.915 -18.523 -22.947  1.00  0.00    -0.183 N 
ATOM      3  H4  UNL     1     -20.073 -18.018 -23.223  1.00  0.00     0.184 HD
HETATM    4  C4  UNL     1     -21.358 -18.387 -21.695  1.00  0.00     0.713 A 
HETATM    5  N6  UNL     1     -22.459 -19.023 -21.274  1.00  0.00    -0.021 N 
HETATM    6  N8  UNL     1     -23.083 -19.786 -22.140  1.00  0.00    -0.248 N 
ATOM      7  H8  UNL     1     -23.923 -20.281 -21.840  1.00  0.00     0.191 HD
HETATM    8  C9  UNL     1     -22.649 -19.947 -23.440  1.00  0.00     0.146 A 
HETATM    9  N9  UNL     1     -23.334 -20.707 -24.175  1.00  0.00    -0.382 N 
ATOM     10  H91 UNL     1     -24.169 -21.187 -23.841  1.00  0.00     0.157 HD
ATOM     11  H92 UNL     1     -23.013 -20.826 -25.136  1.00  0.00     0.157 HD
ENDROOT
BRANCH   1  12
HETATM   12  C2  UNL     1     -20.975 -19.380 -25.193  1.00  0.00     0.133 A 
HETATM   13  C1  UNL     1     -19.830 -18.973 -25.779  1.00  0.00     0.152 A 
HETATM   14  N2  UNL     1     -19.856 -19.337 -27.110  1.00  0.00    -0.224 N 
HETATM   15  O1  UNL     1     -20.957 -19.936 -27.324  1.00  0.00    -0.155 OA
ATOM     16  H2  UNL     1     -19.124 -19.159 -27.798  1.00  0.00     0.198 HD
HETATM   17  N3  UNL     1     -21.653 -19.992 -26.243  1.00  0.00    -0.236 N 
ATOM     18  H3  UNL     1     -22.574 -20.424 -26.166  1.00  0.00     0.197 HD
BRANCH  13  19
HETATM   19  N1  UNL     1     -18.866 -18.352 -25.223  1.00  0.00    -0.382 N 
ATOM     20  H12 UNL     1     -18.548 -17.405 -25.431  1.00  0.00     0.157 HD
ATOM     21  H11 UNL     1     -18.281 -18.740 -24.484  1.00  0.00     0.157 HD
ENDBRANCH  13  19
ENDBRANCH   1  12
BRANCH   4  22
HETATM   22  N5  UNL     1     -20.701 -17.612 -20.877  1.00  0.00    -0.232 N 
ATOM     23  H52 UNL     1     -20.197 -18.016 -20.087  1.00  0.00     0.174 HD
ATOM     24  H51 UNL     1     -20.708 -16.605 -21.041  1.00  0.00     0.174 HD
ENDBRANCH   4  22
BRANCH   5  25
HETATM   25  N7  UNL     1     -22.965 -18.926 -19.972  1.00  0.00    -0.292 N 
HETATM   26  C5  UNL     1     -24.158 -18.151 -19.611  1.00  0.00     0.145 C 
HETATM   27  C6  UNL     1     -23.932 -17.875 -18.133  1.00  0.00     0.023 C 
HETATM   28  C7  UNL     1     -23.393 -19.202 -17.672  1.00  0.00     0.023 C 
HETATM   29  C8  UNL     1     -22.420 -19.558 -18.798  1.00  0.00     0.145 C 
ENDBRANCH   5  25
TORSDOF 4
ENDMDL
MODEL 3
REMARK VINA RESULT: -6.983794949      0.679      1.281
REMARK  4 active torsions:
REMARK  status: ('A' for Active; 'I' for Inactive)
REMARK    1  A    between atoms: N1_1  and  C1_4 
REMARK    2  A    between atoms: C2_10  and  C3_11 
REMARK    3  A    between atoms: C4_14  and  N5_15 
REMARK    4  A    between atoms: N6_18  and  N7_19 
ROOT
HETATM    1  C3  UNL     1     -22.387 -18.934 -21.131  1.00  0.00     0.126 A 
HETATM    2  N4  UNL     1     -23.020 -19.687 -22.095  1.00  0.00    -0.183 N 
ATOM      3  H4  UNL     1     -23.891 -20.159 -21.852  1.00  0.00     0.184 HD
HETATM    4  C4  UNL     1     -22.543 -19.826 -23.334  1.00  0.00     0.713 A 
HETATM    5  N6  UNL     1     -21.405 -19.230 -23.713  1.00  0.00    -0.021 N 
HETATM    6  N8  UNL     1     -20.777 -18.506 -22.817  1.00  0.00    -0.248 N 
ATOM      7  H8  UNL     1     -19.907 -18.044 -23.084  1.00  0.00     0.191 HD
HETATM    8  C9  UNL     1     -21.244 -18.343 -21.529  1.00  0.00     0.146 A 
HETATM    9  N9  UNL     1     -20.550 -17.624 -20.761  1.00  0.00    -0.382 N 
ATOM     10  H91 UNL     1     -19.685 -17.177 -21.063  1.00  0.00     0.157 HD
ATOM     11  H92 UNL     1     -20.896 -17.504 -19.809  1.00  0.00     0.157 HD
ENDROOT
BRANCH   1  12
HETATM   12  C2  UNL     1     -22.996 -18.860 -19.837  1.00  0.00     0.133 A 
HETATM   13  C1  UNL     1     -23.796 -17.991 -19.185  1.00  0.00     0.152 A 
HETATM   14  N2  UNL     1     -24.055 -18.485 -17.923  1.00  0.00    -0.224 N 
HETATM   15  O1  UNL     1     -23.447 -19.596 -17.811  1.00  0.00    -0.155 OA
ATOM     16  H2  UNL     1     -24.630 -18.040 -17.208  1.00  0.00     0.198 HD
HETATM   17  N3  UNL     1     -22.811 -19.868 -18.896  1.00  0.00    -0.236 N 
ATOM     18  H3  UNL     1     -22.249 -20.707 -19.046  1.00  0.00     0.197 HD
BRANCH  13  19
HETATM   19  N1  UNL     1     -24.252 -16.889 -19.632  1.00  0.00    -0.382 N 
ATOM     20  H12 UNL     1     -24.024 -15.952 -19.299  1.00  0.00     0.157 HD
ATOM     21  H11 UNL     1     -24.920 -16.811 -20.399  1.00  0.00     0.157 HD
ENDBRANCH  13  19
ENDBRANCH   1  12
BRANCH   4  22
HETATM   22  N5  UNL     1     -23.211 -20.555 -24.186  1.00  0.00    -0.232 N 
ATOM     23  H52 UNL     1     -24.187 -20.338 -24.386  1.00  0.00     0.174 HD
ATOM     24  H51 UNL     1     -22.739 -21.338 -24.638  1.00  0.00     0.174 HD
ENDBRANCH   4  22
BRANCH   5  25
HETATM   25  N7  UNL     1     -20.853 -19.348 -24.994  1.00  0.00    -0.292 N 
HETATM   26  C5  UNL     1     -19.603 -18.700 -25.412  1.00  0.00     0.145 C 
HETATM   27  C6  UNL     1     -19.764 -18.624 -26.921  1.00  0.00     0.023 C 
HETATM   28  C7  UNL     1     -20.370 -19.970 -27.215  1.00  0.00     0.023 C 
HETATM   29  C8  UNL     1     -21.398 -20.107 -26.089  1.00  0.00     0.145 C 
ENDBRANCH   5  25
TORSDOF 4
ENDMDL
MODEL 4
REMARK VINA RESULT: -6.794204304      2.651      6.752
REMARK  4 active torsions:
REMARK  status: ('A' for Active; 'I' for Inactive)
REMARK    1  A    between atoms: N1_1  and  C1_4 
REMARK    2  A    between atoms: C2_10  and  C3_11 
REMARK    3  A    between atoms: C4_14  and  N5_15 
REMARK    4  A    between atoms: N6_18  and  N7_19 
ROOT
HETATM    1  C3  UNL     1     -21.583 -19.382 -24.091  1.00  0.00     0.126 A 
HETATM    2  N4  UNL     1     -20.957 -18.548 -23.191  1.00  0.00    -0.183 N 
ATOM      3  H4  UNL     1     -20.132 -18.032 -23.496  1.00  0.00     0.184 HD
HETATM    4  C4  UNL     1     -21.383 -18.385 -21.937  1.00  0.00     0.713 A 
HETATM    5  N6  UNL     1     -22.461 -19.035 -21.479  1.00  0.00    -0.021 N 
HETATM    6  N8  UNL     1     -23.080 -19.838 -22.311  1.00  0.00    -0.248 N 
ATOM      7  H8  UNL     1     -23.903 -20.344 -21.983  1.00  0.00     0.191 HD
HETATM    8  C9  UNL     1     -22.663 -20.027 -23.613  1.00  0.00     0.146 A 
HETATM    9  N9  UNL     1     -23.341 -20.825 -24.314  1.00  0.00    -0.382 N 
ATOM     10  H91 UNL     1     -24.159 -21.314 -23.952  1.00  0.00     0.157 HD
ATOM     11  H92 UNL     1     -23.033 -20.965 -25.276  1.00  0.00     0.157 HD
ENDROOT
BRANCH   1  12
HETATM   12  C2  UNL     1     -21.032 -19.473 -25.410  1.00  0.00     0.133 A 
HETATM   13  C1  UNL     1     -21.517 -19.530 -26.667  1.00  0.00     0.152 A 
HETATM   14  N2  UNL     1     -20.459 -19.611 -27.550  1.00  0.00    -0.224 N 
HETATM   15  O1  UNL     1     -19.387 -19.604 -26.868  1.00  0.00    -0.155 OA
ATOM     16  H2  UNL     1     -20.526 -19.667 -28.566  1.00  0.00     0.198 HD
HETATM   17  N3  UNL     1     -19.656 -19.525 -25.612  1.00  0.00    -0.236 N 
ATOM     18  H3  UNL     1     -18.958 -19.503 -24.868  1.00  0.00     0.197 HD
BRANCH  13  19
HETATM   19  N1  UNL     1     -22.743 -19.514 -27.014  1.00  0.00    -0.382 N 
ATOM     20  H12 UNL     1     -23.130 -19.120 -27.872  1.00  0.00     0.157 HD
ATOM     21  H11 UNL     1     -23.504 -19.903 -26.458  1.00  0.00     0.157 HD
ENDBRANCH  13  19
ENDBRANCH   1  12
BRANCH   4  22
HETATM   22  N5  UNL     1     -20.732 -17.571 -21.152  1.00  0.00    -0.232 N 
ATOM     23  H52 UNL     1     -20.529 -17.844 -20.191  1.00  0.00     0.174 HD
ATOM     24  H51 UNL     1     -20.439 -16.665 -21.518  1.00  0.00     0.174 HD
ENDBRANCH   4  22
BRANCH   5  25
HETATM   25  N7  UNL     1     -22.949 -18.911 -20.172  1.00  0.00    -0.292 N 
HETATM   26  C5  UNL     1     -24.119 -18.105 -19.805  1.00  0.00     0.145 C 
HETATM   27  C6  UNL     1     -23.869 -17.817 -18.334  1.00  0.00     0.023 C 
HETATM   28  C7  UNL     1     -23.354 -19.151 -17.863  1.00  0.00     0.023 C 
HETATM   29  C8  UNL     1     -22.403 -19.541 -18.997  1.00  0.00     0.145 C 
ENDBRANCH   5  25
TORSDOF 4
ENDMDL
MODEL 5
REMARK VINA RESULT: -6.409437356      1.154      1.154
REMARK  4 active torsions:
REMARK  status: ('A' for Active; 'I' for Inactive)
REMARK    1  A    between atoms: N1_1  and  C1_4 
REMARK    2  A    between atoms: C2_10  and  C3_11 
REMARK    3  A    between atoms: C4_14  and  N5_15 
REMARK    4  A    between atoms: N6_18  and  N7_19 
ROOT
HETATM    1  C3  UNL     1     -22.464 -18.372 -20.887  1.00  0.00     0.126 A 
HETATM    2  N4  UNL     1     -23.171 -18.111 -22.040  1.00  0.00    -0.183 N 
ATOM      3  H4  UNL     1     -24.112 -17.726 -21.959  1.00  0.00     0.184 HD
HETATM    4  C4  UNL     1     -22.678 -18.339 -23.259  1.00  0.00     0.713 A 
HETATM    5  N6  UNL     1     -21.448 -18.842 -23.429  1.00  0.00    -0.021 N 
HETATM    6  N8  UNL     1     -20.748 -19.103 -22.350  1.00  0.00    -0.248 N 
ATOM      7  H8  UNL     1     -19.809 -19.487 -22.456  1.00  0.00     0.191 HD
HETATM    8  C9  UNL     1     -21.231 -18.878 -21.077  1.00  0.00     0.146 A 
HETATM    9  N9  UNL     1     -20.464 -19.170 -20.121  1.00  0.00    -0.382 N 
ATOM     10  H91 UNL     1     -19.530 -19.554 -20.265  1.00  0.00     0.157 HD
ATOM     11  H92 UNL     1     -20.820 -19.004 -19.180  1.00  0.00     0.157 HD
ENDROOT
BRANCH   1  12
HETATM   12  C2  UNL     1     -23.100 -18.085 -19.636  1.00  0.00     0.133 A 
HETATM   13  C1  UNL     1     -23.518 -18.798 -18.569  1.00  0.00     0.152 A 
HETATM   14  N2  UNL     1     -24.071 -17.934 -17.646  1.00  0.00    -0.224 N 
HETATM   15  O1  UNL     1     -23.995 -16.758 -18.123  1.00  0.00    -0.155 OA
ATOM     16  H2  UNL     1     -24.471 -18.192 -16.743  1.00  0.00     0.198 HD
HETATM   17  N3  UNL     1     -23.437 -16.782 -19.283  1.00  0.00    -0.236 N 
ATOM     18  H3  UNL     1     -23.266 -15.961 -19.863  1.00  0.00     0.197 HD
BRANCH  13  19
HETATM   19  N1  UNL     1     -23.431 -20.059 -18.411  1.00  0.00    -0.382 N 
ATOM     20  H12 UNL     1     -24.127 -20.757 -18.672  1.00  0.00     0.157 HD
ATOM     21  H11 UNL     1     -22.631 -20.532 -17.991  1.00  0.00     0.157 HD
ENDBRANCH  13  19
ENDBRANCH   1  12
BRANCH   4  22
HETATM   22  N5  UNL     1     -23.415 -18.057 -24.298  1.00  0.00    -0.232 N 
ATOM     23  H52 UNL     1     -23.678 -17.090 -24.488  1.00  0.00     0.174 HD
ATOM     24  H51 UNL     1     -23.721 -18.818 -24.904  1.00  0.00     0.174 HD
ENDBRANCH   4  22
BRANCH   5  25
HETATM   25  N7  UNL     1     -20.882 -19.110 -24.681  1.00  0.00    -0.292 N 
HETATM   26  C5  UNL     1     -19.660 -18.471 -25.184  1.00  0.00     0.145 C 
HETATM   27  C6  UNL     1     -19.814 -18.612 -26.689  1.00  0.00     0.023 C 
HETATM   28  C7  UNL     1     -20.357 -20.012 -26.794  1.00  0.00     0.023 C 
HETATM   29  C8  UNL     1     -21.386 -20.038 -25.661  1.00  0.00     0.145 C 
ENDBRANCH   5  25
TORSDOF 4
ENDMDL
