MODEL 1
REMARK VINA RESULT: -6.444288330      0.000      0.000
REMARK  4 active torsions:
REMARK  status: ('A' for Active; 'I' for Inactive)
REMARK       I    between atoms: C1_4  and  N2_5 
REMARK       I    between atoms: C1_4  and  N4_10 
REMARK    1  A    between atoms: N2_5  and  N3_7 
REMARK    2  A    between atoms: C2_11  and  C3_12 
REMARK    3  A    between atoms: C4_17  and  C5_18 
REMARK    4  A    between atoms: C9_24  and  O4_25 
ROOT
HETATM    1  N1  UNL     1     -24.720 -18.706 -20.000  1.00  0.00    -0.233 N 
ATOM      2  H11 UNL     1     -25.172 -19.176 -20.785  1.00  0.00     0.174 HD
ATOM      3  H12 UNL     1     -25.045 -18.800 -19.038  1.00  0.00     0.174 HD
HETATM    4  C1  UNL     1     -23.698 -17.958 -20.228  1.00  0.00     0.700 C 
HETATM    5  N2  UNL     1     -23.071 -17.305 -19.138  1.00  0.00    -0.138 N 
ATOM      6  H2  UNL     1     -22.603 -16.416 -19.311  1.00  0.00     0.205 HD
HETATM    7  N4  UNL     1     -23.243 -17.826 -21.575  1.00  0.00    -0.103 N 
HETATM    8  C2  UNL     1     -23.536 -16.824 -22.438  1.00  0.00     0.197 A 
HETATM    9  N6  UNL     1     -22.904 -17.095 -23.588  1.00  0.00    -0.333 N 
ATOM     10  H6  UNL     1     -22.946 -16.508 -24.421  1.00  0.00     0.168 HD
HETATM   11  C4  UNL     1     -22.209 -18.240 -23.501  1.00  0.00     0.096 A 
HETATM   12  C9  UNL     1     -22.425 -18.693 -22.239  1.00  0.00     0.193 A 
ENDROOT
BRANCH   8  13
HETATM   13  C3  UNL     1     -24.386 -15.659 -22.167  1.00  0.00     0.300 C 
HETATM   14  N5  UNL     1     -24.269 -14.492 -22.937  1.00  0.00    -0.054 NA
HETATM   15  O1  UNL     1     -25.210 -15.733 -21.241  1.00  0.00    -0.268 OA
ENDBRANCH   8  13
BRANCH  12  16
HETATM   16  O4  UNL     1     -21.937 -19.834 -21.640  1.00  0.00    -0.344 OA
ATOM     17  H4  UNL     1     -21.022 -19.921 -21.402  1.00  0.00     0.219 HD
ENDBRANCH  12  16
BRANCH   5  18
HETATM   18  N3  UNL     1     -23.062 -17.818 -17.838  1.00  0.00    -0.331 N 
ATOM     19  H32 UNL     1     -23.863 -17.603 -17.245  1.00  0.00     0.177 HD
ATOM     20  H31 UNL     1     -22.300 -18.386 -17.465  1.00  0.00     0.177 HD
ENDBRANCH   5  18
BRANCH  11  21
HETATM   21  C5  UNL     1     -21.406 -18.820 -24.586  1.00  0.00     0.018 C 
HETATM   22  C6  UNL     1     -21.830 -19.816 -25.329  1.00  0.00     0.149 C 
HETATM   23  O2  UNL     1     -20.994 -20.312 -26.349  1.00  0.00    -0.337 OA
HETATM   24  C7  UNL     1     -19.665 -19.800 -26.481  1.00  0.00     0.343 C 
HETATM   25  O3  UNL     1     -19.723 -18.434 -26.229  1.00  0.00    -0.362 OA
HETATM   26  C8  UNL     1     -20.057 -18.271 -24.868  1.00  0.00     0.213 C 
ENDBRANCH  11  21
TORSDOF 4
ENDMDL
MODEL 2
REMARK VINA RESULT: -6.425812755      0.241      1.092
REMARK  4 active torsions:
REMARK  status: ('A' for Active; 'I' for Inactive)
REMARK       I    between atoms: C1_4  and  N2_5 
REMARK       I    between atoms: C1_4  and  N4_10 
REMARK    1  A    between atoms: N2_5  and  N3_7 
REMARK    2  A    between atoms: C2_11  and  C3_12 
REMARK    3  A    between atoms: C4_17  and  C5_18 
REMARK    4  A    between atoms: C9_24  and  O4_25 
ROOT
HETATM    1  N1  UNL     1     -24.645 -18.751 -20.053  1.00  0.00    -0.233 N 
ATOM      2  H11 UNL     1     -25.061 -19.229 -20.853  1.00  0.00     0.174 HD
ATOM      3  H12 UNL     1     -24.979 -18.878 -19.098  1.00  0.00     0.174 HD
HETATM    4  C1  UNL     1     -23.658 -17.950 -20.252  1.00  0.00     0.700 C 
HETATM    5  N2  UNL     1     -23.080 -17.286 -19.142  1.00  0.00    -0.138 N 
ATOM      6  H2  UNL     1     -22.654 -16.372 -19.293  1.00  0.00     0.205 HD
HETATM    7  N4  UNL     1     -23.191 -17.772 -21.590  1.00  0.00    -0.103 N 
HETATM    8  C2  UNL     1     -23.521 -16.770 -22.441  1.00  0.00     0.197 A 
HETATM    9  N6  UNL     1     -22.860 -16.989 -23.585  1.00  0.00    -0.333 N 
ATOM     10  H6  UNL     1     -22.919 -16.391 -24.409  1.00  0.00     0.168 HD
HETATM   11  C4  UNL     1     -22.110 -18.100 -23.507  1.00  0.00     0.096 A 
HETATM   12  C9  UNL     1     -22.322 -18.585 -22.256  1.00  0.00     0.193 A 
ENDROOT
BRANCH   8  13
HETATM   13  C3  UNL     1     -24.431 -15.654 -22.163  1.00  0.00     0.300 C 
HETATM   14  N5  UNL     1     -24.356 -14.465 -22.905  1.00  0.00    -0.054 NA
HETATM   15  O1  UNL     1     -25.269 -15.787 -21.256  1.00  0.00    -0.268 OA
ENDBRANCH   8  13
BRANCH  12  16
HETATM   16  O4  UNL     1     -21.787 -19.711 -21.670  1.00  0.00    -0.344 OA
ATOM     17  H4  UNL     1     -22.040 -19.989 -20.798  1.00  0.00     0.219 HD
ENDBRANCH  12  16
BRANCH   5  18
HETATM   18  N3  UNL     1     -23.064 -17.821 -17.851  1.00  0.00    -0.331 N 
ATOM     19  H32 UNL     1     -22.181 -17.787 -17.342  1.00  0.00     0.177 HD
ATOM     20  H31 UNL     1     -23.883 -18.236 -17.406  1.00  0.00     0.177 HD
ENDBRANCH   5  18
BRANCH  11  21
HETATM   21  C5  UNL     1     -21.264 -18.620 -24.589  1.00  0.00     0.018 C 
HETATM   22  C6  UNL     1     -20.019 -18.240 -24.762  1.00  0.00     0.149 C 
HETATM   23  O2  UNL     1     -19.278 -18.791 -25.827  1.00  0.00    -0.337 OA
HETATM   24  C7  UNL     1     -19.925 -19.662 -26.758  1.00  0.00     0.343 C 
HETATM   25  O3  UNL     1     -20.804 -20.459 -26.034  1.00  0.00    -0.362 OA
HETATM   26  C8  UNL     1     -21.821 -19.618 -25.535  1.00  0.00     0.213 C 
ENDBRANCH  11  21
TORSDOF 4
ENDMDL
MODEL 3
REMARK VINA RESULT: -5.751820972      2.371      5.219
REMARK  4 active torsions:
REMARK  status: ('A' for Active; 'I' for Inactive)
REMARK       I    between atoms: C1_4  and  N2_5 
REMARK       I    between atoms: C1_4  and  N4_10 
REMARK    1  A    between atoms: N2_5  and  N3_7 
REMARK    2  A    between atoms: C2_11  and  C3_12 
REMARK    3  A    between atoms: C4_17  and  C5_18 
REMARK    4  A    between atoms: C9_24  and  O4_25 
ROOT
HETATM    1  N1  UNL     1     -20.358 -18.411 -20.279  1.00  0.00    -0.233 N 
ATOM      2  H11 UNL     1     -20.022 -17.685 -20.913  1.00  0.00     0.174 HD
ATOM      3  H12 UNL     1     -19.758 -18.864 -19.591  1.00  0.00     0.174 HD
HETATM    4  C1  UNL     1     -21.590 -18.776 -20.350  1.00  0.00     0.700 C 
HETATM    5  N2  UNL     1     -22.056 -19.784 -19.470  1.00  0.00    -0.138 N 
ATOM      6  H2  UNL     1     -22.822 -20.382 -19.780  1.00  0.00     0.205 HD
HETATM    7  N4  UNL     1     -22.430 -18.142 -21.314  1.00  0.00    -0.103 N 
HETATM    8  C2  UNL     1     -22.748 -18.605 -22.547  1.00  0.00     0.197 A 
HETATM    9  N6  UNL     1     -23.556 -17.699 -23.114  1.00  0.00    -0.333 N 
ATOM     10  H6  UNL     1     -23.953 -17.786 -24.049  1.00  0.00     0.168 HD
HETATM   11  C4  UNL     1     -23.776 -16.663 -22.290  1.00  0.00     0.096 A 
HETATM   12  C9  UNL     1     -23.069 -16.945 -21.166  1.00  0.00     0.193 A 
ENDROOT
BRANCH   8  13
HETATM   13  C3  UNL     1     -22.292 -19.862 -23.151  1.00  0.00     0.300 C 
HETATM   14  N5  UNL     1     -23.216 -20.798 -23.641  1.00  0.00    -0.054 NA
HETATM   15  O1  UNL     1     -21.071 -20.076 -23.217  1.00  0.00    -0.268 OA
ENDBRANCH   8  13
BRANCH  12  16
HETATM   16  O4  UNL     1     -22.956 -16.201 -20.012  1.00  0.00    -0.344 OA
ATOM     17  H4  UNL     1     -22.942 -15.251 -20.028  1.00  0.00     0.219 HD
ENDBRANCH  12  16
BRANCH   5  18
HETATM   18  N3  UNL     1     -21.521 -20.000 -18.197  1.00  0.00    -0.331 N 
ATOM     19  H32 UNL     1     -22.132 -20.423 -17.498  1.00  0.00     0.177 HD
ATOM     20  H31 UNL     1     -20.563 -19.756 -17.943  1.00  0.00     0.177 HD
ENDBRANCH   5  18
BRANCH  11  21
HETATM   21  C5  UNL     1     -24.617 -15.501 -22.607  1.00  0.00     0.018 C 
HETATM   22  C6  UNL     1     -25.701 -15.202 -21.927  1.00  0.00     0.149 C 
HETATM   23  O2  UNL     1     -26.450 -14.068 -22.300  1.00  0.00    -0.337 OA
HETATM   24  C7  UNL     1     -26.082 -13.335 -23.471  1.00  0.00     0.343 C 
HETATM   25  O3  UNL     1     -24.693 -13.298 -23.514  1.00  0.00    -0.362 OA
HETATM   26  C8  UNL     1     -24.243 -14.617 -23.738  1.00  0.00     0.213 C 
ENDBRANCH  11  21
TORSDOF 4
ENDMDL
MODEL 4
REMARK VINA RESULT: -5.715356128      2.373      5.233
REMARK  4 active torsions:
REMARK  status: ('A' for Active; 'I' for Inactive)
REMARK       I    between atoms: C1_4  and  N2_5 
REMARK       I    between atoms: C1_4  and  N4_10 
REMARK    1  A    between atoms: N2_5  and  N3_7 
REMARK    2  A    between atoms: C2_11  and  C3_12 
REMARK    3  A    between atoms: C4_17  and  C5_18 
REMARK    4  A    between atoms: C9_24  and  O4_25 
ROOT
HETATM    1  N1  UNL     1     -20.494 -18.473 -20.273  1.00  0.00    -0.233 N 
ATOM      2  H11 UNL     1     -20.100 -17.774 -20.904  1.00  0.00     0.174 HD
ATOM      3  H12 UNL     1     -19.944 -18.939 -19.552  1.00  0.00     0.174 HD
HETATM    4  C1  UNL     1     -21.737 -18.786 -20.390  1.00  0.00     0.700 C 
HETATM    5  N2  UNL     1     -22.284 -19.756 -19.514  1.00  0.00    -0.138 N 
ATOM      6  H2  UNL     1     -23.061 -20.326 -19.848  1.00  0.00     0.205 HD
HETATM    7  N4  UNL     1     -22.507 -18.133 -21.400  1.00  0.00    -0.103 N 
HETATM    8  C2  UNL     1     -22.792 -18.605 -22.638  1.00  0.00     0.197 A 
HETATM    9  N6  UNL     1     -23.536 -17.675 -23.253  1.00  0.00    -0.333 N 
ATOM     10  H6  UNL     1     -23.896 -17.762 -24.203  1.00  0.00     0.168 HD
HETATM   11  C4  UNL     1     -23.744 -16.615 -22.457  1.00  0.00     0.096 A 
HETATM   12  C9  UNL     1     -23.098 -16.908 -21.299  1.00  0.00     0.193 A 
ENDROOT
BRANCH   8  13
HETATM   13  C3  UNL     1     -22.368 -19.891 -23.201  1.00  0.00     0.300 C 
HETATM   14  N5  UNL     1     -23.315 -20.832 -23.633  1.00  0.00    -0.054 NA
HETATM   15  O1  UNL     1     -21.151 -20.125 -23.285  1.00  0.00    -0.268 OA
ENDBRANCH   8  13
BRANCH  12  16
HETATM   16  O4  UNL     1     -23.001 -16.148 -20.153  1.00  0.00    -0.344 OA
ATOM     17  H4  UNL     1     -22.419 -16.387 -19.442  1.00  0.00     0.219 HD
ENDBRANCH  12  16
BRANCH   5  18
HETATM   18  N3  UNL     1     -21.812 -19.972 -18.217  1.00  0.00    -0.331 N 
ATOM     19  H32 UNL     1     -22.415 -20.494 -17.581  1.00  0.00     0.177 HD
ATOM     20  H31 UNL     1     -20.908 -19.635 -17.885  1.00  0.00     0.177 HD
ENDBRANCH   5  18
BRANCH  11  21
HETATM   21  C5  UNL     1     -24.519 -15.424 -22.828  1.00  0.00     0.018 C 
HETATM   22  C6  UNL     1     -24.246 -14.701 -23.890  1.00  0.00     0.149 C 
HETATM   23  O2  UNL     1     -25.042 -13.574 -24.173  1.00  0.00    -0.337 OA
HETATM   24  C7  UNL     1     -26.053 -13.175 -23.244  1.00  0.00     0.343 C 
HETATM   25  O3  UNL     1     -26.638 -14.336 -22.750  1.00  0.00    -0.362 OA
HETATM   26  C8  UNL     1     -25.662 -15.005 -21.981  1.00  0.00     0.213 C 
ENDBRANCH  11  21
TORSDOF 4
ENDMDL
MODEL 5
REMARK VINA RESULT: -4.588268190      1.736      3.042
REMARK  4 active torsions:
REMARK  status: ('A' for Active; 'I' for Inactive)
REMARK       I    between atoms: C1_4  and  N2_5 
REMARK       I    between atoms: C1_4  and  N4_10 
REMARK    1  A    between atoms: N2_5  and  N3_7 
REMARK    2  A    between atoms: C2_11  and  C3_12 
REMARK    3  A    between atoms: C4_17  and  C5_18 
REMARK    4  A    between atoms: C9_24  and  O4_25 
ROOT
HETATM    1  N1  UNL     1     -22.579 -15.624 -20.587  1.00  0.00    -0.233 N 
ATOM      2  H11 UNL     1     -21.571 -15.596 -20.746  1.00  0.00     0.174 HD
ATOM      3  H12 UNL     1     -23.080 -14.892 -20.084  1.00  0.00     0.174 HD
HETATM    4  C1  UNL     1     -23.251 -16.626 -21.036  1.00  0.00     0.700 C 
HETATM    5  N2  UNL     1     -24.650 -16.665 -20.816  1.00  0.00    -0.138 N 
ATOM      6  H2  UNL     1     -25.103 -17.576 -20.741  1.00  0.00     0.205 HD
HETATM    7  N4  UNL     1     -22.550 -17.651 -21.740  1.00  0.00    -0.103 N 
HETATM    8  C2  UNL     1     -22.101 -18.825 -21.233  1.00  0.00     0.197 A 
HETATM    9  N6  UNL     1     -21.501 -19.483 -22.234  1.00  0.00    -0.333 N 
ATOM     10  H6  UNL     1     -21.066 -20.402 -22.141  1.00  0.00     0.168 HD
HETATM   11  C4  UNL     1     -21.545 -18.777 -23.375  1.00  0.00     0.096 A 
HETATM   12  C9  UNL     1     -22.202 -17.632 -23.059  1.00  0.00     0.193 A 
ENDROOT
BRANCH   8  13
HETATM   13  C3  UNL     1     -22.243 -19.290 -19.849  1.00  0.00     0.300 C 
HETATM   14  N5  UNL     1     -23.514 -19.472 -19.282  1.00  0.00    -0.054 NA
HETATM   15  O1  UNL     1     -21.213 -19.517 -19.194  1.00  0.00    -0.268 OA
ENDBRANCH   8  13
BRANCH  12  16
HETATM   16  O4  UNL     1     -22.513 -16.566 -23.876  1.00  0.00    -0.344 OA
ATOM     17  H4  UNL     1     -23.385 -16.192 -23.899  1.00  0.00     0.219 HD
ENDBRANCH  12  16
BRANCH   5  18
HETATM   18  N3  UNL     1     -25.441 -15.519 -20.695  1.00  0.00    -0.331 N 
ATOM     19  H32 UNL     1     -24.971 -14.617 -20.771  1.00  0.00     0.177 HD
ATOM     20  H31 UNL     1     -26.449 -15.547 -20.537  1.00  0.00     0.177 HD
ENDBRANCH   5  18
BRANCH  11  21
HETATM   21  C5  UNL     1     -20.979 -19.216 -24.658  1.00  0.00     0.018 C 
HETATM   22  C6  UNL     1     -21.594 -20.060 -25.454  1.00  0.00     0.149 C 
HETATM   23  O2  UNL     1     -20.979 -20.427 -26.667  1.00  0.00    -0.337 OA
HETATM   24  C7  UNL     1     -19.655 -19.966 -26.953  1.00  0.00     0.343 C 
HETATM   25  O3  UNL     1     -19.568 -18.656 -26.495  1.00  0.00    -0.362 OA
HETATM   26  C8  UNL     1     -19.658 -18.695 -25.087  1.00  0.00     0.213 C 
ENDBRANCH  11  21
TORSDOF 4
ENDMDL
