MODEL 1
REMARK VINA RESULT: -8.205631249      0.000      0.000
REMARK  11 active torsions:
REMARK  status: ('A' for Active; 'I' for Inactive)
REMARK    1  A    between atoms: S1_2  and  C2_3 
REMARK    2  A    between atoms: C2_3  and  N2_7 
REMARK    3  A    between atoms: N2_7  and  C3_9 
REMARK    4  A    between atoms: C6_12  and  N3_13 
REMARK    5  A    between atoms: N4_16  and  C9_17 
REMARK    6  A    between atoms: C9_17  and  C10_18 
REMARK    7  A    between atoms: C10_18  and  O1_19 
REMARK    8  A    between atoms: O1_19  and  C11_20 
REMARK    9  A    between atoms: C11_20  and  C12_21 
REMARK       I    between atoms: C12_21  and  N5_23 
REMARK   10  A    between atoms: C20_31  and  N6_32 
REMARK   11  A    between atoms: C21_34  and  C22_35 
ROOT
HETATM    1  C3  UNL     1      38.710  39.686  11.339  1.00  0.00     0.061 A 
HETATM    2  C4  UNL     1      39.347  38.570  10.837  1.00  0.00     0.034 A 
HETATM    3  C5  UNL     1      38.766  37.324  10.863  1.00  0.00     0.031 A 
HETATM    4  C6  UNL     1      37.521  37.172  11.400  1.00  0.00     0.032 A 
HETATM    5  C19 UNL     1      36.857  38.271  11.912  1.00  0.00     0.061 A 
HETATM    6  C20 UNL     1      37.474  39.510  11.868  1.00  0.00     0.060 A 
ENDROOT
BRANCH   4   7
HETATM    7  N3  UNL     1      36.869  35.909  11.492  1.00  0.00    -0.378 N 
HETATM    8  C7  UNL     1      37.332  34.741  10.774  1.00  0.00     0.142 C 
HETATM    9  C8  UNL     1      37.501  33.588  11.738  1.00  0.00     0.136 C 
HETATM   10  N4  UNL     1      37.050  33.984  13.021  1.00  0.00    -0.407 N 
HETATM   11  C17 UNL     1      35.730  34.504  13.084  1.00  0.00     0.136 C 
HETATM   12  C18 UNL     1      35.673  35.795  12.306  1.00  0.00     0.142 C 
BRANCH  10  13
HETATM   13  C9  UNL     1      37.428  33.136  14.109  1.00  0.00     0.143 C 
BRANCH  13  14
HETATM   14  C10 UNL     1      38.931  33.200  14.285  1.00  0.00     0.187 C 
BRANCH  14  15
HETATM   15  O1  UNL     1      39.473  31.937  14.292  1.00  0.00    -0.380 OA
BRANCH  15  16
HETATM   16  C11 UNL     1      38.590  30.985  13.884  1.00  0.00     0.270 C 
BRANCH  16  17
HETATM   17  C12 UNL     1      39.150  30.099  12.856  1.00  0.00     0.243 C 
HETATM   18  O2  UNL     1      39.007  30.517  11.645  1.00  0.00    -0.271 OA
HETATM   19  N5  UNL     1      39.798  28.894  13.132  1.00  0.00    -0.350 N 
HETATM   20  C13 UNL     1      40.121  28.296  14.400  1.00  0.00     0.126 C 
HETATM   21  C16 UNL     1      40.285  28.007  12.071  1.00  0.00     0.126 C 
HETATM   22  C14 UNL     1      41.469  27.630  14.075  1.00  0.00     0.021 C 
HETATM   23  C15 UNL     1      41.128  26.968  12.764  1.00  0.00     0.021 C 
ENDBRANCH  16  17
ENDBRANCH  15  16
ENDBRANCH  14  15
ENDBRANCH  13  14
ENDBRANCH  10  13
ENDBRANCH   4   7
BRANCH   6  24
HETATM   24  N6  UNL     1      36.758  40.624  12.414  1.00  0.00    -0.367 N 
HETATM   25  C21 UNL     1      37.033  41.053  13.597  1.00  0.00     0.066 C 
ATOM     26  H6  UNL     1      36.028  41.079  11.865  1.00  0.00     0.165 HD
BRANCH  25  27
HETATM   27  C22 UNL     1      36.329  42.193  14.207  1.00  0.00     0.024 C 
HETATM   28  C23 UNL     1      35.538  42.912  13.155  1.00  0.00     0.010 C 
HETATM   29  C24 UNL     1      34.186  43.203  13.791  1.00  0.00     0.001 C 
HETATM   30  C25 UNL     1      34.336  42.883  15.250  1.00  0.00     0.001 C 
HETATM   31  C26 UNL     1      35.375  41.771  15.291  1.00  0.00     0.010 C 
ENDBRANCH  25  27
ENDBRANCH   6  24
BRANCH   1  32
HETATM   32  N2  UNL     1      39.353  40.961  11.292  1.00  0.00    -0.335 N 
ATOM     33  H2  UNL     1      40.022  41.200  12.023  1.00  0.00     0.168 HD
BRANCH  32  34
HETATM   34  C2  UNL     1      39.099  41.902  10.274  1.00  0.00     0.138 C 
HETATM   35  N1  UNL     1      38.792  41.488   9.094  1.00  0.00    -0.380 N 
ATOM     36  H12 UNL     1      38.608  42.169   8.357  1.00  0.00     0.158 HD
ATOM     37  H11 UNL     1      38.742  40.484   8.925  1.00  0.00     0.158 HD
BRANCH  34  38
HETATM   38  S1  UNL     1      39.186  43.650  10.567  1.00  0.00    -0.099 SA
HETATM   39  C1  UNL     1      39.156  44.020  12.348  1.00  0.00     0.099 C 
ENDBRANCH  34  38
ENDBRANCH  32  34
ENDBRANCH   1  32
TORSDOF 11
ENDMDL
MODEL 2
REMARK VINA RESULT: -8.102732663      2.877      5.435
REMARK  11 active torsions:
REMARK  status: ('A' for Active; 'I' for Inactive)
REMARK    1  A    between atoms: S1_2  and  C2_3 
REMARK    2  A    between atoms: C2_3  and  N2_7 
REMARK    3  A    between atoms: N2_7  and  C3_9 
REMARK    4  A    between atoms: C6_12  and  N3_13 
REMARK    5  A    between atoms: N4_16  and  C9_17 
REMARK    6  A    between atoms: C9_17  and  C10_18 
REMARK    7  A    between atoms: C10_18  and  O1_19 
REMARK    8  A    between atoms: O1_19  and  C11_20 
REMARK    9  A    between atoms: C11_20  and  C12_21 
REMARK       I    between atoms: C12_21  and  N5_23 
REMARK   10  A    between atoms: C20_31  and  N6_32 
REMARK   11  A    between atoms: C21_34  and  C22_35 
ROOT
HETATM    1  C3  UNL     1      38.299  44.895  12.006  1.00  0.00     0.061 A 
HETATM    2  C4  UNL     1      39.469  44.936  11.278  1.00  0.00     0.034 A 
HETATM    3  C5  UNL     1      39.982  43.822  10.658  1.00  0.00     0.031 A 
HETATM    4  C6  UNL     1      39.323  42.631  10.757  1.00  0.00     0.032 A 
HETATM    5  C19 UNL     1      38.147  42.558  11.479  1.00  0.00     0.061 A 
HETATM    6  C20 UNL     1      37.660  43.701  12.091  1.00  0.00     0.060 A 
ENDROOT
BRANCH   4   7
HETATM    7  N3  UNL     1      39.809  41.428  10.170  1.00  0.00    -0.378 N 
HETATM    8  C7  UNL     1      40.969  40.728  10.679  1.00  0.00     0.142 C 
HETATM    9  C8  UNL     1      40.619  39.276  10.919  1.00  0.00     0.136 C 
HETATM   10  N4  UNL     1      39.297  39.035  10.470  1.00  0.00    -0.407 N 
HETATM   11  C17 UNL     1      39.019  39.404   9.127  1.00  0.00     0.136 C 
HETATM   12  C18 UNL     1      39.141  40.902   8.995  1.00  0.00     0.142 C 
BRANCH  10  13
HETATM   13  C9  UNL     1      38.698  37.812  10.907  1.00  0.00     0.143 C 
BRANCH  13  14
HETATM   14  C10 UNL     1      37.691  38.117  11.996  1.00  0.00     0.187 C 
BRANCH  14  15
HETATM   15  O1  UNL     1      37.444  36.999  12.757  1.00  0.00    -0.380 OA
BRANCH  15  16
HETATM   16  C11 UNL     1      37.672  35.842  12.077  1.00  0.00     0.270 C 
BRANCH  16  17
HETATM   17  C12 UNL     1      36.596  34.860  12.257  1.00  0.00     0.243 C 
HETATM   18  O2  UNL     1      35.465  35.194  11.738  1.00  0.00    -0.271 OA
HETATM   19  N5  UNL     1      36.752  33.645  12.926  1.00  0.00    -0.350 N 
HETATM   20  C13 UNL     1      37.933  33.061  13.503  1.00  0.00     0.126 C 
HETATM   21  C16 UNL     1      35.633  32.721  13.140  1.00  0.00     0.126 C 
HETATM   22  C14 UNL     1      37.689  31.568  13.222  1.00  0.00     0.021 C 
HETATM   23  C15 UNL     1      36.251  31.448  13.659  1.00  0.00     0.021 C 
ENDBRANCH  16  17
ENDBRANCH  15  16
ENDBRANCH  14  15
ENDBRANCH  13  14
ENDBRANCH  10  13
ENDBRANCH   4   7
BRANCH   6  24
HETATM   24  N6  UNL     1      36.443  43.585  12.836  1.00  0.00    -0.367 N 
HETATM   25  C21 UNL     1      36.195  42.514  13.507  1.00  0.00     0.066 C 
ATOM     26  H6  UNL     1      35.771  44.353  12.836  1.00  0.00     0.165 HD
BRANCH  25  27
HETATM   27  C22 UNL     1      34.960  42.341  14.289  1.00  0.00     0.024 C 
HETATM   28  C23 UNL     1      35.298  42.283  15.750  1.00  0.00     0.010 C 
HETATM   29  C24 UNL     1      34.260  43.155  16.441  1.00  0.00     0.001 C 
HETATM   30  C25 UNL     1      33.219  43.464  15.404  1.00  0.00     0.001 C 
HETATM   31  C26 UNL     1      33.984  43.467  14.087  1.00  0.00     0.010 C 
ENDBRANCH  25  27
ENDBRANCH   6  24
BRANCH   1  32
HETATM   32  N2  UNL     1      37.803  46.079  12.635  1.00  0.00    -0.335 N 
ATOM     33  H2  UNL     1      37.926  46.187  13.641  1.00  0.00     0.168 HD
BRANCH  32  34
HETATM   34  C2  UNL     1      37.150  47.102  11.919  1.00  0.00     0.138 C 
HETATM   35  N1  UNL     1      36.469  46.803  10.868  1.00  0.00    -0.380 N 
ATOM     36  H12 UNL     1      35.997  47.543  10.349  1.00  0.00     0.158 HD
ATOM     37  H11 UNL     1      36.421  45.826  10.579  1.00  0.00     0.158 HD
BRANCH  34  38
HETATM   38  S1  UNL     1      37.234  48.802  12.422  1.00  0.00    -0.099 SA
HETATM   39  C1  UNL     1      36.850  49.917  11.036  1.00  0.00     0.099 C 
ENDBRANCH  34  38
ENDBRANCH  32  34
ENDBRANCH   1  32
TORSDOF 11
ENDMDL
MODEL 3
REMARK VINA RESULT: -8.067424197      3.425      6.122
REMARK  11 active torsions:
REMARK  status: ('A' for Active; 'I' for Inactive)
REMARK    1  A    between atoms: S1_2  and  C2_3 
REMARK    2  A    between atoms: C2_3  and  N2_7 
REMARK    3  A    between atoms: N2_7  and  C3_9 
REMARK    4  A    between atoms: C6_12  and  N3_13 
REMARK    5  A    between atoms: N4_16  and  C9_17 
REMARK    6  A    between atoms: C9_17  and  C10_18 
REMARK    7  A    between atoms: C10_18  and  O1_19 
REMARK    8  A    between atoms: O1_19  and  C11_20 
REMARK    9  A    between atoms: C11_20  and  C12_21 
REMARK       I    between atoms: C12_21  and  N5_23 
REMARK   10  A    between atoms: C20_31  and  N6_32 
REMARK   11  A    between atoms: C21_34  and  C22_35 
ROOT
HETATM    1  C3  UNL     1      38.739  44.242  13.637  1.00  0.00     0.061 A 
HETATM    2  C4  UNL     1      39.055  42.926  13.901  1.00  0.00     0.034 A 
HETATM    3  C5  UNL     1      39.424  42.051  12.907  1.00  0.00     0.031 A 
HETATM    4  C6  UNL     1      39.483  42.484  11.614  1.00  0.00     0.032 A 
HETATM    5  C19 UNL     1      39.172  43.797  11.318  1.00  0.00     0.061 A 
HETATM    6  C20 UNL     1      38.805  44.651  12.345  1.00  0.00     0.060 A 
ENDROOT
BRANCH   4   7
HETATM    7  N3  UNL     1      39.825  41.628  10.529  1.00  0.00    -0.378 N 
HETATM    8  C7  UNL     1      41.102  40.952  10.444  1.00  0.00     0.142 C 
HETATM    9  C8  UNL     1      40.879  39.474  10.218  1.00  0.00     0.136 C 
HETATM   10  N4  UNL     1      39.493  39.232  10.054  1.00  0.00    -0.407 N 
HETATM   11  C17 UNL     1      38.841  39.999   9.050  1.00  0.00     0.136 C 
HETATM   12  C18 UNL     1      38.874  41.454   9.447  1.00  0.00     0.142 C 
BRANCH  10  13
HETATM   13  C9  UNL     1      39.077  37.867  10.148  1.00  0.00     0.143 C 
BRANCH  13  14
HETATM   14  C10 UNL     1      38.192  37.704  11.367  1.00  0.00     0.187 C 
BRANCH  14  15
HETATM   15  O1  UNL     1      38.153  36.389  11.766  1.00  0.00    -0.380 OA
BRANCH  15  16
HETATM   16  C11 UNL     1      37.253  36.170  12.762  1.00  0.00     0.270 C 
BRANCH  16  17
HETATM   17  C12 UNL     1      36.622  34.847  12.673  1.00  0.00     0.243 C 
HETATM   18  O2  UNL     1      35.482  34.830  12.074  1.00  0.00    -0.271 OA
HETATM   19  N5  UNL     1      37.189  33.677  13.181  1.00  0.00    -0.350 N 
HETATM   20  C13 UNL     1      38.467  33.474  13.808  1.00  0.00     0.126 C 
HETATM   21  C16 UNL     1      36.495  32.386  13.128  1.00  0.00     0.126 C 
HETATM   22  C14 UNL     1      38.826  32.069  13.295  1.00  0.00     0.021 C 
HETATM   23  C15 UNL     1      37.519  31.357  13.536  1.00  0.00     0.021 C 
ENDBRANCH  16  17
ENDBRANCH  15  16
ENDBRANCH  14  15
ENDBRANCH  13  14
ENDBRANCH  10  13
ENDBRANCH   4   7
BRANCH   6  24
HETATM   24  N6  UNL     1      38.483  46.003  11.998  1.00  0.00    -0.367 N 
HETATM   25  C21 UNL     1      37.338  46.282  11.479  1.00  0.00     0.066 C 
ATOM     26  H6  UNL     1      39.163  46.746  12.162  1.00  0.00     0.165 HD
BRANCH  25  27
HETATM   27  C22 UNL     1      36.956  47.653  11.103  1.00  0.00     0.024 C 
HETATM   28  C23 UNL     1      35.492  47.691  10.776  1.00  0.00     0.010 C 
HETATM   29  C24 UNL     1      34.958  48.946  11.451  1.00  0.00     0.001 C 
HETATM   30  C25 UNL     1      36.162  49.716  11.911  1.00  0.00     0.001 C 
HETATM   31  C26 UNL     1      37.206  48.647  12.204  1.00  0.00     0.010 C 
ENDBRANCH  25  27
ENDBRANCH   6  24
BRANCH   1  32
HETATM   32  N2  UNL     1      38.360  45.117  14.702  1.00  0.00    -0.335 N 
ATOM     33  H2  UNL     1      38.533  46.116  14.600  1.00  0.00     0.168 HD
BRANCH  32  34
HETATM   34  C2  UNL     1      37.757  44.652  15.888  1.00  0.00     0.138 C 
HETATM   35  N1  UNL     1      38.465  44.551  16.959  1.00  0.00    -0.380 N 
ATOM     36  H12 UNL     1      38.029  44.214  17.817  1.00  0.00     0.158 HD
ATOM     37  H11 UNL     1      39.451  44.810  16.920  1.00  0.00     0.158 HD
BRANCH  34  38
HETATM   38  S1  UNL     1      36.042  44.201  15.956  1.00  0.00    -0.099 SA
HETATM   39  C1  UNL     1      35.815  42.429  15.612  1.00  0.00     0.099 C 
ENDBRANCH  34  38
ENDBRANCH  32  34
ENDBRANCH   1  32
TORSDOF 11
ENDMDL
MODEL 4
REMARK VINA RESULT: -8.067156049      3.240      6.064
REMARK  11 active torsions:
REMARK  status: ('A' for Active; 'I' for Inactive)
REMARK    1  A    between atoms: S1_2  and  C2_3 
REMARK    2  A    between atoms: C2_3  and  N2_7 
REMARK    3  A    between atoms: N2_7  and  C3_9 
REMARK    4  A    between atoms: C6_12  and  N3_13 
REMARK    5  A    between atoms: N4_16  and  C9_17 
REMARK    6  A    between atoms: C9_17  and  C10_18 
REMARK    7  A    between atoms: C10_18  and  O1_19 
REMARK    8  A    between atoms: O1_19  and  C11_20 
REMARK    9  A    between atoms: C11_20  and  C12_21 
REMARK       I    between atoms: C12_21  and  N5_23 
REMARK   10  A    between atoms: C20_31  and  N6_32 
REMARK   11  A    between atoms: C21_34  and  C22_35 
ROOT
HETATM    1  C3  UNL     1      35.066  42.778  13.789  1.00  0.00     0.061 A 
HETATM    2  C4  UNL     1      34.990  42.756  12.412  1.00  0.00     0.034 A 
HETATM    3  C5  UNL     1      36.050  42.367  11.628  1.00  0.00     0.031 A 
HETATM    4  C6  UNL     1      37.221  41.988  12.217  1.00  0.00     0.032 A 
HETATM    5  C19 UNL     1      37.329  41.998  13.595  1.00  0.00     0.061 A 
HETATM    6  C20 UNL     1      36.239  42.396  14.352  1.00  0.00     0.060 A 
ENDROOT
BRANCH   4   7
HETATM    7  N3  UNL     1      38.371  41.603  11.471  1.00  0.00    -0.378 N 
HETATM    8  C7  UNL     1      39.640  41.302  12.098  1.00  0.00     0.142 C 
HETATM    9  C8  UNL     1      40.130  39.951  11.627  1.00  0.00     0.136 C 
HETATM   10  N4  UNL     1      39.245  39.453  10.640  1.00  0.00    -0.407 N 
HETATM   11  C17 UNL     1      38.999  40.312   9.535  1.00  0.00     0.136 C 
HETATM   12  C18 UNL     1      38.281  41.546  10.024  1.00  0.00     0.142 C 
BRANCH  10  13
HETATM   13  C9  UNL     1      39.377  38.066  10.320  1.00  0.00     0.143 C 
BRANCH  13  14
HETATM   14  C10 UNL     1      38.108  37.344  10.725  1.00  0.00     0.187 C 
BRANCH  14  15
HETATM   15  O1  UNL     1      38.363  36.443  11.732  1.00  0.00    -0.380 OA
BRANCH  15  16
HETATM   16  C11 UNL     1      37.333  36.339  12.615  1.00  0.00     0.270 C 
BRANCH  16  17
HETATM   17  C12 UNL     1      36.644  35.045  12.529  1.00  0.00     0.243 C 
HETATM   18  O2  UNL     1      35.507  35.076  11.924  1.00  0.00    -0.271 OA
HETATM   19  N5  UNL     1      37.155  33.853  13.045  1.00  0.00    -0.350 N 
HETATM   20  C13 UNL     1      38.419  33.596  13.680  1.00  0.00     0.126 C 
HETATM   21  C16 UNL     1      36.404  32.595  12.996  1.00  0.00     0.126 C 
HETATM   22  C14 UNL     1      38.718  32.174  13.176  1.00  0.00     0.021 C 
HETATM   23  C15 UNL     1      37.378  31.523  13.413  1.00  0.00     0.021 C 
ENDBRANCH  16  17
ENDBRANCH  15  16
ENDBRANCH  14  15
ENDBRANCH  13  14
ENDBRANCH  10  13
ENDBRANCH   4   7
BRANCH   6  24
HETATM   24  N6  UNL     1      36.391  42.400  15.776  1.00  0.00    -0.367 N 
HETATM   25  C21 UNL     1      37.013  43.367  16.358  1.00  0.00     0.066 C 
ATOM     26  H6  UNL     1      36.005  41.636  16.332  1.00  0.00     0.165 HD
BRANCH  25  27
HETATM   27  C22 UNL     1      37.198  43.422  17.817  1.00  0.00     0.024 C 
HETATM   28  C23 UNL     1      36.819  42.101  18.418  1.00  0.00     0.010 C 
HETATM   29  C24 UNL     1      37.907  41.792  19.437  1.00  0.00     0.001 C 
HETATM   30  C25 UNL     1      38.716  43.048  19.576  1.00  0.00     0.001 C 
HETATM   31  C26 UNL     1      38.620  43.714  18.209  1.00  0.00     0.010 C 
ENDBRANCH  25  27
ENDBRANCH   6  24
BRANCH   1  32
HETATM   32  N2  UNL     1      33.938  43.190  14.563  1.00  0.00    -0.335 N 
ATOM     33  H2  UNL     1      33.372  42.477  15.022  1.00  0.00     0.168 HD
BRANCH  32  34
HETATM   34  C2  UNL     1      33.578  44.544  14.719  1.00  0.00     0.138 C 
HETATM   35  N1  UNL     1      34.483  45.454  14.616  1.00  0.00    -0.380 N 
ATOM     36  H12 UNL     1      34.223  46.434  14.729  1.00  0.00     0.158 HD
ATOM     37  H11 UNL     1      35.444  45.169  14.424  1.00  0.00     0.158 HD
BRANCH  34  38
HETATM   38  S1  UNL     1      31.907  45.039  15.052  1.00  0.00    -0.099 SA
HETATM   39  C1  UNL     1      31.664  46.807  14.699  1.00  0.00     0.099 C 
ENDBRANCH  34  38
ENDBRANCH  32  34
ENDBRANCH   1  32
TORSDOF 11
ENDMDL
MODEL 5
REMARK VINA RESULT: -8.055580434      2.932      5.558
REMARK  11 active torsions:
REMARK  status: ('A' for Active; 'I' for Inactive)
REMARK    1  A    between atoms: S1_2  and  C2_3 
REMARK    2  A    between atoms: C2_3  and  N2_7 
REMARK    3  A    between atoms: N2_7  and  C3_9 
REMARK    4  A    between atoms: C6_12  and  N3_13 
REMARK    5  A    between atoms: N4_16  and  C9_17 
REMARK    6  A    between atoms: C9_17  and  C10_18 
REMARK    7  A    between atoms: C10_18  and  O1_19 
REMARK    8  A    between atoms: O1_19  and  C11_20 
REMARK    9  A    between atoms: C11_20  and  C12_21 
REMARK       I    between atoms: C12_21  and  N5_23 
REMARK   10  A    between atoms: C20_31  and  N6_32 
REMARK   11  A    between atoms: C21_34  and  C22_35 
ROOT
HETATM    1  C3  UNL     1      37.189  44.935  11.892  1.00  0.00     0.061 A 
HETATM    2  C4  UNL     1      38.335  45.148  11.155  1.00  0.00     0.034 A 
HETATM    3  C5  UNL     1      39.086  44.110  10.657  1.00  0.00     0.031 A 
HETATM    4  C6  UNL     1      38.696  42.823  10.891  1.00  0.00     0.032 A 
HETATM    5  C19 UNL     1      37.551  42.577  11.625  1.00  0.00     0.061 A 
HETATM    6  C20 UNL     1      36.820  43.649  12.111  1.00  0.00     0.060 A 
ENDROOT
BRANCH   4   7
HETATM    7  N3  UNL     1      39.438  41.696  10.434  1.00  0.00    -0.378 N 
HETATM    8  C7  UNL     1      40.546  41.141  11.181  1.00  0.00     0.142 C 
HETATM    9  C8  UNL     1      40.338  39.655  11.367  1.00  0.00     0.136 C 
HETATM   10  N4  UNL     1      39.177  39.255  10.660  1.00  0.00    -0.407 N 
HETATM   11  C17 UNL     1      39.138  39.601   9.283  1.00  0.00     0.136 C 
HETATM   12  C18 UNL     1      39.097  41.103   9.155  1.00  0.00     0.142 C 
BRANCH  10  13
HETATM   13  C9  UNL     1      38.658  37.962  10.983  1.00  0.00     0.143 C 
BRANCH  13  14
HETATM   14  C10 UNL     1      37.550  38.117  12.004  1.00  0.00     0.187 C 
BRANCH  14  15
HETATM   15  O1  UNL     1      37.459  36.996  12.795  1.00  0.00    -0.380 OA
BRANCH  15  16
HETATM   16  C11 UNL     1      37.663  35.845  12.098  1.00  0.00     0.270 C 
BRANCH  16  17
HETATM   17  C12 UNL     1      36.563  34.886  12.258  1.00  0.00     0.243 C 
HETATM   18  O2  UNL     1      35.457  35.231  11.694  1.00  0.00    -0.271 OA
HETATM   19  N5  UNL     1      36.673  33.680  12.953  1.00  0.00    -0.350 N 
HETATM   20  C13 UNL     1      37.822  33.085  13.581  1.00  0.00     0.126 C 
HETATM   21  C16 UNL     1      35.530  32.781  13.144  1.00  0.00     0.126 C 
HETATM   22  C14 UNL     1      37.561  31.592  13.317  1.00  0.00     0.021 C 
HETATM   23  C15 UNL     1      36.106  31.507  13.707  1.00  0.00     0.021 C 
ENDBRANCH  16  17
ENDBRANCH  15  16
ENDBRANCH  14  15
ENDBRANCH  13  14
ENDBRANCH  10  13
ENDBRANCH   4   7
BRANCH   6  24
HETATM   24  N6  UNL     1      35.644  43.354  12.874  1.00  0.00    -0.367 N 
HETATM   25  C21 UNL     1      35.739  42.719  13.991  1.00  0.00     0.066 C 
ATOM     26  H6  UNL     1      34.729  43.649  12.533  1.00  0.00     0.165 HD
BRANCH  25  27
HETATM   27  C22 UNL     1      34.565  42.390  14.814  1.00  0.00     0.024 C 
HETATM   28  C23 UNL     1      34.986  42.228  16.245  1.00  0.00     0.010 C 
HETATM   29  C24 UNL     1      33.933  42.959  17.063  1.00  0.00     0.001 C 
HETATM   30  C25 UNL     1      32.818  43.284  16.113  1.00  0.00     0.001 C 
HETATM   31  C26 UNL     1      33.506  43.457  14.765  1.00  0.00     0.010 C 
ENDBRANCH  25  27
ENDBRANCH   6  24
BRANCH   1  32
HETATM   32  N2  UNL     1      36.440  46.046  12.392  1.00  0.00    -0.335 N 
ATOM     33  H2  UNL     1      35.590  46.323  11.902  1.00  0.00     0.168 HD
BRANCH  32  34
HETATM   34  C2  UNL     1      36.831  46.773  13.534  1.00  0.00     0.138 C 
HETATM   35  N1  UNL     1      37.569  47.819  13.394  1.00  0.00    -0.380 N 
ATOM     36  H12 UNL     1      37.852  48.345  14.221  1.00  0.00     0.158 HD
ATOM     37  H11 UNL     1      37.853  48.096  12.455  1.00  0.00     0.158 HD
BRANCH  34  38
HETATM   38  S1  UNL     1      36.337  46.292  15.169  1.00  0.00    -0.099 SA
HETATM   39  C1  UNL     1      37.592  45.231  15.949  1.00  0.00     0.099 C 
ENDBRANCH  34  38
ENDBRANCH  32  34
ENDBRANCH   1  32
TORSDOF 11
ENDMDL
