MODEL 1
REMARK VINA RESULT: -7.228479495      0.000      0.000
REMARK  12 active torsions:
REMARK  status: ('A' for Active; 'I' for Inactive)
REMARK    1  A    between atoms: C3_3  and  C4_4 
REMARK    2  A    between atoms: C7_8  and  C8_9 
REMARK    3  A    between atoms: C8_9  and  C9_10 
REMARK    4  A    between atoms: C14_17  and  C15_18 
REMARK    5  A    between atoms: C15_18  and  O3_20 
REMARK    6  A    between atoms: O3_20  and  C16_21 
REMARK    7  A    between atoms: C16_21  and  C17_22 
REMARK    8  A    between atoms: C22_27  and  O4_28 
REMARK    9  A    between atoms: C23_30  and  C24_31 
REMARK   10  A    between atoms: C24_31  and  C25_32 
REMARK   11  A    between atoms: C25_32  and  O5_33 
REMARK   12  A    between atoms: C26_35  and  O6_36 
ROOT
HETATM    1  C4  UNL     1      37.707  44.179  11.631  1.00  0.00     0.043 C 
HETATM    2 CL1  UNL     1      38.829  44.551  10.234  1.00  0.00    -0.084 Cl
HETATM    3  C5  UNL     1      37.051  45.220  12.032  1.00  0.00    -0.056 C 
HETATM    4  C6  UNL     1      37.277  46.537  11.318  1.00  0.00     0.048 C 
HETATM    5  C7  UNL     1      35.943  47.251  11.267  1.00  0.00     0.065 C 
HETATM    6  C13 UNL     1      35.607  47.604  12.667  1.00  0.00     0.145 C 
HETATM    7  O1  UNL     1      34.987  48.585  12.948  1.00  0.00    -0.297 OA
HETATM    8  C14 UNL     1      36.075  46.679  13.728  1.00  0.00     0.159 C 
HETATM    9  C20 UNL     1      36.101  45.228  13.159  1.00  0.00     0.058 C 
ENDROOT
BRANCH   1  10
HETATM   10  C3  UNL     1      37.764  42.789  12.038  1.00  0.00    -0.026 C 
HETATM   11  C2  UNL     1      38.949  42.155  12.548  1.00  0.00    -0.030 C 
HETATM   12  C1  UNL     1      39.574  42.536  13.655  1.00  0.00     0.022 C 
HETATM   13  C26 UNL     1      39.508  40.958  11.847  1.00  0.00     0.157 C 
HETATM   14  C23 UNL     1      38.440  39.871  11.763  1.00  0.00     0.050 C 
HETATM   15  C22 UNL     1      37.074  40.481  11.595  1.00  0.00     0.129 C 
HETATM   16  C21 UNL     1      37.112  41.855  11.014  1.00  0.00     0.073 C 
BRANCH  13  17
HETATM   17  O6  UNL     1      39.987  41.192  10.590  1.00  0.00    -0.390 OA
ATOM     18  H6  UNL     1      39.412  40.924   9.882  1.00  0.00     0.210 HD
ENDBRANCH  13  17
BRANCH  14  19
HETATM   19  C24 UNL     1      38.754  39.046  10.545  1.00  0.00     0.036 C 
BRANCH  19  20
HETATM   20  C25 UNL     1      38.651  37.570  10.736  1.00  0.00     0.164 C 
BRANCH  20  21
HETATM   21  O5  UNL     1      38.278  37.331  12.069  1.00  0.00    -0.401 OA
ATOM     22  H5  UNL     1      39.059  37.390  12.607  1.00  0.00     0.209 HD
ENDBRANCH  20  21
ENDBRANCH  19  20
ENDBRANCH  14  19
BRANCH  15  23
HETATM   23  O4  UNL     1      36.532  40.606  12.895  1.00  0.00    -0.395 OA
ATOM     24  H4  UNL     1      35.603  40.769  12.788  1.00  0.00     0.210 HD
ENDBRANCH  15  23
ENDBRANCH   1  10
BRANCH   5  25
HETATM   25  C8  UNL     1      35.943  48.413  10.336  1.00  0.00     0.058 C 
BRANCH  25  26
HETATM   26  C9  UNL     1      34.705  48.448   9.480  1.00  0.00    -0.017 A 
HETATM   27  C10 UNL     1      33.429  48.681   9.910  1.00  0.00     0.015 A 
HETATM   28  C11 UNL     1      32.451  48.675   8.996  1.00  0.00     0.008 A 
HETATM   29  C12 UNL     1      32.817  48.434   7.693  1.00  0.00     0.050 A 
HETATM   30  S1  UNL     1      34.505  48.227   7.804  1.00  0.00    -0.106 SA
ENDBRANCH  25  26
ENDBRANCH   5  25
BRANCH   8  31
HETATM   31  C15 UNL     1      35.246  46.712  14.954  1.00  0.00     0.270 C 
HETATM   32  O2  UNL     1      35.546  47.528  15.876  1.00  0.00    -0.264 OA
BRANCH  31  33
HETATM   33  O3  UNL     1      34.155  45.904  15.163  1.00  0.00    -0.321 OA
BRANCH  33  34
HETATM   34  C16 UNL     1      33.997  44.947  16.168  1.00  0.00     0.182 C 
BRANCH  34  35
HETATM   35  C17 UNL     1      33.222  43.732  15.706  1.00  0.00     0.002 C 
HETATM   36  C18 UNL     1      34.151  42.777  15.018  1.00  0.00     0.011 C 
HETATM   37  C19 UNL     1      32.237  44.244  14.647  1.00  0.00     0.011 C 
ENDBRANCH  34  35
ENDBRANCH  33  34
ENDBRANCH  31  33
ENDBRANCH   8  31
TORSDOF 12
ENDMDL
MODEL 2
REMARK VINA RESULT: -7.141858773      2.468      3.753
REMARK  12 active torsions:
REMARK  status: ('A' for Active; 'I' for Inactive)
REMARK    1  A    between atoms: C3_3  and  C4_4 
REMARK    2  A    between atoms: C7_8  and  C8_9 
REMARK    3  A    between atoms: C8_9  and  C9_10 
REMARK    4  A    between atoms: C14_17  and  C15_18 
REMARK    5  A    between atoms: C15_18  and  O3_20 
REMARK    6  A    between atoms: O3_20  and  C16_21 
REMARK    7  A    between atoms: C16_21  and  C17_22 
REMARK    8  A    between atoms: C22_27  and  O4_28 
REMARK    9  A    between atoms: C23_30  and  C24_31 
REMARK   10  A    between atoms: C24_31  and  C25_32 
REMARK   11  A    between atoms: C25_32  and  O5_33 
REMARK   12  A    between atoms: C26_35  and  O6_36 
ROOT
HETATM    1  C4  UNL     1      38.292  42.818  12.511  1.00  0.00     0.043 C 
HETATM    2 CL1  UNL     1      39.615  43.930  11.907  1.00  0.00    -0.084 Cl
HETATM    3  C5  UNL     1      37.715  43.268  13.579  1.00  0.00    -0.056 C 
HETATM    4  C6  UNL     1      38.177  44.594  14.147  1.00  0.00     0.048 C 
HETATM    5  C7  UNL     1      36.951  45.300  14.684  1.00  0.00     0.065 C 
HETATM    6  C13 UNL     1      36.485  44.504  15.844  1.00  0.00     0.145 C 
HETATM    7  O1  UNL     1      35.951  45.002  16.789  1.00  0.00    -0.297 OA
HETATM    8  C14 UNL     1      36.709  43.038  15.791  1.00  0.00     0.159 C 
HETATM    9  C20 UNL     1      36.640  42.569  14.307  1.00  0.00     0.058 C 
ENDROOT
BRANCH   1  10
HETATM   10  C3  UNL     1      38.139  41.634  11.689  1.00  0.00    -0.026 C 
HETATM   11  C2  UNL     1      36.883  40.966  11.480  1.00  0.00    -0.030 C 
HETATM   12  C1  UNL     1      35.829  41.535  10.910  1.00  0.00     0.022 C 
HETATM   13  C26 UNL     1      36.738  39.528  11.864  1.00  0.00     0.157 C 
HETATM   14  C23 UNL     1      37.794  38.697  11.140  1.00  0.00     0.050 C 
HETATM   15  C22 UNL     1      39.069  39.483  10.980  1.00  0.00     0.129 C 
HETATM   16  C21 UNL     1      39.211  40.580  11.981  1.00  0.00     0.073 C 
BRANCH  13  17
HETATM   17  O6  UNL     1      36.828  39.271  13.202  1.00  0.00    -0.390 OA
ATOM     18  H6  UNL     1      36.024  39.391  13.692  1.00  0.00     0.210 HD
ENDBRANCH  13  17
BRANCH  14  19
HETATM   19  C24 UNL     1      38.071  37.497  12.004  1.00  0.00     0.036 C 
BRANCH  19  20
HETATM   20  C25 UNL     1      37.069  36.397  11.899  1.00  0.00     0.164 C 
BRANCH  20  21
HETATM   21  O5  UNL     1      36.600  36.114  13.193  1.00  0.00    -0.401 OA
ATOM     22  H5  UNL     1      35.675  36.327  13.221  1.00  0.00     0.209 HD
ENDBRANCH  20  21
ENDBRANCH  19  20
ENDBRANCH  14  19
BRANCH  15  23
HETATM   23  O4  UNL     1      38.999  40.099   9.710  1.00  0.00    -0.395 OA
ATOM     24  H4  UNL     1      38.731  39.426   9.096  1.00  0.00     0.210 HD
ENDBRANCH  15  23
ENDBRANCH   1  10
BRANCH   5  25
HETATM   25  C8  UNL     1      37.199  46.734  14.998  1.00  0.00     0.058 C 
BRANCH  25  26
HETATM   26  C9  UNL     1      36.940  47.623  13.810  1.00  0.00    -0.017 A 
HETATM   27  C10 UNL     1      36.056  47.383  12.796  1.00  0.00     0.015 A 
HETATM   28  C11 UNL     1      35.962  48.296  11.820  1.00  0.00     0.008 A 
HETATM   29  C12 UNL     1      36.768  49.405  11.925  1.00  0.00     0.050 A 
HETATM   30  S1  UNL     1      37.618  49.123  13.375  1.00  0.00    -0.106 SA
ENDBRANCH  25  26
ENDBRANCH   5  25
BRANCH   8  31
HETATM   31  C15 UNL     1      35.744  42.260  16.599  1.00  0.00     0.270 C 
HETATM   32  O2  UNL     1      36.129  41.751  17.694  1.00  0.00    -0.264 OA
BRANCH  31  33
HETATM   33  O3  UNL     1      34.436  42.047  16.235  1.00  0.00    -0.321 OA
BRANCH  33  34
HETATM   34  C16 UNL     1      33.301  42.642  16.790  1.00  0.00     0.182 C 
BRANCH  34  35
HETATM   35  C17 UNL     1      32.352  43.186  15.745  1.00  0.00     0.002 C 
HETATM   36  C18 UNL     1      33.138  43.773  14.612  1.00  0.00     0.011 C 
HETATM   37  C19 UNL     1      31.605  44.343  16.422  1.00  0.00     0.011 C 
ENDBRANCH  34  35
ENDBRANCH  33  34
ENDBRANCH  31  33
ENDBRANCH   8  31
TORSDOF 12
ENDMDL
MODEL 3
REMARK VINA RESULT: -7.044953990      1.517      1.860
REMARK  12 active torsions:
REMARK  status: ('A' for Active; 'I' for Inactive)
REMARK    1  A    between atoms: C3_3  and  C4_4 
REMARK    2  A    between atoms: C7_8  and  C8_9 
REMARK    3  A    between atoms: C8_9  and  C9_10 
REMARK    4  A    between atoms: C14_17  and  C15_18 
REMARK    5  A    between atoms: C15_18  and  O3_20 
REMARK    6  A    between atoms: O3_20  and  C16_21 
REMARK    7  A    between atoms: C16_21  and  C17_22 
REMARK    8  A    between atoms: C22_27  and  O4_28 
REMARK    9  A    between atoms: C23_30  and  C24_31 
REMARK   10  A    between atoms: C24_31  and  C25_32 
REMARK   11  A    between atoms: C25_32  and  O5_33 
REMARK   12  A    between atoms: C26_35  and  O6_36 
ROOT
HETATM    1  C4  UNL     1      37.374  44.472  11.973  1.00  0.00     0.043 C 
HETATM    2 CL1  UNL     1      38.240  44.377  10.363  1.00  0.00    -0.084 Cl
HETATM    3  C5  UNL     1      36.954  45.666  12.241  1.00  0.00    -0.056 C 
HETATM    4  C6  UNL     1      37.208  46.766  11.231  1.00  0.00     0.048 C 
HETATM    5  C7  UNL     1      35.998  47.676  11.247  1.00  0.00     0.065 C 
HETATM    6  C13 UNL     1      35.993  48.338  12.573  1.00  0.00     0.145 C 
HETATM    7  O1  UNL     1      35.576  49.446  12.732  1.00  0.00    -0.297 OA
HETATM    8  C14 UNL     1      36.533  47.565  13.717  1.00  0.00     0.159 C 
HETATM    9  C20 UNL     1      36.253  46.050  13.481  1.00  0.00     0.058 C 
ENDROOT
BRANCH   1  10
HETATM   10  C3  UNL     1      37.324  43.195  12.658  1.00  0.00    -0.026 C 
HETATM   11  C2  UNL     1      38.468  42.343  12.841  1.00  0.00    -0.030 C 
HETATM   12  C1  UNL     1      39.553  42.698  13.518  1.00  0.00     0.022 C 
HETATM   13  C26 UNL     1      38.447  40.950  12.298  1.00  0.00     0.157 C 
HETATM   14  C23 UNL     1      37.252  40.196  12.875  1.00  0.00     0.050 C 
HETATM   15  C22 UNL     1      36.083  41.125  13.070  1.00  0.00     0.129 C 
HETATM   16  C21 UNL     1      36.143  42.335  12.200  1.00  0.00     0.073 C 
BRANCH  13  17
HETATM   17  O6  UNL     1      38.402  40.856  10.937  1.00  0.00    -0.390 OA
ATOM     18  H6  UNL     1      37.986  40.071  10.599  1.00  0.00     0.210 HD
ENDBRANCH  13  17
BRANCH  14  19
HETATM   19  C24 UNL     1      36.871  39.147  11.866  1.00  0.00     0.036 C 
BRANCH  19  20
HETATM   20  C25 UNL     1      37.489  37.806  12.083  1.00  0.00     0.164 C 
BRANCH  20  21
HETATM   21  O5  UNL     1      36.894  37.235  13.219  1.00  0.00    -0.401 OA
ATOM     22  H5  UNL     1      37.218  36.345  13.304  1.00  0.00     0.209 HD
ENDBRANCH  20  21
ENDBRANCH  19  20
ENDBRANCH  14  19
BRANCH  15  23
HETATM   23  O4  UNL     1      36.159  41.583  14.406  1.00  0.00    -0.395 OA
ATOM     24  H4  UNL     1      36.870  42.211  14.437  1.00  0.00     0.210 HD
ENDBRANCH  15  23
ENDBRANCH   1  10
BRANCH   5  25
HETATM   25  C8  UNL     1      35.970  48.623  10.099  1.00  0.00     0.058 C 
BRANCH  25  26
HETATM   26  C9  UNL     1      34.666  48.559   9.348  1.00  0.00    -0.017 A 
HETATM   27  C10 UNL     1      33.419  48.744   9.874  1.00  0.00     0.015 A 
HETATM   28  C11 UNL     1      32.371  48.650   9.045  1.00  0.00     0.008 A 
HETATM   29  C12 UNL     1      32.643  48.375   7.727  1.00  0.00     0.050 A 
HETATM   30  S1  UNL     1      34.343  48.259   7.704  1.00  0.00    -0.106 SA
ENDBRANCH  25  26
ENDBRANCH   5  25
BRANCH   8  31
HETATM   31  C15 UNL     1      35.973  47.969  15.026  1.00  0.00     0.270 C 
HETATM   32  O2  UNL     1      36.575  48.853  15.705  1.00  0.00    -0.264 OA
BRANCH  31  33
HETATM   33  O3  UNL     1      34.823  47.441  15.564  1.00  0.00    -0.321 OA
BRANCH  33  34
HETATM   34  C16 UNL     1      33.541  47.991  15.512  1.00  0.00     0.182 C 
BRANCH  34  35
HETATM   35  C17 UNL     1      32.756  47.537  14.301  1.00  0.00     0.002 C 
HETATM   36  C18 UNL     1      32.353  48.732  13.489  1.00  0.00     0.011 C 
HETATM   37  C19 UNL     1      31.467  46.911  14.850  1.00  0.00     0.011 C 
ENDBRANCH  34  35
ENDBRANCH  33  34
ENDBRANCH  31  33
ENDBRANCH   8  31
TORSDOF 12
ENDMDL
MODEL 4
REMARK VINA RESULT: -6.954657513      2.667      3.603
REMARK  12 active torsions:
REMARK  status: ('A' for Active; 'I' for Inactive)
REMARK    1  A    between atoms: C3_3  and  C4_4 
REMARK    2  A    between atoms: C7_8  and  C8_9 
REMARK    3  A    between atoms: C8_9  and  C9_10 
REMARK    4  A    between atoms: C14_17  and  C15_18 
REMARK    5  A    between atoms: C15_18  and  O3_20 
REMARK    6  A    between atoms: O3_20  and  C16_21 
REMARK    7  A    between atoms: C16_21  and  C17_22 
REMARK    8  A    between atoms: C22_27  and  O4_28 
REMARK    9  A    between atoms: C23_30  and  C24_31 
REMARK   10  A    between atoms: C24_31  and  C25_32 
REMARK   11  A    between atoms: C25_32  and  O5_33 
REMARK   12  A    between atoms: C26_35  and  O6_36 
ROOT
HETATM    1  C4  UNL     1      37.428  43.733  12.201  1.00  0.00     0.043 C 
HETATM    2 CL1  UNL     1      38.230  45.153  11.369  1.00  0.00    -0.084 Cl
HETATM    3  C5  UNL     1      36.931  44.048  13.353  1.00  0.00    -0.056 C 
HETATM    4  C6  UNL     1      37.060  45.480  13.830  1.00  0.00     0.048 C 
HETATM    5  C7  UNL     1      35.787  45.819  14.576  1.00  0.00     0.065 C 
HETATM    6  C13 UNL     1      35.788  44.984  15.800  1.00  0.00     0.145 C 
HETATM    7  O1  UNL     1      35.297  45.352  16.825  1.00  0.00    -0.297 OA
HETATM    8  C14 UNL     1      36.432  43.651  15.710  1.00  0.00     0.159 C 
HETATM    9  C20 UNL     1      36.257  43.102  14.262  1.00  0.00     0.058 C 
ENDROOT
BRANCH   1  10
HETATM   10  C3  UNL     1      37.502  42.514  11.420  1.00  0.00    -0.026 C 
HETATM   11  C2  UNL     1      36.430  41.560  11.326  1.00  0.00    -0.030 C 
HETATM   12  C1  UNL     1      35.232  41.841  10.829  1.00  0.00     0.022 C 
HETATM   13  C26 UNL     1      36.660  40.145  11.752  1.00  0.00     0.157 C 
HETATM   14  C23 UNL     1      37.828  39.558  10.965  1.00  0.00     0.050 C 
HETATM   15  C22 UNL     1      38.865  40.615  10.687  1.00  0.00     0.129 C 
HETATM   16  C21 UNL     1      38.813  41.755  11.649  1.00  0.00     0.073 C 
BRANCH  13  17
HETATM   17  O6  UNL     1      36.904  39.971  13.084  1.00  0.00    -0.390 OA
ATOM     18  H6  UNL     1      37.199  40.748  13.546  1.00  0.00     0.210 HD
ENDBRANCH  13  17
BRANCH  14  19
HETATM   19  C24 UNL     1      38.445  38.494  11.830  1.00  0.00     0.036 C 
BRANCH  19  20
HETATM   20  C25 UNL     1      37.783  37.158  11.759  1.00  0.00     0.164 C 
BRANCH  20  21
HETATM   21  O5  UNL     1      37.277  36.857  13.034  1.00  0.00    -0.401 OA
ATOM     22  H5  UNL     1      36.611  36.186  12.933  1.00  0.00     0.209 HD
ENDBRANCH  20  21
ENDBRANCH  19  20
ENDBRANCH  14  19
BRANCH  15  23
HETATM   23  O4  UNL     1      38.559  41.146   9.413  1.00  0.00    -0.395 OA
ATOM     24  H4  UNL     1      38.486  40.407   8.821  1.00  0.00     0.210 HD
ENDBRANCH  15  23
ENDBRANCH   1  10
BRANCH   5  25
HETATM   25  C8  UNL     1      35.640  47.276  14.839  1.00  0.00     0.058 C 
BRANCH  25  26
HETATM   26  C9  UNL     1      34.287  47.790  14.421  1.00  0.00    -0.017 A 
HETATM   27  C10 UNL     1      33.079  47.228  14.722  1.00  0.00     0.015 A 
HETATM   28  C11 UNL     1      31.977  47.833  14.260  1.00  0.00     0.008 A 
HETATM   29  C12 UNL     1      32.158  48.977  13.520  1.00  0.00     0.050 A 
HETATM   30  S1  UNL     1      33.852  49.154  13.500  1.00  0.00    -0.106 SA
ENDBRANCH  25  26
ENDBRANCH   5  25
BRANCH   8  31
HETATM   31  C15 UNL     1      35.899  42.666  16.677  1.00  0.00     0.270 C 
HETATM   32  O2  UNL     1      36.622  42.311  17.654  1.00  0.00    -0.264 OA
BRANCH  31  33
HETATM   33  O3  UNL     1      34.650  42.100  16.584  1.00  0.00    -0.321 OA
BRANCH  33  34
HETATM   34  C16 UNL     1      33.590  42.249  17.482  1.00  0.00     0.182 C 
BRANCH  34  35
HETATM   35  C17 UNL     1      32.357  42.846  16.841  1.00  0.00     0.002 C 
HETATM   36  C18 UNL     1      32.670  43.247  15.431  1.00  0.00     0.011 C 
HETATM   37  C19 UNL     1      32.065  44.135  17.621  1.00  0.00     0.011 C 
ENDBRANCH  34  35
ENDBRANCH  33  34
ENDBRANCH  31  33
ENDBRANCH   8  31
TORSDOF 12
ENDMDL
MODEL 5
REMARK VINA RESULT: -6.953225831      1.401      1.831
REMARK  12 active torsions:
REMARK  status: ('A' for Active; 'I' for Inactive)
REMARK    1  A    between atoms: C3_3  and  C4_4 
REMARK    2  A    between atoms: C7_8  and  C8_9 
REMARK    3  A    between atoms: C8_9  and  C9_10 
REMARK    4  A    between atoms: C14_17  and  C15_18 
REMARK    5  A    between atoms: C15_18  and  O3_20 
REMARK    6  A    between atoms: O3_20  and  C16_21 
REMARK    7  A    between atoms: C16_21  and  C17_22 
REMARK    8  A    between atoms: C22_27  and  O4_28 
REMARK    9  A    between atoms: C23_30  and  C24_31 
REMARK   10  A    between atoms: C24_31  and  C25_32 
REMARK   11  A    between atoms: C25_32  and  O5_33 
REMARK   12  A    between atoms: C26_35  and  O6_36 
ROOT
HETATM    1  C4  UNL     1      37.751  44.076  11.618  1.00  0.00     0.043 C 
HETATM    2 CL1  UNL     1      38.753  44.409  10.123  1.00  0.00    -0.084 Cl
HETATM    3  C5  UNL     1      37.163  45.137  12.068  1.00  0.00    -0.056 C 
HETATM    4  C6  UNL     1      37.360  46.443  11.327  1.00  0.00     0.048 C 
HETATM    5  C7  UNL     1      36.049  47.196  11.391  1.00  0.00     0.065 C 
HETATM    6  C13 UNL     1      35.849  47.564  12.812  1.00  0.00     0.145 C 
HETATM    7  O1  UNL     1      35.284  48.564  13.140  1.00  0.00    -0.297 OA
HETATM    8  C14 UNL     1      36.384  46.632  13.834  1.00  0.00     0.159 C 
HETATM    9  C20 UNL     1      36.318  45.178  13.276  1.00  0.00     0.058 C 
ENDROOT
BRANCH   1  10
HETATM   10  C3  UNL     1      37.805  42.687  12.029  1.00  0.00    -0.026 C 
HETATM   11  C2  UNL     1      38.980  42.062  12.575  1.00  0.00    -0.030 C 
HETATM   12  C1  UNL     1      39.567  42.449  13.700  1.00  0.00     0.022 C 
HETATM   13  C26 UNL     1      39.567  40.868  11.892  1.00  0.00     0.157 C 
HETATM   14  C23 UNL     1      38.510  39.773  11.778  1.00  0.00     0.050 C 
HETATM   15  C22 UNL     1      37.145  40.374  11.568  1.00  0.00     0.129 C 
HETATM   16  C21 UNL     1      37.191  41.747  10.987  1.00  0.00     0.073 C 
BRANCH  13  17
HETATM   17  O6  UNL     1      40.082  41.104  10.650  1.00  0.00    -0.390 OA
ATOM     18  H6  UNL     1      39.499  40.906   9.926  1.00  0.00     0.210 HD
ENDBRANCH  13  17
BRANCH  14  19
HETATM   19  C24 UNL     1      38.866  38.949  10.571  1.00  0.00     0.036 C 
BRANCH  19  20
HETATM   20  C25 UNL     1      38.569  37.492  10.689  1.00  0.00     0.164 C 
BRANCH  20  21
HETATM   21  O5  UNL     1      38.321  37.209  12.043  1.00  0.00    -0.401 OA
ATOM     22  H5  UNL     1      38.876  36.481  12.296  1.00  0.00     0.209 HD
ENDBRANCH  20  21
ENDBRANCH  19  20
ENDBRANCH  14  19
BRANCH  15  23
HETATM   23  O4  UNL     1      36.564  40.496  12.851  1.00  0.00    -0.395 OA
ATOM     24  H4  UNL     1      36.524  41.425  13.043  1.00  0.00     0.210 HD
ENDBRANCH  15  23
ENDBRANCH   1  10
BRANCH   5  25
HETATM   25  C8  UNL     1      35.997  48.352  10.454  1.00  0.00     0.058 C 
BRANCH  25  26
HETATM   26  C9  UNL     1      34.653  48.476   9.785  1.00  0.00    -0.017 A 
HETATM   27  C10 UNL     1      34.342  48.080   8.515  1.00  0.00     0.015 A 
HETATM   28  C11 UNL     1      33.085  48.270   8.093  1.00  0.00     0.008 A 
HETATM   29  C12 UNL     1      32.211  48.851   8.980  1.00  0.00     0.050 A 
HETATM   30  S1  UNL     1      33.179  49.104  10.359  1.00  0.00    -0.106 SA
ENDBRANCH  25  26
ENDBRANCH   5  25
BRANCH   8  31
HETATM   31  C15 UNL     1      35.670  46.694  15.129  1.00  0.00     0.270 C 
HETATM   32  O2  UNL     1      34.404  46.674  15.133  1.00  0.00    -0.264 OA
BRANCH  31  33
HETATM   33  O3  UNL     1      36.299  46.774  16.348  1.00  0.00    -0.321 OA
BRANCH  33  34
HETATM   34  C16 UNL     1      36.495  45.737  17.263  1.00  0.00     0.182 C 
BRANCH  34  35
HETATM   35  C17 UNL     1      37.523  44.730  16.799  1.00  0.00     0.002 C 
HETATM   36  C18 UNL     1      36.838  43.448  16.432  1.00  0.00     0.011 C 
HETATM   37  C19 UNL     1      38.401  44.436  18.023  1.00  0.00     0.011 C 
ENDBRANCH  34  35
ENDBRANCH  33  34
ENDBRANCH  31  33
ENDBRANCH   8  31
TORSDOF 12
ENDMDL
