MODEL 1
REMARK VINA RESULT: -6.440344909      0.000      0.000
REMARK  11 active torsions:
REMARK  status: ('A' for Active; 'I' for Inactive)
REMARK    1  A    between atoms: O1_2  and  C2_3 
REMARK    2  A    between atoms: C2_3  and  C3_5 
REMARK    3  A    between atoms: C3_5  and  O3_6 
REMARK    4  A    between atoms: C5_9  and  O4_10 
REMARK    5  A    between atoms: C8_14  and  S1_15 
REMARK    6  A    between atoms: C13_21  and  C14_22 
REMARK    7  A    between atoms: C14_22  and  C15_23 
REMARK    8  A    between atoms: C18_27  and  C19_28 
REMARK    9  A    between atoms: C19_28  and  C21_30 
REMARK   10  A    between atoms: C19_28  and  C24_34 
REMARK   11  A    between atoms: C21_30  and  C22_31 
ROOT
HETATM    1  C3  UNL     1      33.230  43.201  15.998  1.00  0.00     0.152 C 
HETATM    2  C4  UNL     1      33.790  43.368  17.423  1.00  0.00     0.081 C 
HETATM    3  C5  UNL     1      34.493  44.549  17.857  1.00  0.00     0.127 C 
HETATM    4  C6  UNL     1      35.953  44.726  17.810  1.00  0.00     0.089 C 
HETATM    5  C7  UNL     1      36.591  44.555  16.417  1.00  0.00     0.016 C 
HETATM    6  C8  UNL     1      37.847  44.316  16.490  1.00  0.00     0.069 C 
HETATM    7  N1  UNL     1      36.066  44.550  15.107  1.00  0.00    -0.377 N 
HETATM    8  C10 UNL     1      34.660  44.811  14.813  1.00  0.00     0.131 C 
HETATM    9  C11 UNL     1      34.241  43.304  15.028  1.00  0.00     0.049 C 
HETATM   10  C12 UNL     1      34.582  42.753  13.751  1.00  0.00     0.016 C 
HETATM   11  C13 UNL     1      36.057  42.857  13.443  1.00  0.00     0.013 C 
HETATM   12  C18 UNL     1      36.849  44.061  14.105  1.00  0.00     0.101 C 
ENDROOT
BRANCH  12  13
HETATM   13  C19 UNL     1      37.221  44.932  12.873  1.00  0.00     0.002 C 
HETATM   14  C20 UNL     1      36.322  44.793  11.699  1.00  0.00     0.022 C 
BRANCH  13  15
HETATM   15  C21 UNL     1      38.655  44.528  12.632  1.00  0.00     0.034 C 
BRANCH  15  16
HETATM   16  C22 UNL     1      39.275  44.475  11.343  1.00  0.00     0.142 C 
HETATM   17  C23 UNL     1      39.108  43.536  10.219  1.00  0.00     0.095 C 
HETATM   18  O5  UNL     1      40.128  45.370  11.081  1.00  0.00    -0.294 OA
ENDBRANCH  15  16
ENDBRANCH  13  15
BRANCH  13  19
HETATM   19  C24 UNL     1      37.081  46.397  13.183  1.00  0.00    -0.000 A 
HETATM   20  C25 UNL     1      37.480  47.549  12.421  1.00  0.00     0.006 A 
HETATM   21  C26 UNL     1      36.033  47.311  12.738  1.00  0.00     0.006 A 
ENDBRANCH  13  19
ENDBRANCH  12  13
BRANCH  11  22
HETATM   22  C14 UNL     1      36.689  41.565  13.898  1.00  0.00     0.035 C 
BRANCH  22  23
HETATM   23  C15 UNL     1      36.825  40.543  12.832  1.00  0.00    -0.007 C 
HETATM   24  C16 UNL     1      38.059  40.361  12.339  1.00  0.00     0.004 C 
HETATM   25  C17 UNL     1      38.305  39.358  11.265  1.00  0.00     0.061 C 
HETATM   26 CL1  UNL     1      39.450  41.258  12.903  1.00  0.00    -0.090 Cl
ENDBRANCH  22  23
ENDBRANCH  11  22
BRANCH   6  27
HETATM   27  S1  UNL     1      38.623  44.218  18.098  1.00  0.00    -0.144 SA
HETATM   28  C9  UNL     1      38.437  42.544  18.787  1.00  0.00     0.095 C 
ENDBRANCH   6  27
BRANCH   3  29
HETATM   29  O4  UNL     1      34.310  44.478  19.308  1.00  0.00    -0.395 OA
ATOM     30  H4  UNL     1      35.135  44.831  19.619  1.00  0.00     0.210 HD
ENDBRANCH   3  29
BRANCH   1  31
HETATM   31  C2  UNL     1      31.949  43.880  15.797  1.00  0.00     0.293 C 
HETATM   32  O2  UNL     1      31.511  44.100  14.651  1.00  0.00    -0.262 OA
BRANCH  31  33
HETATM   33  O1  UNL     1      31.120  44.333  16.837  1.00  0.00    -0.324 OA
HETATM   34  C1  UNL     1      30.345  45.529  16.690  1.00  0.00     0.213 C 
ENDBRANCH  31  33
ENDBRANCH   1  31
BRANCH   1  35
HETATM   35  O3  UNL     1      32.854  41.795  16.033  1.00  0.00    -0.379 OA
ATOM     36  H3  UNL     1      33.641  41.370  16.353  1.00  0.00     0.211 HD
ENDBRANCH   1  35
TORSDOF 11
ENDMDL
MODEL 2
REMARK VINA RESULT: -6.332478495      2.904      6.866
REMARK  11 active torsions:
REMARK  status: ('A' for Active; 'I' for Inactive)
REMARK    1  A    between atoms: O1_2  and  C2_3 
REMARK    2  A    between atoms: C2_3  and  C3_5 
REMARK    3  A    between atoms: C3_5  and  O3_6 
REMARK    4  A    between atoms: C5_9  and  O4_10 
REMARK    5  A    between atoms: C8_14  and  S1_15 
REMARK    6  A    between atoms: C13_21  and  C14_22 
REMARK    7  A    between atoms: C14_22  and  C15_23 
REMARK    8  A    between atoms: C18_27  and  C19_28 
REMARK    9  A    between atoms: C19_28  and  C21_30 
REMARK   10  A    between atoms: C19_28  and  C24_34 
REMARK   11  A    between atoms: C21_30  and  C22_31 
ROOT
HETATM    1  C3  UNL     1      37.415  41.484  11.841  1.00  0.00     0.152 C 
HETATM    2  C4  UNL     1      37.809  42.596  10.850  1.00  0.00     0.081 C 
HETATM    3  C5  UNL     1      38.756  43.634  11.171  1.00  0.00     0.127 C 
HETATM    4  C6  UNL     1      38.406  44.952  11.724  1.00  0.00     0.089 C 
HETATM    5  C7  UNL     1      37.615  44.922  13.046  1.00  0.00     0.016 C 
HETATM    6  C8  UNL     1      37.000  46.023  13.264  1.00  0.00     0.069 C 
HETATM    7  N1  UNL     1      37.388  43.920  14.014  1.00  0.00    -0.377 N 
HETATM    8  C10 UNL     1      38.005  42.598  13.951  1.00  0.00     0.131 C 
HETATM    9  C11 UNL     1      36.870  42.012  13.023  1.00  0.00     0.049 C 
HETATM   10  C12 UNL     1      35.875  41.689  14.001  1.00  0.00     0.016 C 
HETATM   11  C13 UNL     1      35.376  42.899  14.753  1.00  0.00     0.013 C 
HETATM   12  C18 UNL     1      36.383  44.114  14.914  1.00  0.00     0.101 C 
ENDROOT
BRANCH  12  13
HETATM   13  C19 UNL     1      36.658  44.118  16.443  1.00  0.00     0.002 C 
HETATM   14  C20 UNL     1      38.035  44.509  16.842  1.00  0.00     0.022 C 
BRANCH  13  15
HETATM   15  C21 UNL     1      36.252  42.718  16.833  1.00  0.00     0.034 C 
BRANCH  15  16
HETATM   16  C22 UNL     1      36.101  42.266  18.183  1.00  0.00     0.142 C 
HETATM   17  C23 UNL     1      34.947  42.303  19.100  1.00  0.00     0.095 C 
HETATM   18  O5  UNL     1      37.113  41.739  18.726  1.00  0.00    -0.294 OA
ENDBRANCH  15  16
ENDBRANCH  13  15
BRANCH  13  19
HETATM   19  C24 UNL     1      35.837  45.170  17.138  1.00  0.00    -0.000 A 
HETATM   20  C25 UNL     1      36.240  46.220  18.034  1.00  0.00     0.006 A 
HETATM   21  C26 UNL     1      35.603  46.547  16.716  1.00  0.00     0.006 A 
ENDBRANCH  13  19
ENDBRANCH  12  13
BRANCH  11  22
HETATM   22  C14 UNL     1      34.151  43.391  14.024  1.00  0.00     0.035 C 
BRANCH  22  23
HETATM   23  C15 UNL     1      33.309  44.327  14.807  1.00  0.00    -0.007 C 
HETATM   24  C16 UNL     1      32.622  43.793  15.828  1.00  0.00     0.004 C 
HETATM   25  C17 UNL     1      31.745  44.646  16.680  1.00  0.00     0.061 C 
HETATM   26 CL1  UNL     1      32.699  42.096  16.242  1.00  0.00    -0.090 Cl
ENDBRANCH  22  23
ENDBRANCH  11  22
BRANCH   6  27
HETATM   27  S1  UNL     1      37.141  47.350  12.072  1.00  0.00    -0.144 SA
HETATM   28  C9  UNL     1      37.561  48.909  12.912  1.00  0.00     0.095 C 
ENDBRANCH   6  27
BRANCH   3  29
HETATM   29  O4  UNL     1      39.196  44.046   9.837  1.00  0.00    -0.395 OA
ATOM     30  H4  UNL     1      38.816  44.915   9.774  1.00  0.00     0.210 HD
ENDBRANCH   3  29
BRANCH   1  31
HETATM   31  C2  UNL     1      38.390  40.396  11.906  1.00  0.00     0.293 C 
HETATM   32  O2  UNL     1      38.024  39.208  11.990  1.00  0.00    -0.262 OA
BRANCH  31  33
HETATM   33  O1  UNL     1      39.784  40.577  11.881  1.00  0.00    -0.324 OA
HETATM   34  C1  UNL     1      40.622  39.716  11.102  1.00  0.00     0.213 C 
ENDBRANCH  31  33
ENDBRANCH   1  31
BRANCH   1  35
HETATM   35  O3  UNL     1      36.300  40.883  11.123  1.00  0.00    -0.379 OA
ATOM     36  H3  UNL     1      35.761  41.633  10.898  1.00  0.00     0.211 HD
ENDBRANCH   1  35
TORSDOF 11
ENDMDL
MODEL 3
REMARK VINA RESULT: -6.237737549      2.803      5.483
REMARK  11 active torsions:
REMARK  status: ('A' for Active; 'I' for Inactive)
REMARK    1  A    between atoms: O1_2  and  C2_3 
REMARK    2  A    between atoms: C2_3  and  C3_5 
REMARK    3  A    between atoms: C3_5  and  O3_6 
REMARK    4  A    between atoms: C5_9  and  O4_10 
REMARK    5  A    between atoms: C8_14  and  S1_15 
REMARK    6  A    between atoms: C13_21  and  C14_22 
REMARK    7  A    between atoms: C14_22  and  C15_23 
REMARK    8  A    between atoms: C18_27  and  C19_28 
REMARK    9  A    between atoms: C19_28  and  C21_30 
REMARK   10  A    between atoms: C19_28  and  C24_34 
REMARK   11  A    between atoms: C21_30  and  C22_31 
ROOT
HETATM    1  C3  UNL     1      36.996  44.522  17.995  1.00  0.00     0.152 C 
HETATM    2  C4  UNL     1      35.521  44.283  18.368  1.00  0.00     0.081 C 
HETATM    3  C5  UNL     1      34.720  43.242  17.775  1.00  0.00     0.127 C 
HETATM    4  C6  UNL     1      33.864  43.409  16.589  1.00  0.00     0.089 C 
HETATM    5  C7  UNL     1      34.585  43.918  15.325  1.00  0.00     0.016 C 
HETATM    6  C8  UNL     1      33.769  44.422  14.478  1.00  0.00     0.069 C 
HETATM    7  N1  UNL     1      35.943  43.993  14.950  1.00  0.00    -0.377 N 
HETATM    8  C10 UNL     1      37.026  43.465  15.776  1.00  0.00     0.131 C 
HETATM    9  C11 UNL     1      37.148  44.791  16.624  1.00  0.00     0.049 C 
HETATM   10  C12 UNL     1      37.966  45.583  15.756  1.00  0.00     0.016 C 
HETATM   11  C13 UNL     1      37.310  45.861  14.425  1.00  0.00     0.013 C 
HETATM   12  C18 UNL     1      36.274  44.785  13.893  1.00  0.00     0.101 C 
ENDROOT
BRANCH  12  13
HETATM   13  C19 UNL     1      37.002  44.207  12.648  1.00  0.00     0.002 C 
HETATM   14  C20 UNL     1      36.876  45.011  11.405  1.00  0.00     0.022 C 
BRANCH  13  15
HETATM   15  C21 UNL     1      36.424  42.815  12.571  1.00  0.00     0.034 C 
BRANCH  15  16
HETATM   16  C22 UNL     1      36.208  42.095  11.354  1.00  0.00     0.142 C 
HETATM   17  C23 UNL     1      37.154  41.513  10.384  1.00  0.00     0.095 C 
HETATM   18  O5  UNL     1      35.007  41.904  11.007  1.00  0.00    -0.294 OA
ENDBRANCH  15  16
ENDBRANCH  13  15
BRANCH  13  19
HETATM   19  C24 UNL     1      38.493  44.201  12.847  1.00  0.00    -0.000 A 
HETATM   20  C25 UNL     1      39.407  43.098  12.978  1.00  0.00     0.006 A 
HETATM   21  C26 UNL     1      39.532  44.059  11.832  1.00  0.00     0.006 A 
ENDBRANCH  13  19
ENDBRANCH  12  13
BRANCH  11  22
HETATM   22  C14 UNL     1      36.597  47.183  14.558  1.00  0.00     0.035 C 
BRANCH  22  23
HETATM   23  C15 UNL     1      36.673  48.042  13.352  1.00  0.00    -0.007 C 
HETATM   24  C16 UNL     1      37.456  49.127  13.446  1.00  0.00     0.004 C 
HETATM   25  C17 UNL     1      37.603  50.057  12.292  1.00  0.00     0.061 C 
HETATM   26 CL1  UNL     1      38.354  49.529  14.891  1.00  0.00    -0.090 Cl
ENDBRANCH  22  23
ENDBRANCH  11  22
BRANCH   6  27
HETATM   27  S1  UNL     1      32.023  44.461  14.866  1.00  0.00    -0.144 SA
HETATM   28  C9  UNL     1      31.440  46.181  14.976  1.00  0.00     0.095 C 
ENDBRANCH   6  27
BRANCH   3  29
HETATM   29  O4  UNL     1      33.683  43.060  18.792  1.00  0.00    -0.395 OA
ATOM     30  H4  UNL     1      34.056  42.362  19.317  1.00  0.00     0.210 HD
ENDBRANCH   3  29
BRANCH   1  31
HETATM   31  C2  UNL     1      37.919  43.606  18.668  1.00  0.00     0.293 C 
HETATM   32  O2  UNL     1      39.136  43.609  18.402  1.00  0.00    -0.262 OA
BRANCH  31  33
HETATM   33  O1  UNL     1      37.536  42.671  19.644  1.00  0.00    -0.324 OA
HETATM   34  C1  UNL     1      37.657  41.265  19.400  1.00  0.00     0.213 C 
ENDBRANCH  31  33
ENDBRANCH   1  31
BRANCH   1  35
HETATM   35  O3  UNL     1      37.233  45.786  18.677  1.00  0.00    -0.379 OA
ATOM     36  H3  UNL     1      37.002  46.431  18.018  1.00  0.00     0.211 HD
ENDBRANCH   1  35
TORSDOF 11
ENDMDL
MODEL 4
REMARK VINA RESULT: -6.237214613      2.587      5.391
REMARK  11 active torsions:
REMARK  status: ('A' for Active; 'I' for Inactive)
REMARK    1  A    between atoms: O1_2  and  C2_3 
REMARK    2  A    between atoms: C2_3  and  C3_5 
REMARK    3  A    between atoms: C3_5  and  O3_6 
REMARK    4  A    between atoms: C5_9  and  O4_10 
REMARK    5  A    between atoms: C8_14  and  S1_15 
REMARK    6  A    between atoms: C13_21  and  C14_22 
REMARK    7  A    between atoms: C14_22  and  C15_23 
REMARK    8  A    between atoms: C18_27  and  C19_28 
REMARK    9  A    between atoms: C19_28  and  C21_30 
REMARK   10  A    between atoms: C19_28  and  C24_34 
REMARK   11  A    between atoms: C21_30  and  C22_31 
ROOT
HETATM    1  C3  UNL     1      36.789  44.693  18.091  1.00  0.00     0.152 C 
HETATM    2  C4  UNL     1      35.304  44.566  18.480  1.00  0.00     0.081 C 
HETATM    3  C5  UNL     1      34.475  43.462  18.064  1.00  0.00     0.127 C 
HETATM    4  C6  UNL     1      33.634  43.448  16.856  1.00  0.00     0.089 C 
HETATM    5  C7  UNL     1      34.380  43.709  15.533  1.00  0.00     0.016 C 
HETATM    6  C8  UNL     1      33.587  44.084  14.601  1.00  0.00     0.069 C 
HETATM    7  N1  UNL     1      35.743  43.678  15.169  1.00  0.00    -0.377 N 
HETATM    8  C10 UNL     1      36.802  43.268  16.087  1.00  0.00     0.131 C 
HETATM    9  C11 UNL     1      36.960  44.716  16.696  1.00  0.00     0.049 C 
HETATM   10  C12 UNL     1      37.809  45.322  15.715  1.00  0.00     0.016 C 
HETATM   11  C13 UNL     1      37.173  45.385  14.348  1.00  0.00     0.013 C 
HETATM   12  C18 UNL     1      36.107  44.265  13.995  1.00  0.00     0.101 C 
ENDROOT
BRANCH  12  13
HETATM   13  C19 UNL     1      36.827  43.460  12.878  1.00  0.00     0.002 C 
HETATM   14  C20 UNL     1      38.068  42.758  13.297  1.00  0.00     0.022 C 
BRANCH  13  15
HETATM   15  C21 UNL     1      37.015  44.511  11.812  1.00  0.00     0.034 C 
BRANCH  15  16
HETATM   16  C22 UNL     1      38.223  44.706  11.071  1.00  0.00     0.142 C 
HETATM   17  C23 UNL     1      38.886  43.873  10.051  1.00  0.00     0.095 C 
HETATM   18  O5  UNL     1      38.875  45.764  11.306  1.00  0.00    -0.294 OA
ENDBRANCH  15  16
ENDBRANCH  13  15
BRANCH  13  19
HETATM   19  C24 UNL     1      35.979  42.309  12.408  1.00  0.00    -0.000 A 
HETATM   20  C25 UNL     1      35.402  42.048  11.117  1.00  0.00     0.006 A 
HETATM   21  C26 UNL     1      36.413  41.107  11.703  1.00  0.00     0.006 A 
ENDBRANCH  13  19
ENDBRANCH  12  13
BRANCH  11  22
HETATM   22  C14 UNL     1      36.501  46.731  14.241  1.00  0.00     0.035 C 
BRANCH  22  23
HETATM   23  C15 UNL     1      37.183  47.815  14.988  1.00  0.00    -0.007 C 
HETATM   24  C16 UNL     1      37.642  48.841  14.255  1.00  0.00     0.004 C 
HETATM   25  C17 UNL     1      38.343  49.983  14.906  1.00  0.00     0.061 C 
HETATM   26 CL1  UNL     1      37.456  48.927  12.519  1.00  0.00    -0.090 Cl
ENDBRANCH  22  23
ENDBRANCH  11  22
BRANCH   6  27
HETATM   27  S1  UNL     1      31.841  44.241  14.953  1.00  0.00    -0.144 SA
HETATM   28  C9  UNL     1      31.386  45.996  15.115  1.00  0.00     0.095 C 
ENDBRANCH   6  27
BRANCH   3  29
HETATM   29  O4  UNL     1      33.424  43.490  19.084  1.00  0.00    -0.395 OA
ATOM     30  H4  UNL     1      32.642  43.426  18.549  1.00  0.00     0.210 HD
ENDBRANCH   3  29
BRANCH   1  31
HETATM   31  C2  UNL     1      37.676  43.880  18.923  1.00  0.00     0.293 C 
HETATM   32  O2  UNL     1      38.904  44.091  18.951  1.00  0.00    -0.262 OA
BRANCH  31  33
HETATM   33  O1  UNL     1      37.246  42.823  19.743  1.00  0.00    -0.324 OA
HETATM   34  C1  UNL     1      37.433  41.460  19.342  1.00  0.00     0.213 C 
ENDBRANCH  31  33
ENDBRANCH   1  31
BRANCH   1  35
HETATM   35  O3  UNL     1      37.060  46.048  18.548  1.00  0.00    -0.379 OA
ATOM     36  H3  UNL     1      36.607  46.087  19.382  1.00  0.00     0.211 HD
ENDBRANCH   1  35
TORSDOF 11
ENDMDL
MODEL 5
REMARK VINA RESULT: -6.227522864      2.890      6.940
REMARK  11 active torsions:
REMARK  status: ('A' for Active; 'I' for Inactive)
REMARK    1  A    between atoms: O1_2  and  C2_3 
REMARK    2  A    between atoms: C2_3  and  C3_5 
REMARK    3  A    between atoms: C3_5  and  O3_6 
REMARK    4  A    between atoms: C5_9  and  O4_10 
REMARK    5  A    between atoms: C8_14  and  S1_15 
REMARK    6  A    between atoms: C13_21  and  C14_22 
REMARK    7  A    between atoms: C14_22  and  C15_23 
REMARK    8  A    between atoms: C18_27  and  C19_28 
REMARK    9  A    between atoms: C19_28  and  C21_30 
REMARK   10  A    between atoms: C19_28  and  C24_34 
REMARK   11  A    between atoms: C21_30  and  C22_31 
ROOT
HETATM    1  C3  UNL     1      37.111  41.704  12.045  1.00  0.00     0.152 C 
HETATM    2  C4  UNL     1      37.621  42.747  11.033  1.00  0.00     0.081 C 
HETATM    3  C5  UNL     1      38.608  43.744  11.364  1.00  0.00     0.127 C 
HETATM    4  C6  UNL     1      38.306  45.102  11.842  1.00  0.00     0.089 C 
HETATM    5  C7  UNL     1      37.445  45.174  13.118  1.00  0.00     0.016 C 
HETATM    6  C8  UNL     1      36.884  46.317  13.255  1.00  0.00     0.069 C 
HETATM    7  N1  UNL     1      37.109  44.231  14.112  1.00  0.00    -0.377 N 
HETATM    8  C10 UNL     1      37.651  42.875  14.137  1.00  0.00     0.131 C 
HETATM    9  C11 UNL     1      36.535  42.312  13.172  1.00  0.00     0.049 C 
HETATM   10  C12 UNL     1      35.472  42.089  14.105  1.00  0.00     0.016 C 
HETATM   11  C13 UNL     1      35.005  43.357  14.778  1.00  0.00     0.013 C 
HETATM   12  C18 UNL     1      36.070  44.519  14.945  1.00  0.00     0.101 C 
ENDROOT
BRANCH  12  13
HETATM   13  C19 UNL     1      36.263  44.576  16.485  1.00  0.00     0.002 C 
HETATM   14  C20 UNL     1      35.250  43.838  17.283  1.00  0.00     0.022 C 
BRANCH  13  15
HETATM   15  C21 UNL     1      36.312  46.064  16.735  1.00  0.00     0.034 C 
BRANCH  15  16
HETATM   16  C22 UNL     1      35.703  46.718  17.853  1.00  0.00     0.142 C 
HETATM   17  C23 UNL     1      34.360  47.301  18.027  1.00  0.00     0.095 C 
HETATM   18  O5  UNL     1      36.406  46.845  18.895  1.00  0.00    -0.294 OA
ENDBRANCH  15  16
ENDBRANCH  13  15
BRANCH  13  19
HETATM   19  C24 UNL     1      37.531  43.882  16.899  1.00  0.00    -0.000 A 
HETATM   20  C25 UNL     1      38.581  44.314  17.782  1.00  0.00     0.006 A 
HETATM   21  C26 UNL     1      37.769  43.095  18.105  1.00  0.00     0.006 A 
ENDBRANCH  13  19
ENDBRANCH  12  13
BRANCH  11  22
HETATM   22  C14 UNL     1      33.851  43.883  13.962  1.00  0.00     0.035 C 
BRANCH  22  23
HETATM   23  C15 UNL     1      32.606  44.105  14.736  1.00  0.00    -0.007 C 
HETATM   24  C16 UNL     1      32.340  45.374  15.080  1.00  0.00     0.004 C 
HETATM   25  C17 UNL     1      31.114  45.707  15.859  1.00  0.00     0.061 C 
HETATM   26 CL1  UNL     1      33.379  46.713  14.651  1.00  0.00    -0.090 Cl
ENDBRANCH  22  23
ENDBRANCH  11  22
BRANCH   6  27
HETATM   27  S1  UNL     1      37.166  47.580  12.020  1.00  0.00    -0.144 SA
HETATM   28  C9  UNL     1      35.762  47.655  10.864  1.00  0.00     0.095 C 
ENDBRANCH   6  27
BRANCH   3  29
HETATM   29  O4  UNL     1      39.142  44.071  10.040  1.00  0.00    -0.395 OA
ATOM     30  H4  UNL     1      40.071  43.913  10.169  1.00  0.00     0.210 HD
ENDBRANCH   3  29
BRANCH   1  31
HETATM   31  C2  UNL     1      38.017  40.566  12.210  1.00  0.00     0.293 C 
HETATM   32  O2  UNL     1      37.578  39.421  12.427  1.00  0.00    -0.262 OA
BRANCH  31  33
HETATM   33  O1  UNL     1      39.418  40.652  12.140  1.00  0.00    -0.324 OA
HETATM   34  C1  UNL     1      40.175  39.696  11.389  1.00  0.00     0.213 C 
ENDBRANCH  31  33
ENDBRANCH   1  31
BRANCH   1  35
HETATM   35  O3  UNL     1      36.003  41.134  11.291  1.00  0.00    -0.379 OA
ATOM     36  H3  UNL     1      36.358  40.310  10.979  1.00  0.00     0.211 HD
ENDBRANCH   1  35
TORSDOF 11
ENDMDL
