MODEL 1
REMARK VINA RESULT: -8.281999904      0.000      0.000
REMARK  12 active torsions:
REMARK  status: ('A' for Active; 'I' for Inactive)
REMARK    1  A    between atoms: C2_2  and  C5_5 
REMARK    2  A    between atoms: C5_5  and  C8_8 
REMARK    3  A    between atoms: C8_8  and  C9_9 
REMARK    4  A    between atoms: N1_12  and  C11_13 
REMARK    5  A    between atoms: C11_13  and  C12_14 
REMARK    6  A    between atoms: C12_14  and  C13_15 
REMARK    7  A    between atoms: C13_15  and  N2_16 
REMARK    8  A    between atoms: N2_16  and  C14_18 
REMARK    9  A    between atoms: C14_18  and  C15_19 
REMARK   10  A    between atoms: C16_20  and  O2_21 
REMARK   11  A    between atoms: C20_28  and  N4_29 
REMARK   12  A    between atoms: C24_36  and  O6_37 
ROOT
HETATM    1  C12 UNL     1      37.335  38.945  11.989  1.00  0.00     0.065 C 
ENDROOT
BRANCH   1   2
HETATM    2  C11 UNL     1      38.159  39.901  11.223  1.00  0.00     0.140 C 
BRANCH   2   3
HETATM    3  N1  UNL     1      38.109  41.272  11.690  1.00  0.00    -0.284 N 
HETATM    4  C10 UNL     1      36.954  42.118  11.355  1.00  0.00     0.235 C 
HETATM    5  C9  UNL     1      37.037  43.230  12.320  1.00  0.00     0.139 C 
HETATM    6  O1  UNL     1      36.160  41.842  10.435  1.00  0.00    -0.272 OA
HETATM    7  C24 UNL     1      38.559  43.468  12.250  1.00  0.00     0.229 C 
HETATM    8  C23 UNL     1      38.992  42.048  12.474  1.00  0.00     0.277 C 
HETATM    9 CL1  UNL     1      38.953  43.912  10.602  1.00  0.00    -0.077 Cl
HETATM   10  O5  UNL     1      39.910  41.625  13.182  1.00  0.00    -0.268 OA
BRANCH   5  11
HETATM   11  C8  UNL     1      36.608  42.850  13.676  1.00  0.00     0.028 C 
BRANCH  11  12
HETATM   12  C5  UNL     1      35.397  43.465  14.269  1.00  0.00    -0.040 C 
HETATM   13  C6  UNL     1      35.636  44.931  14.627  1.00  0.00     0.015 C 
HETATM   14  C7  UNL     1      34.115  43.379  13.516  1.00  0.00     0.015 C 
BRANCH  12  15
HETATM   15  C2  UNL     1      35.131  42.761  15.613  1.00  0.00    -0.044 C 
HETATM   16  C1  UNL     1      33.676  42.549  15.846  1.00  0.00     0.015 C 
HETATM   17  C3  UNL     1      35.800  41.382  15.491  1.00  0.00     0.015 C 
HETATM   18  C4  UNL     1      35.799  43.445  16.759  1.00  0.00     0.015 C 
ENDBRANCH  12  15
ENDBRANCH  11  12
ENDBRANCH   5  11
BRANCH   7  19
HETATM   19  O6  UNL     1      39.023  44.354  13.163  1.00  0.00    -0.366 OA
ATOM     20  H6  UNL     1      39.051  45.252  12.853  1.00  0.00     0.212 HD
ENDBRANCH   7  19
ENDBRANCH   2   3
ENDBRANCH   1   2
BRANCH   1  21
HETATM   21  C13 UNL     1      37.170  37.624  11.291  1.00  0.00     0.062 C 
BRANCH  21  22
HETATM   22  N2  UNL     1      36.816  36.591  12.109  1.00  0.00    -0.378 N 
ATOM     23  H2  UNL     1      35.831  36.772  12.303  1.00  0.00     0.164 HD
BRANCH  22  24
HETATM   24  C14 UNL     1      37.036  35.604  12.713  1.00  0.00     0.104 C 
BRANCH  24  25
HETATM   25  C15 UNL     1      36.127  34.447  12.759  1.00  0.00     0.043 A 
HETATM   26  C16 UNL     1      34.763  34.472  12.548  1.00  0.00     0.153 A 
HETATM   27  N3  UNL     1      34.313  33.222  12.674  1.00  0.00    -0.336 N 
HETATM   28  C17 UNL     1      35.328  32.395  12.956  1.00  0.00     0.045 A 
ATOM     29  H3  UNL     1      33.339  32.937  12.571  1.00  0.00     0.168 HD
HETATM   30  C18 UNL     1      35.423  31.035  13.179  1.00  0.00     0.033 A 
HETATM   31  C22 UNL     1      36.480  33.146  13.013  1.00  0.00     0.009 A 
HETATM   32  C19 UNL     1      36.609  30.422  13.453  1.00  0.00     0.038 A 
HETATM   33  C20 UNL     1      37.783  31.168  13.516  1.00  0.00     0.103 A 
HETATM   34  C21 UNL     1      37.703  32.517  13.296  1.00  0.00     0.050 A 
BRANCH  26  35
HETATM   35  O2  UNL     1      33.991  35.607  12.256  1.00  0.00    -0.345 OA
ATOM     36  H2  UNL     1      33.077  35.612  11.998  1.00  0.00     0.219 HD
ENDBRANCH  26  35
BRANCH  33  37
HETATM   37  N4  UNL     1      39.009  30.516  13.802  1.00  0.00    -0.116 N 
HETATM   38  O3  UNL     1      40.063  31.178  13.787  1.00  0.00    -0.532 OA
HETATM   39  O4  UNL     1      39.054  29.180  14.092  1.00  0.00    -0.532 OA
ENDBRANCH  33  37
ENDBRANCH  24  25
ENDBRANCH  22  24
ENDBRANCH  21  22
ENDBRANCH   1  21
TORSDOF 12
ENDMDL
MODEL 2
REMARK VINA RESULT: -8.156859275      0.886      1.196
REMARK  12 active torsions:
REMARK  status: ('A' for Active; 'I' for Inactive)
REMARK    1  A    between atoms: C2_2  and  C5_5 
REMARK    2  A    between atoms: C5_5  and  C8_8 
REMARK    3  A    between atoms: C8_8  and  C9_9 
REMARK    4  A    between atoms: N1_12  and  C11_13 
REMARK    5  A    between atoms: C11_13  and  C12_14 
REMARK    6  A    between atoms: C12_14  and  C13_15 
REMARK    7  A    between atoms: C13_15  and  N2_16 
REMARK    8  A    between atoms: N2_16  and  C14_18 
REMARK    9  A    between atoms: C14_18  and  C15_19 
REMARK   10  A    between atoms: C16_20  and  O2_21 
REMARK   11  A    between atoms: C20_28  and  N4_29 
REMARK   12  A    between atoms: C24_36  and  O6_37 
ROOT
HETATM    1  C12 UNL     1      38.251  38.240  11.278  1.00  0.00     0.065 C 
ENDROOT
BRANCH   1   2
HETATM    2  C11 UNL     1      37.441  39.244  11.996  1.00  0.00     0.140 C 
BRANCH   2   3
HETATM    3  N1  UNL     1      37.899  40.613  11.867  1.00  0.00    -0.284 N 
HETATM    4  C10 UNL     1      36.954  41.667  11.471  1.00  0.00     0.235 C 
HETATM    5  C9  UNL     1      37.632  42.917  11.862  1.00  0.00     0.139 C 
HETATM    6  O1  UNL     1      35.858  41.423  10.931  1.00  0.00    -0.272 OA
HETATM    7  C24 UNL     1      39.053  42.556  11.382  1.00  0.00     0.229 C 
HETATM    8  C23 UNL     1      39.159  41.222  12.064  1.00  0.00     0.277 C 
HETATM    9 CL1  UNL     1      38.978  42.286   9.653  1.00  0.00    -0.077 Cl
HETATM   10  O5  UNL     1      40.120  40.743  12.672  1.00  0.00    -0.268 OA
BRANCH   5  11
HETATM   11  C8  UNL     1      37.595  43.164  13.313  1.00  0.00     0.028 C 
BRANCH  11  12
HETATM   12  C5  UNL     1      36.652  44.162  13.870  1.00  0.00    -0.040 C 
HETATM   13  C6  UNL     1      37.336  45.059  14.900  1.00  0.00     0.015 C 
HETATM   14  C7  UNL     1      35.902  45.035  12.925  1.00  0.00     0.015 C 
BRANCH  12  15
HETATM   15  C2  UNL     1      35.575  43.391  14.659  1.00  0.00    -0.044 C 
HETATM   16  C1  UNL     1      35.102  44.160  15.841  1.00  0.00     0.015 C 
HETATM   17  C3  UNL     1      34.393  43.234  13.688  1.00  0.00     0.015 C 
HETATM   18  C4  UNL     1      36.006  42.007  15.013  1.00  0.00     0.015 C 
ENDBRANCH  12  15
ENDBRANCH  11  12
ENDBRANCH   5  11
BRANCH   7  19
HETATM   19  O6  UNL     1      40.002  43.453  11.738  1.00  0.00    -0.366 OA
ATOM     20  H6  UNL     1      40.730  43.078  12.220  1.00  0.00     0.212 HD
ENDBRANCH   7  19
ENDBRANCH   2   3
ENDBRANCH   1   2
BRANCH   1  21
HETATM   21  C13 UNL     1      37.450  37.045  10.841  1.00  0.00     0.062 C 
BRANCH  21  22
HETATM   22  N2  UNL     1      36.858  36.358  11.860  1.00  0.00    -0.378 N 
ATOM     23  H2  UNL     1      35.902  36.714  11.860  1.00  0.00     0.164 HD
BRANCH  22  24
HETATM   24  C14 UNL     1      36.857  35.575  12.741  1.00  0.00     0.104 C 
BRANCH  24  25
HETATM   25  C15 UNL     1      35.985  34.390  12.788  1.00  0.00     0.043 A 
HETATM   26  C16 UNL     1      34.619  34.373  12.585  1.00  0.00     0.153 A 
HETATM   27  N3  UNL     1      34.209  33.109  12.710  1.00  0.00    -0.336 N 
HETATM   28  C17 UNL     1      35.251  32.314  12.984  1.00  0.00     0.045 A 
ATOM     29  H3  UNL     1      33.244  32.795  12.612  1.00  0.00     0.168 HD
HETATM   30  C18 UNL     1      35.390  30.957  13.203  1.00  0.00     0.033 A 
HETATM   31  C22 UNL     1      36.379  33.100  13.037  1.00  0.00     0.009 A 
HETATM   32  C19 UNL     1      36.596  30.381  13.468  1.00  0.00     0.038 A 
HETATM   33  C20 UNL     1      37.746  31.163  13.527  1.00  0.00     0.103 A 
HETATM   34  C21 UNL     1      37.623  32.509  13.311  1.00  0.00     0.050 A 
BRANCH  26  35
HETATM   35  O2  UNL     1      33.810  35.485  12.301  1.00  0.00    -0.345 OA
ATOM     36  H2  UNL     1      33.718  36.263  12.838  1.00  0.00     0.219 HD
ENDBRANCH  26  35
BRANCH  33  37
HETATM   37  N4  UNL     1      38.993  30.548  13.805  1.00  0.00    -0.116 N 
HETATM   38  O3  UNL     1      40.016  31.257  13.865  1.00  0.00    -0.532 OA
HETATM   39  O4  UNL     1      39.094  29.199  14.004  1.00  0.00    -0.532 OA
ENDBRANCH  33  37
ENDBRANCH  24  25
ENDBRANCH  22  24
ENDBRANCH  21  22
ENDBRANCH   1  21
TORSDOF 12
ENDMDL
MODEL 3
REMARK VINA RESULT: -8.108807716      1.326      1.826
REMARK  12 active torsions:
REMARK  status: ('A' for Active; 'I' for Inactive)
REMARK    1  A    between atoms: C2_2  and  C5_5 
REMARK    2  A    between atoms: C5_5  and  C8_8 
REMARK    3  A    between atoms: C8_8  and  C9_9 
REMARK    4  A    between atoms: N1_12  and  C11_13 
REMARK    5  A    between atoms: C11_13  and  C12_14 
REMARK    6  A    between atoms: C12_14  and  C13_15 
REMARK    7  A    between atoms: C13_15  and  N2_16 
REMARK    8  A    between atoms: N2_16  and  C14_18 
REMARK    9  A    between atoms: C14_18  and  C15_19 
REMARK   10  A    between atoms: C16_20  and  O2_21 
REMARK   11  A    between atoms: C20_28  and  N4_29 
REMARK   12  A    between atoms: C24_36  and  O6_37 
ROOT
HETATM    1  C12 UNL     1      38.757  38.093  10.294  1.00  0.00     0.065 C 
ENDROOT
BRANCH   1   2
HETATM    2  C11 UNL     1      39.893  39.038  10.310  1.00  0.00     0.140 C 
BRANCH   2   3
HETATM    3  N1  UNL     1      39.587  40.362  10.813  1.00  0.00    -0.284 N 
HETATM    4  C10 UNL     1      38.831  41.306   9.978  1.00  0.00     0.235 C 
HETATM    5  C9  UNL     1      38.351  42.321  10.934  1.00  0.00     0.139 C 
HETATM    6  O1  UNL     1      38.703  41.165   8.746  1.00  0.00    -0.272 OA
HETATM    7  C24 UNL     1      39.641  42.466  11.766  1.00  0.00     0.229 C 
HETATM    8  C23 UNL     1      39.867  41.007  12.039  1.00  0.00     0.277 C 
HETATM    9 CL1  UNL     1      40.906  43.029  10.693  1.00  0.00    -0.077 Cl
HETATM   10  O5  UNL     1      40.216  40.465  13.091  1.00  0.00    -0.268 OA
BRANCH   5  11
HETATM   11  C8  UNL     1      37.224  41.849  11.757  1.00  0.00     0.028 C 
BRANCH  11  12
HETATM   12  C5  UNL     1      36.084  42.752  12.038  1.00  0.00    -0.040 C 
HETATM   13  C6  UNL     1      36.377  44.179  11.578  1.00  0.00     0.015 C 
HETATM   14  C7  UNL     1      34.736  42.374  11.530  1.00  0.00     0.015 C 
BRANCH  12  15
HETATM   15  C2  UNL     1      35.933  42.846  13.569  1.00  0.00    -0.044 C 
HETATM   16  C1  UNL     1      36.629  44.040  14.120  1.00  0.00     0.015 C 
HETATM   17  C3  UNL     1      34.425  43.014  13.820  1.00  0.00     0.015 C 
HETATM   18  C4  UNL     1      36.329  41.584  14.260  1.00  0.00     0.015 C 
ENDBRANCH  12  15
ENDBRANCH  11  12
ENDBRANCH   5  11
BRANCH   7  19
HETATM   19  O6  UNL     1      39.503  43.236  12.872  1.00  0.00    -0.366 OA
ATOM     20  H6  UNL     1      39.189  42.766  13.636  1.00  0.00     0.212 HD
ENDBRANCH   7  19
ENDBRANCH   2   3
ENDBRANCH   1   2
BRANCH   1  21
HETATM   21  C13 UNL     1      38.061  37.993  11.623  1.00  0.00     0.062 C 
BRANCH  21  22
HETATM   22  N2  UNL     1      37.712  36.725  11.985  1.00  0.00    -0.378 N 
ATOM     23  H2  UNL     1      36.862  36.862  12.530  1.00  0.00     0.164 HD
BRANCH  22  24
HETATM   24  C14 UNL     1      37.864  35.557  12.006  1.00  0.00     0.104 C 
BRANCH  24  25
HETATM   25  C15 UNL     1      36.805  34.595  12.351  1.00  0.00     0.043 A 
HETATM   26  C16 UNL     1      35.444  34.819  12.282  1.00  0.00     0.153 A 
HETATM   27  N3  UNL     1      34.831  33.700  12.675  1.00  0.00    -0.336 N 
HETATM   28  C17 UNL     1      35.739  32.768  12.992  1.00  0.00     0.045 A 
ATOM     29  H3  UNL     1      33.820  33.575  12.726  1.00  0.00     0.168 HD
HETATM   30  C18 UNL     1      35.655  31.465  13.442  1.00  0.00     0.033 A 
HETATM   31  C22 UNL     1      36.988  33.310  12.795  1.00  0.00     0.009 A 
HETATM   32  C19 UNL     1      36.761  30.708  13.696  1.00  0.00     0.038 A 
HETATM   33  C20 UNL     1      38.032  31.243  13.502  1.00  0.00     0.103 A 
HETATM   34  C21 UNL     1      38.129  32.533  13.055  1.00  0.00     0.050 A 
BRANCH  26  35
HETATM   35  O2  UNL     1      34.821  36.009  11.875  1.00  0.00    -0.345 OA
ATOM     36  H2  UNL     1      34.807  36.361  10.993  1.00  0.00     0.219 HD
ENDBRANCH  26  35
BRANCH  33  37
HETATM   37  N4  UNL     1      39.172  30.444  13.771  1.00  0.00    -0.116 N 
HETATM   38  O3  UNL     1      40.304  30.956  13.676  1.00  0.00    -0.532 OA
HETATM   39  O4  UNL     1      39.053  29.129  14.129  1.00  0.00    -0.532 OA
ENDBRANCH  33  37
ENDBRANCH  24  25
ENDBRANCH  22  24
ENDBRANCH  21  22
ENDBRANCH   1  21
TORSDOF 12
ENDMDL
MODEL 4
REMARK VINA RESULT: -8.070307236      0.900      1.082
REMARK  12 active torsions:
REMARK  status: ('A' for Active; 'I' for Inactive)
REMARK    1  A    between atoms: C2_2  and  C5_5 
REMARK    2  A    between atoms: C5_5  and  C8_8 
REMARK    3  A    between atoms: C8_8  and  C9_9 
REMARK    4  A    between atoms: N1_12  and  C11_13 
REMARK    5  A    between atoms: C11_13  and  C12_14 
REMARK    6  A    between atoms: C12_14  and  C13_15 
REMARK    7  A    between atoms: C13_15  and  N2_16 
REMARK    8  A    between atoms: N2_16  and  C14_18 
REMARK    9  A    between atoms: C14_18  and  C15_19 
REMARK   10  A    between atoms: C16_20  and  O2_21 
REMARK   11  A    between atoms: C20_28  and  N4_29 
REMARK   12  A    between atoms: C24_36  and  O6_37 
ROOT
HETATM    1  C12 UNL     1      36.892  39.204  11.904  1.00  0.00     0.065 C 
ENDROOT
BRANCH   1   2
HETATM    2  C11 UNL     1      37.989  39.925  11.227  1.00  0.00     0.140 C 
BRANCH   2   3
HETATM    3  N1  UNL     1      38.097  41.332  11.555  1.00  0.00    -0.284 N 
HETATM    4  C10 UNL     1      37.083  42.278  11.067  1.00  0.00     0.235 C 
HETATM    5  C9  UNL     1      37.264  43.466  11.922  1.00  0.00     0.139 C 
HETATM    6  O1  UNL     1      36.307  42.011  10.129  1.00  0.00    -0.272 OA
HETATM    7  C24 UNL     1      38.805  43.500  11.928  1.00  0.00     0.229 C 
HETATM    8  C23 UNL     1      39.035  42.067  12.315  1.00  0.00     0.277 C 
HETATM    9 CL1  UNL     1      39.339  43.716  10.273  1.00  0.00    -0.077 Cl
HETATM   10  O5  UNL     1      39.851  41.608  13.118  1.00  0.00    -0.268 OA
BRANCH   5  11
HETATM   11  C8  UNL     1      36.720  43.286  13.279  1.00  0.00     0.028 C 
BRANCH  11  12
HETATM   12  C5  UNL     1      35.807  44.304  13.851  1.00  0.00    -0.040 C 
HETATM   13  C6  UNL     1      35.856  45.606  13.053  1.00  0.00     0.015 C 
HETATM   14  C7  UNL     1      34.377  43.942  14.053  1.00  0.00     0.015 C 
BRANCH  12  15
HETATM   15  C2  UNL     1      36.338  44.669  15.250  1.00  0.00    -0.044 C 
HETATM   16  C1  UNL     1      35.240  44.763  16.250  1.00  0.00     0.015 C 
HETATM   17  C3  UNL     1      37.254  43.502  15.656  1.00  0.00     0.015 C 
HETATM   18  C4  UNL     1      37.202  45.886  15.235  1.00  0.00     0.015 C 
ENDBRANCH  12  15
ENDBRANCH  11  12
ENDBRANCH   5  11
BRANCH   7  19
HETATM   19  O6  UNL     1      39.336  44.410  12.778  1.00  0.00    -0.366 OA
ATOM     20  H6  UNL     1      39.053  45.303  12.618  1.00  0.00     0.212 HD
ENDBRANCH   7  19
ENDBRANCH   2   3
ENDBRANCH   1   2
BRANCH   1  21
HETATM   21  C13 UNL     1      37.379  38.069  12.762  1.00  0.00     0.062 C 
BRANCH  21  22
HETATM   22  N2  UNL     1      36.925  36.840  12.385  1.00  0.00    -0.378 N 
ATOM     23  H2  UNL     1      35.912  36.931  12.460  1.00  0.00     0.164 HD
BRANCH  22  24
HETATM   24  C14 UNL     1      37.072  35.729  12.021  1.00  0.00     0.104 C 
BRANCH  24  25
HETATM   25  C15 UNL     1      36.158  34.625  12.354  1.00  0.00     0.043 A 
HETATM   26  C16 UNL     1      34.779  34.661  12.294  1.00  0.00     0.153 A 
HETATM   27  N3  UNL     1      34.328  33.462  12.671  1.00  0.00    -0.336 N 
HETATM   28  C17 UNL     1      35.357  32.659  12.970  1.00  0.00     0.045 A 
ATOM     29  H3  UNL     1      33.344  33.197  12.724  1.00  0.00     0.168 HD
HETATM   30  C18 UNL     1      35.456  31.350  13.400  1.00  0.00     0.033 A 
HETATM   31  C22 UNL     1      36.518  33.371  12.777  1.00  0.00     0.009 A 
HETATM   32  C19 UNL     1      36.657  30.750  13.638  1.00  0.00     0.038 A 
HETATM   33  C20 UNL     1      37.841  31.457  13.448  1.00  0.00     0.103 A 
HETATM   34  C21 UNL     1      37.757  32.755  13.021  1.00  0.00     0.050 A 
BRANCH  26  35
HETATM   35  O2  UNL     1      33.995  35.759  11.908  1.00  0.00    -0.345 OA
ATOM     36  H2  UNL     1      33.788  36.516  12.444  1.00  0.00     0.219 HD
ENDBRANCH  26  35
BRANCH  33  37
HETATM   37  N4  UNL     1      39.082  30.819  13.700  1.00  0.00    -0.116 N 
HETATM   38  O3  UNL     1      40.094  31.520  13.886  1.00  0.00    -0.532 OA
HETATM   39  O4  UNL     1      39.187  29.456  13.739  1.00  0.00    -0.532 OA
ENDBRANCH  33  37
ENDBRANCH  24  25
ENDBRANCH  22  24
ENDBRANCH  21  22
ENDBRANCH   1  21
TORSDOF 12
ENDMDL
MODEL 5
REMARK VINA RESULT: -8.054486448      9.216     16.191
REMARK  12 active torsions:
REMARK  status: ('A' for Active; 'I' for Inactive)
REMARK    1  A    between atoms: C2_2  and  C5_5 
REMARK    2  A    between atoms: C5_5  and  C8_8 
REMARK    3  A    between atoms: C8_8  and  C9_9 
REMARK    4  A    between atoms: N1_12  and  C11_13 
REMARK    5  A    between atoms: C11_13  and  C12_14 
REMARK    6  A    between atoms: C12_14  and  C13_15 
REMARK    7  A    between atoms: C13_15  and  N2_16 
REMARK    8  A    between atoms: N2_16  and  C14_18 
REMARK    9  A    between atoms: C14_18  and  C15_19 
REMARK   10  A    between atoms: C16_20  and  O2_21 
REMARK   11  A    between atoms: C20_28  and  N4_29 
REMARK   12  A    between atoms: C24_36  and  O6_37 
ROOT
HETATM    1  C12 UNL     1      43.614  27.705  16.283  1.00  0.00     0.065 C 
ENDROOT
BRANCH   1   2
HETATM    2  C11 UNL     1      43.527  27.268  17.691  1.00  0.00     0.140 C 
BRANCH   2   3
HETATM    3  N1  UNL     1      44.208  26.026  17.996  1.00  0.00    -0.284 N 
HETATM    4  C10 UNL     1      43.430  24.836  18.368  1.00  0.00     0.235 C 
HETATM    5  C9  UNL     1      44.374  23.719  18.176  1.00  0.00     0.139 C 
HETATM    6  O1  UNL     1      42.244  24.897  18.747  1.00  0.00    -0.272 OA
HETATM    7  C24 UNL     1      45.624  24.381  18.788  1.00  0.00     0.229 C 
HETATM    8  C23 UNL     1      45.574  25.663  18.007  1.00  0.00     0.277 C 
HETATM    9 CL1  UNL     1      45.268  24.743  20.465  1.00  0.00    -0.077 Cl
HETATM   10  O5  UNL     1      46.502  26.280  17.479  1.00  0.00    -0.268 OA
BRANCH   5  11
HETATM   11  C8  UNL     1      44.580  23.377  16.758  1.00  0.00     0.028 C 
BRANCH  11  12
HETATM   12  C5  UNL     1      44.447  21.971  16.310  1.00  0.00    -0.040 C 
HETATM   13  C6  UNL     1      45.773  21.429  15.778  1.00  0.00     0.015 C 
HETATM   14  C7  UNL     1      43.892  20.971  17.264  1.00  0.00     0.015 C 
BRANCH  12  15
HETATM   15  C2  UNL     1      43.493  21.958  15.100  1.00  0.00    -0.044 C 
HETATM   16  C1  UNL     1      43.788  20.829  14.177  1.00  0.00     0.015 C 
HETATM   17  C3  UNL     1      42.090  21.738  15.690  1.00  0.00     0.015 C 
HETATM   18  C4  UNL     1      43.444  23.273  14.396  1.00  0.00     0.015 C 
ENDBRANCH  12  15
ENDBRANCH  11  12
ENDBRANCH   5  11
BRANCH   7  19
HETATM   19  O6  UNL     1      46.763  23.665  18.632  1.00  0.00    -0.366 OA
ATOM     20  H6  UNL     1      46.628  22.725  18.593  1.00  0.00     0.212 HD
ENDBRANCH   7  19
ENDBRANCH   2   3
ENDBRANCH   1   2
BRANCH   1  21
HETATM   21  C13 UNL     1      42.956  26.745  15.330  1.00  0.00     0.062 C 
BRANCH  21  22
HETATM   22  N2  UNL     1      41.611  26.921  15.191  1.00  0.00    -0.378 N 
ATOM     23  H2  UNL     1      41.227  26.014  15.455  1.00  0.00     0.164 HD
BRANCH  22  24
HETATM   24  C14 UNL     1      40.653  27.556  14.929  1.00  0.00     0.104 C 
BRANCH  24  25
HETATM   25  C15 UNL     1      40.383  28.129  13.601  1.00  0.00     0.043 A 
HETATM   26  C16 UNL     1      40.741  27.577  12.386  1.00  0.00     0.153 A 
HETATM   27  N3  UNL     1      40.311  28.401  11.427  1.00  0.00    -0.336 N 
HETATM   28  C17 UNL     1      39.694  29.457  11.973  1.00  0.00     0.045 A 
ATOM     29  H3  UNL     1      40.435  28.249  10.427  1.00  0.00     0.168 HD
HETATM   30  C18 UNL     1      39.077  30.579  11.456  1.00  0.00     0.033 A 
HETATM   31  C22 UNL     1      39.728  29.305  13.340  1.00  0.00     0.009 A 
HETATM   32  C19 UNL     1      38.508  31.530  12.249  1.00  0.00     0.038 A 
HETATM   33  C20 UNL     1      38.535  31.392  13.634  1.00  0.00     0.103 A 
HETATM   34  C21 UNL     1      39.143  30.284  14.161  1.00  0.00     0.050 A 
BRANCH  26  35
HETATM   35  O2  UNL     1      41.431  26.370  12.196  1.00  0.00    -0.345 OA
ATOM     36  H2  UNL     1      41.055  25.499  12.224  1.00  0.00     0.219 HD
ENDBRANCH  26  35
BRANCH  33  37
HETATM   37  N4  UNL     1      37.940  32.390  14.446  1.00  0.00    -0.116 N 
HETATM   38  O3  UNL     1      38.674  33.204  15.038  1.00  0.00    -0.532 OA
HETATM   39  O4  UNL     1      36.583  32.474  14.592  1.00  0.00    -0.532 OA
ENDBRANCH  33  37
ENDBRANCH  24  25
ENDBRANCH  22  24
ENDBRANCH  21  22
ENDBRANCH   1  21
TORSDOF 12
ENDMDL
