MODEL 1
REMARK VINA RESULT: -4.908893689      0.000      0.000
REMARK  5 active torsions:
REMARK  status: ('A' for Active; 'I' for Inactive)
REMARK    1  A    between atoms: N1_1  and  C1_4 
REMARK    2  A    between atoms: N2_5  and  N3_6 
REMARK    3  A    between atoms: N4_11  and  N5_12 
REMARK    4  A    between atoms: N5_12  and  S1_14 
REMARK    5  A    between atoms: S1_14  and  N6_15 
ROOT
HETATM    1  C1  UNL     1      -5.342  12.759 -17.518  1.00  0.00     0.718 A 
HETATM    2  N2  UNL     1      -5.614  12.144 -18.695  1.00  0.00    -0.102 N 
HETATM    3  C2  UNL     1      -5.338  10.839 -18.652  1.00  0.00     0.154 A 
HETATM    4  C3  UNL     1      -4.865  10.612 -17.372  1.00  0.00     0.155 A 
HETATM    5  N4  UNL     1      -4.880  11.787 -16.716  1.00  0.00    -0.084 N 
ENDROOT
BRANCH   5   6
HETATM    6  N5  UNL     1      -4.471  11.935 -15.406  1.00  0.00    -0.189 N 
ATOM      7  H5  UNL     1      -5.089  11.608 -14.663  1.00  0.00     0.203 HD
BRANCH   6   8
HETATM    8  S1  UNL     1      -2.956  12.649 -14.966  1.00  0.00     0.331 S 
HETATM    9  O1  UNL     1      -2.810  13.956 -15.677  1.00  0.00    -0.181 OA
HETATM   10  O2  UNL     1      -1.802  11.768 -15.348  1.00  0.00    -0.181 OA
BRANCH   8  11
HETATM   11  N6  UNL     1      -3.031  12.914 -13.254  1.00  0.00    -0.310 N 
ATOM     12  H62 UNL     1      -3.763  12.586 -12.625  1.00  0.00     0.170 HD
ATOM     13  H61 UNL     1      -2.201  13.459 -13.017  1.00  0.00     0.170 HD
ENDBRANCH   8  11
ENDBRANCH   6   8
ENDBRANCH   5   6
BRANCH   1  14
HETATM   14  N1  UNL     1      -5.526  14.001 -17.311  1.00  0.00    -0.231 N 
ATOM     15  H12 UNL     1      -6.176  14.665 -17.732  1.00  0.00     0.174 HD
ATOM     16  H11 UNL     1      -4.992  14.547 -16.636  1.00  0.00     0.174 HD
ENDBRANCH   1  14
BRANCH   2  17
HETATM   17  N3  UNL     1      -6.124  12.815 -19.821  1.00  0.00    -0.325 N 
ATOM     18  H32 UNL     1      -6.260  13.824 -19.880  1.00  0.00     0.178 HD
ATOM     19  H31 UNL     1      -6.403  12.341 -20.680  1.00  0.00     0.178 HD
ENDBRANCH   2  17
TORSDOF 5
ENDMDL
MODEL 2
REMARK VINA RESULT: -4.763355369      1.679      2.194
REMARK  5 active torsions:
REMARK  status: ('A' for Active; 'I' for Inactive)
REMARK    1  A    between atoms: N1_1  and  C1_4 
REMARK    2  A    between atoms: N2_5  and  N3_6 
REMARK    3  A    between atoms: N4_11  and  N5_12 
REMARK    4  A    between atoms: N5_12  and  S1_14 
REMARK    5  A    between atoms: S1_14  and  N6_15 
ROOT
HETATM    1  C1  UNL     1      -4.475  14.011 -17.238  1.00  0.00     0.718 A 
HETATM    2  N2  UNL     1      -4.815  14.154 -18.543  1.00  0.00    -0.102 N 
HETATM    3  C2  UNL     1      -5.223  13.003 -19.082  1.00  0.00     0.154 A 
HETATM    4  C3  UNL     1      -5.136  12.075 -18.059  1.00  0.00     0.155 A 
HETATM    5  N4  UNL     1      -4.683  12.714 -16.964  1.00  0.00    -0.084 N 
ENDROOT
BRANCH   5   6
HETATM    6  N5  UNL     1      -4.474  12.092 -15.750  1.00  0.00    -0.189 N 
ATOM      7  H5  UNL     1      -5.278  11.708 -15.254  1.00  0.00     0.203 HD
BRANCH   6   8
HETATM    8  S1  UNL     1      -2.907  11.933 -15.029  1.00  0.00     0.331 S 
HETATM    9  O1  UNL     1      -2.931  10.797 -14.058  1.00  0.00    -0.181 OA
HETATM   10  O2  UNL     1      -2.513  13.180 -14.292  1.00  0.00    -0.181 OA
BRANCH   8  11
HETATM   11  N6  UNL     1      -1.816  11.576 -16.328  1.00  0.00    -0.310 N 
ATOM     12  H62 UNL     1      -0.954  11.035 -16.260  1.00  0.00     0.170 HD
ATOM     13  H61 UNL     1      -2.214  12.014 -17.160  1.00  0.00     0.170 HD
ENDBRANCH   8  11
ENDBRANCH   6   8
ENDBRANCH   5   6
BRANCH   1  14
HETATM   14  N1  UNL     1      -4.060  14.967 -16.508  1.00  0.00    -0.231 N 
ATOM     15  H12 UNL     1      -4.295  15.960 -16.501  1.00  0.00     0.174 HD
ATOM     16  H11 UNL     1      -3.369  14.854 -15.766  1.00  0.00     0.174 HD
ENDBRANCH   1  14
BRANCH   2  17
HETATM   17  N3  UNL     1      -4.742  15.377 -19.234  1.00  0.00    -0.325 N 
ATOM     18  H32 UNL     1      -4.101  15.569 -20.003  1.00  0.00     0.178 HD
ATOM     19  H31 UNL     1      -5.331  16.181 -19.018  1.00  0.00     0.178 HD
ENDBRANCH   2  17
TORSDOF 5
ENDMDL
MODEL 3
REMARK VINA RESULT: -4.696688081      1.222      1.971
REMARK  5 active torsions:
REMARK  status: ('A' for Active; 'I' for Inactive)
REMARK    1  A    between atoms: N1_1  and  C1_4 
REMARK    2  A    between atoms: N2_5  and  N3_6 
REMARK    3  A    between atoms: N4_11  and  N5_12 
REMARK    4  A    between atoms: N5_12  and  S1_14 
REMARK    5  A    between atoms: S1_14  and  N6_15 
ROOT
HETATM    1  C1  UNL     1      -4.975  11.810 -18.113  1.00  0.00     0.718 A 
HETATM    2  N2  UNL     1      -4.956  12.672 -19.160  1.00  0.00    -0.102 N 
HETATM    3  C2  UNL     1      -4.632  13.910 -18.782  1.00  0.00     0.154 A 
HETATM    4  C3  UNL     1      -4.433  13.829 -17.415  1.00  0.00     0.155 A 
HETATM    5  N4  UNL     1      -4.647  12.553 -17.045  1.00  0.00    -0.084 N 
ENDROOT
BRANCH   5   6
HETATM    6  N5  UNL     1      -4.537  12.108 -15.743  1.00  0.00    -0.189 N 
ATOM      7  H5  UNL     1      -5.385  11.826 -15.252  1.00  0.00     0.203 HD
BRANCH   6   8
HETATM    8  S1  UNL     1      -3.024  12.004 -14.907  1.00  0.00     0.331 S 
HETATM    9  O1  UNL     1      -1.911  12.128 -15.897  1.00  0.00    -0.181 OA
HETATM   10  O2  UNL     1      -2.880  10.692 -14.193  1.00  0.00    -0.181 OA
BRANCH   8  11
HETATM   11  N6  UNL     1      -2.990  13.347 -13.810  1.00  0.00    -0.310 N 
ATOM     12  H62 UNL     1      -2.199  13.968 -13.643  1.00  0.00     0.170 HD
ATOM     13  H61 UNL     1      -3.913  13.380 -13.377  1.00  0.00     0.170 HD
ENDBRANCH   8  11
ENDBRANCH   6   8
ENDBRANCH   5   6
BRANCH   1  14
HETATM   14  N1  UNL     1      -5.253  10.573 -18.222  1.00  0.00    -0.231 N 
ATOM     15  H12 UNL     1      -5.154   9.927 -19.005  1.00  0.00     0.174 HD
ATOM     16  H11 UNL     1      -5.653  10.015 -17.468  1.00  0.00     0.174 HD
ENDBRANCH   1  14
BRANCH   2  17
HETATM   17  N3  UNL     1      -5.247  12.291 -20.483  1.00  0.00    -0.325 N 
ATOM     18  H32 UNL     1      -5.729  12.880 -21.161  1.00  0.00     0.178 HD
ATOM     19  H31 UNL     1      -4.997  11.383 -20.875  1.00  0.00     0.178 HD
ENDBRANCH   2  17
TORSDOF 5
ENDMDL
MODEL 4
REMARK VINA RESULT: -4.679118298      1.641      1.838
REMARK  5 active torsions:
REMARK  status: ('A' for Active; 'I' for Inactive)
REMARK    1  A    between atoms: N1_1  and  C1_4 
REMARK    2  A    between atoms: N2_5  and  N3_6 
REMARK    3  A    between atoms: N4_11  and  N5_12 
REMARK    4  A    between atoms: N5_12  and  S1_14 
REMARK    5  A    between atoms: S1_14  and  N6_15 
ROOT
HETATM    1  C1  UNL     1      -5.383  13.285 -17.695  1.00  0.00     0.718 A 
HETATM    2  N2  UNL     1      -5.301  13.035 -19.026  1.00  0.00    -0.102 N 
HETATM    3  C2  UNL     1      -4.045  13.109 -19.471  1.00  0.00     0.154 A 
HETATM    4  C3  UNL     1      -3.286  13.424 -18.358  1.00  0.00     0.155 A 
HETATM    5  N4  UNL     1      -4.120  13.522 -17.308  1.00  0.00    -0.084 N 
ENDROOT
BRANCH   5   6
HETATM    6  N5  UNL     1      -3.703  13.826 -16.027  1.00  0.00    -0.189 N 
ATOM      7  H5  UNL     1      -3.800  14.787 -15.699  1.00  0.00     0.203 HD
BRANCH   6   8
HETATM    8  S1  UNL     1      -3.024  12.650 -14.953  1.00  0.00     0.331 S 
HETATM    9  O1  UNL     1      -2.673  13.316 -13.661  1.00  0.00    -0.181 OA
HETATM   10  O2  UNL     1      -1.779  12.038 -15.525  1.00  0.00    -0.181 OA
BRANCH   8  11
HETATM   11  N6  UNL     1      -4.266  11.469 -14.688  1.00  0.00    -0.310 N 
ATOM     12  H62 UNL     1      -5.023  11.236 -15.331  1.00  0.00     0.170 HD
ATOM     13  H61 UNL     1      -4.080  11.065 -13.769  1.00  0.00     0.170 HD
ENDBRANCH   8  11
ENDBRANCH   6   8
ENDBRANCH   5   6
BRANCH   1  14
HETATM   14  N1  UNL     1      -6.474  13.268 -17.040  1.00  0.00    -0.231 N 
ATOM     15  H12 UNL     1      -7.437  13.118 -17.340  1.00  0.00     0.174 HD
ATOM     16  H11 UNL     1      -6.531  13.423 -16.034  1.00  0.00     0.174 HD
ENDBRANCH   1  14
BRANCH   2  17
HETATM   17  N3  UNL     1      -6.416  12.736 -19.829  1.00  0.00    -0.325 N 
ATOM     18  H32 UNL     1      -6.889  11.832 -19.849  1.00  0.00     0.178 HD
ATOM     19  H31 UNL     1      -6.848  13.406 -20.465  1.00  0.00     0.178 HD
ENDBRANCH   2  17
TORSDOF 5
ENDMDL
MODEL 5
REMARK VINA RESULT: -4.678726290      1.483      2.343
REMARK  5 active torsions:
REMARK  status: ('A' for Active; 'I' for Inactive)
REMARK    1  A    between atoms: N1_1  and  C1_4 
REMARK    2  A    between atoms: N2_5  and  N3_6 
REMARK    3  A    between atoms: N4_11  and  N5_12 
REMARK    4  A    between atoms: N5_12  and  S1_14 
REMARK    5  A    between atoms: S1_14  and  N6_15 
ROOT
HETATM    1  C1  UNL     1      -5.077  11.816 -18.055  1.00  0.00     0.718 A 
HETATM    2  N2  UNL     1      -5.154  12.661 -19.112  1.00  0.00    -0.102 N 
HETATM    3  C2  UNL     1      -4.841  13.914 -18.775  1.00  0.00     0.154 A 
HETATM    4  C3  UNL     1      -4.547  13.860 -17.423  1.00  0.00     0.155 A 
HETATM    5  N4  UNL     1      -4.698  12.585 -17.022  1.00  0.00    -0.084 N 
ENDROOT
BRANCH   5   6
HETATM    6  N5  UNL     1      -4.487  12.163 -15.725  1.00  0.00    -0.189 N 
ATOM      7  H5  UNL     1      -5.297  11.951 -15.143  1.00  0.00     0.203 HD
BRANCH   6   8
HETATM    8  S1  UNL     1      -2.907  11.976 -15.040  1.00  0.00     0.331 S 
HETATM    9  O1  UNL     1      -2.926  10.832 -14.077  1.00  0.00    -0.181 OA
HETATM   10  O2  UNL     1      -2.479  13.211 -14.302  1.00  0.00    -0.181 OA
BRANCH   8  11
HETATM   11  N6  UNL     1      -1.850  11.613 -16.365  1.00  0.00    -0.310 N 
ATOM     12  H62 UNL     1      -1.583  12.250 -17.116  1.00  0.00     0.170 HD
ATOM     13  H61 UNL     1      -1.559  10.643 -16.237  1.00  0.00     0.170 HD
ENDBRANCH   8  11
ENDBRANCH   6   8
ENDBRANCH   5   6
BRANCH   1  14
HETATM   14  N1  UNL     1      -5.324  10.570 -18.128  1.00  0.00    -0.231 N 
ATOM     15  H12 UNL     1      -6.205  10.056 -18.112  1.00  0.00     0.174 HD
ATOM     16  H11 UNL     1      -4.603   9.855 -18.216  1.00  0.00     0.174 HD
ENDBRANCH   1  14
BRANCH   2  17
HETATM   17  N3  UNL     1      -5.523  12.252 -20.407  1.00  0.00    -0.325 N 
ATOM     18  H32 UNL     1      -5.347  12.789 -21.255  1.00  0.00     0.178 HD
ATOM     19  H31 UNL     1      -6.004  11.374 -20.604  1.00  0.00     0.178 HD
ENDBRANCH   2  17
TORSDOF 5
ENDMDL
