MODEL 1
REMARK VINA RESULT: -5.873015409      0.000      0.000
REMARK  4 active torsions:
REMARK  status: ('A' for Active; 'I' for Inactive)
REMARK    1  A    between atoms: N1_1  and  N2_4 
REMARK    2  A    between atoms: N2_4  and  O1_5 
REMARK    3  A    between atoms: N2_4  and  N3_7 
REMARK    4  A    between atoms: C3_15  and  C4_16 
ROOT
HETATM    1  N3  UNL     1      -4.689  13.872 -18.972  1.00  0.00    -0.133 N 
HETATM    2  N4  UNL     1      -4.762  15.172 -19.182  1.00  0.00    -0.238 N 
ATOM      3  H4  UNL     1      -5.094  15.604 -20.045  1.00  0.00     0.192 HD
HETATM    4  C1  UNL     1      -4.342  15.843 -18.109  1.00  0.00     0.292 A 
HETATM    5  O2  UNL     1      -4.254  17.075 -17.899  1.00  0.00    -0.264 OA
HETATM    6  C2  UNL     1      -3.989  14.894 -17.179  1.00  0.00     0.152 A 
HETATM    7  N5  UNL     1      -3.507  14.698 -15.941  1.00  0.00    -0.331 N 
ATOM      8  H5  UNL     1      -3.246  15.430 -15.281  1.00  0.00     0.168 HD
HETATM    9  C3  UNL     1      -3.427  13.376 -15.718  1.00  0.00     0.174 A 
HETATM   10  N7  UNL     1      -3.861  12.699 -16.822  1.00  0.00    -0.319 N 
ATOM     11  H7  UNL     1      -3.913  11.687 -16.945  1.00  0.00     0.169 HD
HETATM   12  C5  UNL     1      -4.206  13.655 -17.722  1.00  0.00     0.184 A 
ENDROOT
BRANCH   1  13
HETATM   13  N2  UNL     1      -5.039  12.867 -19.882  1.00  0.00    -0.078 N 
BRANCH  13  14
HETATM   14  N1  UNL     1      -6.214  12.397 -19.942  1.00  0.00    -0.302 N 
ATOM     15  H12 UNL     1      -6.473  11.675 -20.615  1.00  0.00     0.181 HD
ATOM     16  H11 UNL     1      -6.937  12.734 -19.307  1.00  0.00     0.181 HD
ENDBRANCH  13  14
BRANCH  13  17
HETATM   17  O1  UNL     1      -4.063  12.399 -20.720  1.00  0.00    -0.252 OA
ATOM     18  H1  UNL     1      -3.275  12.908 -20.870  1.00  0.00     0.248 HD
ENDBRANCH  13  17
ENDBRANCH   1  13
BRANCH   9  19
HETATM   19  C4  UNL     1      -2.937  12.776 -14.478  1.00  0.00     0.298 C 
HETATM   20  N6  UNL     1      -2.517  13.679 -13.441  1.00  0.00    -0.054 NA
HETATM   21  O3  UNL     1      -2.887  11.521 -14.324  1.00  0.00    -0.268 OA
ENDBRANCH   9  19
TORSDOF 4
ENDMDL
MODEL 2
REMARK VINA RESULT: -5.846813819      2.186      4.632
REMARK  4 active torsions:
REMARK  status: ('A' for Active; 'I' for Inactive)
REMARK    1  A    between atoms: N1_1  and  N2_4 
REMARK    2  A    between atoms: N2_4  and  O1_5 
REMARK    3  A    between atoms: N2_4  and  N3_7 
REMARK    4  A    between atoms: C3_15  and  C4_16 
ROOT
HETATM    1  N3  UNL     1      -3.131  12.661 -15.669  1.00  0.00    -0.133 N 
HETATM    2  N4  UNL     1      -3.122  12.120 -16.872  1.00  0.00    -0.238 N 
ATOM      3  H4  UNL     1      -3.031  11.121 -17.059  1.00  0.00     0.192 HD
HETATM    4  C1  UNL     1      -3.248  13.060 -17.809  1.00  0.00     0.292 A 
HETATM    5  O2  UNL     1      -3.285  12.970 -19.057  1.00  0.00    -0.264 OA
HETATM    6  C2  UNL     1      -3.341  14.257 -17.139  1.00  0.00     0.152 A 
HETATM    7  N5  UNL     1      -3.473  15.586 -17.280  1.00  0.00    -0.331 N 
ATOM      8  H5  UNL     1      -3.553  16.085 -18.165  1.00  0.00     0.168 HD
HETATM    9  C3  UNL     1      -3.482  16.147 -16.060  1.00  0.00     0.174 A 
HETATM   10  N7  UNL     1      -3.354  15.175 -15.108  1.00  0.00    -0.319 N 
ATOM     11  H7  UNL     1      -3.329  15.302 -14.096  1.00  0.00     0.169 HD
HETATM   12  C5  UNL     1      -3.268  14.006 -15.793  1.00  0.00     0.184 A 
ENDROOT
BRANCH   1  13
HETATM   13  N2  UNL     1      -3.012  11.977 -14.453  1.00  0.00    -0.078 N 
BRANCH  13  14
HETATM   14  N1  UNL     1      -2.832  10.724 -14.404  1.00  0.00    -0.302 N 
ATOM     15  H12 UNL     1      -1.909  10.316 -14.258  1.00  0.00     0.181 HD
ATOM     16  H11 UNL     1      -3.621  10.086 -14.509  1.00  0.00     0.181 HD
ENDBRANCH  13  14
BRANCH  13  17
HETATM   17  O1  UNL     1      -3.094  12.709 -13.300  1.00  0.00    -0.252 OA
ATOM     18  H1  UNL     1      -2.933  13.645 -13.314  1.00  0.00     0.248 HD
ENDBRANCH  13  17
ENDBRANCH   1  13
BRANCH   9  19
HETATM   19  C4  UNL     1      -3.602  17.583 -15.813  1.00  0.00     0.298 C 
HETATM   20  N6  UNL     1      -4.002  17.984 -14.491  1.00  0.00    -0.054 NA
HETATM   21  O3  UNL     1      -3.364  18.434 -16.719  1.00  0.00    -0.268 OA
ENDBRANCH   9  19
TORSDOF 4
ENDMDL
MODEL 3
REMARK VINA RESULT: -5.832337856      0.996      2.918
REMARK  4 active torsions:
REMARK  status: ('A' for Active; 'I' for Inactive)
REMARK    1  A    between atoms: N1_1  and  N2_4 
REMARK    2  A    between atoms: N2_4  and  O1_5 
REMARK    3  A    between atoms: N2_4  and  N3_7 
REMARK    4  A    between atoms: C3_15  and  C4_16 
ROOT
HETATM    1  N3  UNL     1      -4.360  14.900 -18.567  1.00  0.00    -0.133 N 
HETATM    2  N4  UNL     1      -4.652  14.039 -19.523  1.00  0.00    -0.238 N 
ATOM      3  H4  UNL     1      -4.966  14.295 -20.459  1.00  0.00     0.192 HD
HETATM    4  C1  UNL     1      -4.479  12.788 -19.094  1.00  0.00     0.292 A 
HETATM    5  O2  UNL     1      -4.643  11.694 -19.679  1.00  0.00    -0.264 OA
HETATM    6  C2  UNL     1      -4.053  12.887 -17.790  1.00  0.00     0.152 A 
HETATM    7  N5  UNL     1      -3.681  12.194 -16.703  1.00  0.00    -0.331 N 
ATOM      8  H5  UNL     1      -3.633  11.178 -16.632  1.00  0.00     0.168 HD
HETATM    9  C3  UNL     1      -3.382  13.063 -15.723  1.00  0.00     0.174 A 
HETATM   10  N7  UNL     1      -3.561  14.340 -16.173  1.00  0.00    -0.319 N 
ATOM     11  H7  UNL     1      -3.414  15.205 -15.653  1.00  0.00     0.169 HD
HETATM   12  C5  UNL     1      -3.978  14.215 -17.459  1.00  0.00     0.184 A 
ENDROOT
BRANCH   1  13
HETATM   13  N2  UNL     1      -4.435  16.295 -18.661  1.00  0.00    -0.078 N 
BRANCH  13  14
HETATM   14  N1  UNL     1      -4.793  16.878 -19.727  1.00  0.00    -0.302 N 
ATOM     15  H12 UNL     1      -5.076  17.857 -19.739  1.00  0.00     0.181 HD
ATOM     16  H11 UNL     1      -4.804  16.371 -20.612  1.00  0.00     0.181 HD
ENDBRANCH  13  14
BRANCH  13  17
HETATM   17  O1  UNL     1      -4.107  17.026 -17.551  1.00  0.00    -0.252 OA
ATOM     18  H1  UNL     1      -3.228  17.371 -17.446  1.00  0.00     0.248 HD
ENDBRANCH  13  17
ENDBRANCH   1  13
BRANCH   9  19
HETATM   19  C4  UNL     1      -2.944  12.677 -14.382  1.00  0.00     0.298 C 
HETATM   20  N6  UNL     1      -2.526  13.736 -13.505  1.00  0.00    -0.054 NA
HETATM   21  O3  UNL     1      -2.934  11.466 -14.011  1.00  0.00    -0.268 OA
ENDBRANCH   9  19
TORSDOF 4
ENDMDL
MODEL 4
REMARK VINA RESULT: -5.731846648      2.509      4.645
REMARK  4 active torsions:
REMARK  status: ('A' for Active; 'I' for Inactive)
REMARK    1  A    between atoms: N1_1  and  N2_4 
REMARK    2  A    between atoms: N2_4  and  O1_5 
REMARK    3  A    between atoms: N2_4  and  N3_7 
REMARK    4  A    between atoms: C3_15  and  C4_16 
ROOT
HETATM    1  N3  UNL     1      -4.267  17.364 -16.847  1.00  0.00    -0.133 N 
HETATM    2  N4  UNL     1      -4.178  18.195 -17.867  1.00  0.00    -0.238 N 
ATOM      3  H4  UNL     1      -4.042  19.203 -17.785  1.00  0.00     0.192 HD
HETATM    4  C1  UNL     1      -4.293  17.534 -19.019  1.00  0.00     0.292 A 
HETATM    5  O2  UNL     1      -4.264  17.945 -20.202  1.00  0.00    -0.264 OA
HETATM    6  C2  UNL     1      -4.461  16.211 -18.686  1.00  0.00     0.152 A 
HETATM    7  N5  UNL     1      -4.640  14.972 -19.171  1.00  0.00    -0.331 N 
ATOM      8  H5  UNL     1      -4.697  14.722 -20.158  1.00  0.00     0.168 HD
HETATM    9  C3  UNL     1      -4.733  14.118 -18.139  1.00  0.00     0.174 A 
HETATM   10  N7  UNL     1      -4.613  14.805 -16.964  1.00  0.00    -0.319 N 
ATOM     11  H7  UNL     1      -4.644  14.422 -16.019  1.00  0.00     0.169 HD
HETATM   12  C5  UNL     1      -4.445  16.104 -17.320  1.00  0.00     0.184 A 
ENDROOT
BRANCH   1  13
HETATM   13  N2  UNL     1      -4.198  17.709 -15.491  1.00  0.00    -0.078 N 
BRANCH  13  14
HETATM   14  N1  UNL     1      -3.620  18.764 -15.096  1.00  0.00    -0.302 N 
ATOM     15  H12 UNL     1      -3.727  19.115 -14.145  1.00  0.00     0.181 HD
ATOM     16  H11 UNL     1      -3.024  19.293 -15.732  1.00  0.00     0.181 HD
ENDBRANCH  13  14
BRANCH  13  17
HETATM   17  O1  UNL     1      -4.783  16.862 -14.588  1.00  0.00    -0.252 OA
ATOM     18  H1  UNL     1      -4.949  15.956 -14.819  1.00  0.00     0.248 HD
ENDBRANCH  13  17
ENDBRANCH   1  13
BRANCH   9  19
HETATM   19  C4  UNL     1      -4.940  12.677 -18.276  1.00  0.00     0.298 C 
HETATM   20  N6  UNL     1      -4.646  12.097 -19.558  1.00  0.00    -0.054 NA
HETATM   21  O3  UNL     1      -5.358  11.973 -17.311  1.00  0.00    -0.268 OA
ENDBRANCH   9  19
TORSDOF 4
ENDMDL
MODEL 5
REMARK VINA RESULT: -5.684023445      1.718      3.260
REMARK  4 active torsions:
REMARK  status: ('A' for Active; 'I' for Inactive)
REMARK    1  A    between atoms: N1_1  and  N2_4 
REMARK    2  A    between atoms: N2_4  and  O1_5 
REMARK    3  A    between atoms: N2_4  and  N3_7 
REMARK    4  A    between atoms: C3_15  and  C4_16 
ROOT
HETATM    1  N3  UNL     1      -4.522  12.458 -18.252  1.00  0.00    -0.133 N 
HETATM    2  N4  UNL     1      -4.721  11.400 -17.489  1.00  0.00    -0.238 N 
ATOM      3  H4  UNL     1      -5.117  10.517 -17.811  1.00  0.00     0.192 HD
HETATM    4  C1  UNL     1      -4.333  11.647 -16.237  1.00  0.00     0.292 A 
HETATM    5  O2  UNL     1      -4.351  10.920 -15.218  1.00  0.00    -0.264 OA
HETATM    6  C2  UNL     1      -3.864  12.940 -16.231  1.00  0.00     0.152 A 
HETATM    7  N5  UNL     1      -3.334  13.910 -15.469  1.00  0.00    -0.331 N 
ATOM      8  H5  UNL     1      -3.123  13.838 -14.475  1.00  0.00     0.168 HD
HETATM    9  C3  UNL     1      -3.129  14.993 -16.238  1.00  0.00     0.174 A 
HETATM   10  N7  UNL     1      -3.529  14.728 -17.517  1.00  0.00    -0.319 N 
ATOM     11  H7  UNL     1      -3.493  15.359 -18.318  1.00  0.00     0.169 HD
HETATM   12  C5  UNL     1      -3.983  13.449 -17.498  1.00  0.00     0.184 A 
ENDROOT
BRANCH   1  13
HETATM   13  N2  UNL     1      -4.820  12.560 -19.616  1.00  0.00    -0.078 N 
BRANCH  13  14
HETATM   14  N1  UNL     1      -6.003  12.447 -20.055  1.00  0.00    -0.302 N 
ATOM     15  H12 UNL     1      -6.550  11.597 -19.920  1.00  0.00     0.181 HD
ATOM     16  H11 UNL     1      -6.441  13.217 -20.560  1.00  0.00     0.181 HD
ENDBRANCH  13  14
BRANCH  13  17
HETATM   17  O1  UNL     1      -3.782  12.793 -20.478  1.00  0.00    -0.252 OA
ATOM     18  H1  UNL     1      -3.380  12.073 -20.949  1.00  0.00     0.248 HD
ENDBRANCH  13  17
ENDBRANCH   1  13
BRANCH   9  19
HETATM   19  C4  UNL     1      -2.570  16.254 -15.754  1.00  0.00     0.298 C 
HETATM   20  N6  UNL     1      -3.465  17.137 -15.056  1.00  0.00    -0.054 NA
HETATM   21  O3  UNL     1      -1.355  16.556 -15.940  1.00  0.00    -0.268 OA
ENDBRANCH   9  19
TORSDOF 4
ENDMDL
