MODEL 1
REMARK VINA RESULT: -5.450640620      0.000      0.000
REMARK  5 active torsions:
REMARK  status: ('A' for Active; 'I' for Inactive)
REMARK    1  A    between atoms: C2_3  and  N2_4 
REMARK    2  A    between atoms: C2_3  and  N3_8 
REMARK    3  A    between atoms: N3_8  and  C3_10 
REMARK    4  A    between atoms: C3_10  and  C4_14 
REMARK    5  A    between atoms: C4_14  and  C5_16 
ROOT
HETATM    1  N1  UNL     1      -7.987  16.820 -18.130  1.00  0.00    -0.193 NA
HETATM    2  C1  UNL     1      -6.937  16.551 -17.707  1.00  0.00     0.114 C 
HETATM    3  C2  UNL     1      -5.617  16.229 -17.179  1.00  0.00     0.390 C 
ENDROOT
BRANCH   3   4
HETATM    4  N2  UNL     1      -5.547  16.735 -15.821  1.00  0.00    -0.045 N 
ATOM      5  H23 UNL     1      -4.625  16.617 -15.402  1.00  0.00     0.278 HD
ATOM      6  H22 UNL     1      -5.586  17.754 -15.776  1.00  0.00     0.278 HD
ATOM      7  H21 UNL     1      -6.287  16.287 -15.282  1.00  0.00     0.278 HD
ENDBRANCH   3   4
BRANCH   3   8
HETATM    8  N3  UNL     1      -5.466  14.795 -17.220  1.00  0.00    -0.335 N 
ATOM      9  H3  UNL     1      -6.119  14.201 -16.708  1.00  0.00     0.164 HD
BRANCH   8  10
HETATM   10  C3  UNL     1      -4.402  14.200 -17.976  1.00  0.00     0.150 C 
HETATM   11  N4  UNL     1      -4.349  14.525 -19.200  1.00  0.00    -0.382 N 
ATOM     12  H42 UNL     1      -4.990  15.161 -19.674  1.00  0.00     0.157 HD
ATOM     13  H41 UNL     1      -3.593  14.102 -19.737  1.00  0.00     0.157 HD
BRANCH  10  14
HETATM   14  C4  UNL     1      -3.508  13.312 -17.315  1.00  0.00     0.243 C 
HETATM   15  O1  UNL     1      -2.874  12.459 -18.056  1.00  0.00    -0.282 OA
BRANCH  14  16
HETATM   16  C5  UNL     1      -3.247  13.280 -15.879  1.00  0.00     0.116 A 
HETATM   17  C6  UNL     1      -3.249  12.155 -15.050  1.00  0.00     0.139 A 
HETATM   18  N5  UNL     1      -2.965  12.523 -13.793  1.00  0.00    -0.293 N 
HETATM   19  N6  UNL     1      -2.790  13.838 -13.831  1.00  0.00    -0.022 NA
ATOM     20  H5  UNL     1      -2.898  11.917 -12.975  1.00  0.00     0.183 HD
HETATM   21  N7  UNL     1      -2.955  14.289 -15.061  1.00  0.00    -0.279 N 
ATOM     22  H7  UNL     1      -2.871  15.266 -15.343  1.00  0.00     0.184 HD
ENDBRANCH  14  16
ENDBRANCH  10  14
ENDBRANCH   8  10
ENDBRANCH   3   8
TORSDOF 5
ENDMDL
MODEL 2
REMARK VINA RESULT: -5.383495934      2.160      4.976
REMARK  5 active torsions:
REMARK  status: ('A' for Active; 'I' for Inactive)
REMARK    1  A    between atoms: C2_3  and  N2_4 
REMARK    2  A    between atoms: C2_3  and  N3_8 
REMARK    3  A    between atoms: N3_8  and  C3_10 
REMARK    4  A    between atoms: C3_10  and  C4_14 
REMARK    5  A    between atoms: C4_14  and  C5_16 
ROOT
HETATM    1  N1  UNL     1      -2.703  13.828 -13.877  1.00  0.00    -0.193 NA
HETATM    2  C1  UNL     1      -2.850  12.796 -14.394  1.00  0.00     0.114 C 
HETATM    3  C2  UNL     1      -3.020  11.505 -15.049  1.00  0.00     0.390 C 
ENDROOT
BRANCH   3   4
HETATM    4  N2  UNL     1      -2.130  10.559 -14.402  1.00  0.00    -0.045 N 
ATOM      5  H23 UNL     1      -2.169   9.630 -14.820  1.00  0.00     0.278 HD
ATOM      6  H22 UNL     1      -1.146  10.750 -14.587  1.00  0.00     0.278 HD
ATOM      7  H21 UNL     1      -2.352  10.554 -13.406  1.00  0.00     0.278 HD
ENDBRANCH   3   4
BRANCH   3   8
HETATM    8  N3  UNL     1      -4.402  11.119 -14.906  1.00  0.00    -0.335 N 
ATOM      9  H3  UNL     1      -4.710  10.640 -14.059  1.00  0.00     0.164 HD
BRANCH   8  10
HETATM   10  C3  UNL     1      -5.345  11.404 -15.948  1.00  0.00     0.150 C 
HETATM   11  N4  UNL     1      -6.566  11.348 -15.614  1.00  0.00    -0.382 N 
ATOM     12  H42 UNL     1      -6.918  11.122 -14.684  1.00  0.00     0.157 HD
ATOM     13  H41 UNL     1      -7.237  11.551 -16.355  1.00  0.00     0.157 HD
BRANCH  10  14
HETATM   14  C4  UNL     1      -4.855  11.719 -17.246  1.00  0.00     0.243 C 
HETATM   15  O1  UNL     1      -4.490  10.725 -17.993  1.00  0.00    -0.282 OA
BRANCH  14  16
HETATM   16  C5  UNL     1      -4.728  13.062 -17.805  1.00  0.00     0.116 A 
HETATM   17  C6  UNL     1      -4.280  13.400 -19.085  1.00  0.00     0.139 A 
HETATM   18  N5  UNL     1      -4.303  14.732 -19.232  1.00  0.00    -0.293 N 
HETATM   19  N6  UNL     1      -4.751  15.216 -18.080  1.00  0.00    -0.022 NA
ATOM     20  H5  UNL     1      -4.032  15.264 -20.058  1.00  0.00     0.183 HD
HETATM   21  N7  UNL     1      -5.003  14.233 -17.234  1.00  0.00    -0.279 N 
ATOM     22  H7  UNL     1      -5.356  14.353 -16.285  1.00  0.00     0.184 HD
ENDBRANCH  14  16
ENDBRANCH  10  14
ENDBRANCH   8  10
ENDBRANCH   3   8
TORSDOF 5
ENDMDL
MODEL 3
REMARK VINA RESULT: -5.358054271      1.328      1.814
REMARK  5 active torsions:
REMARK  status: ('A' for Active; 'I' for Inactive)
REMARK    1  A    between atoms: C2_3  and  N2_4 
REMARK    2  A    between atoms: C2_3  and  N3_8 
REMARK    3  A    between atoms: N3_8  and  C3_10 
REMARK    4  A    between atoms: C3_10  and  C4_14 
REMARK    5  A    between atoms: C4_14  and  C5_16 
ROOT
HETATM    1  N1  UNL     1      -4.969  17.769 -14.329  1.00  0.00    -0.193 NA
HETATM    2  C1  UNL     1      -4.801  17.408 -15.423  1.00  0.00     0.114 C 
HETATM    3  C2  UNL     1      -4.589  16.971 -16.797  1.00  0.00     0.390 C 
ENDROOT
BRANCH   3   4
HETATM    4  N2  UNL     1      -3.174  17.102 -17.091  1.00  0.00    -0.045 N 
ATOM      5  H23 UNL     1      -2.588  17.015 -16.261  1.00  0.00     0.278 HD
ATOM      6  H22 UNL     1      -2.800  16.303 -17.604  1.00  0.00     0.278 HD
ATOM      7  H21 UNL     1      -3.038  17.985 -17.580  1.00  0.00     0.278 HD
ENDBRANCH   3   4
BRANCH   3   8
HETATM    8  N3  UNL     1      -5.027  15.600 -16.895  1.00  0.00    -0.335 N 
ATOM      9  H3  UNL     1      -5.793  15.270 -16.307  1.00  0.00     0.164 HD
BRANCH   8  10
HETATM   10  C3  UNL     1      -4.394  14.700 -17.814  1.00  0.00     0.150 C 
HETATM   11  N4  UNL     1      -4.638  14.905 -19.041  1.00  0.00    -0.382 N 
ATOM     12  H42 UNL     1      -5.235  15.645 -19.412  1.00  0.00     0.157 HD
ATOM     13  H41 UNL     1      -4.187  14.266 -19.694  1.00  0.00     0.157 HD
BRANCH  10  14
HETATM   14  C4  UNL     1      -3.561  13.669 -17.296  1.00  0.00     0.243 C 
HETATM   15  O1  UNL     1      -3.003  12.879 -18.157  1.00  0.00    -0.282 OA
BRANCH  14  16
HETATM   16  C5  UNL     1      -3.283  13.428 -15.883  1.00  0.00     0.116 A 
HETATM   17  C6  UNL     1      -3.337  12.203 -15.214  1.00  0.00     0.139 A 
HETATM   18  N5  UNL     1      -3.018  12.380 -13.925  1.00  0.00    -0.293 N 
HETATM   19  N6  UNL     1      -2.772  13.677 -13.788  1.00  0.00    -0.022 NA
ATOM     20  H5  UNL     1      -2.973  11.666 -13.199  1.00  0.00     0.183 HD
HETATM   21  N7  UNL     1      -2.928  14.300 -14.942  1.00  0.00    -0.279 N 
ATOM     22  H7  UNL     1      -2.795  15.301 -15.090  1.00  0.00     0.184 HD
ENDBRANCH  14  16
ENDBRANCH  10  14
ENDBRANCH   8  10
ENDBRANCH   3   8
TORSDOF 5
ENDMDL
MODEL 4
REMARK VINA RESULT: -5.336858732      1.448      2.082
REMARK  5 active torsions:
REMARK  status: ('A' for Active; 'I' for Inactive)
REMARK    1  A    between atoms: C2_3  and  N2_4 
REMARK    2  A    between atoms: C2_3  and  N3_8 
REMARK    3  A    between atoms: N3_8  and  C3_10 
REMARK    4  A    between atoms: C3_10  and  C4_14 
REMARK    5  A    between atoms: C4_14  and  C5_16 
ROOT
HETATM    1  N1  UNL     1      -3.458  17.032 -16.457  1.00  0.00    -0.193 NA
HETATM    2  C1  UNL     1      -4.061  16.662 -17.382  1.00  0.00     0.114 C 
HETATM    3  C2  UNL     1      -4.825  16.211 -18.538  1.00  0.00     0.390 C 
ENDROOT
BRANCH   3   4
HETATM    4  N2  UNL     1      -4.445  17.036 -19.669  1.00  0.00    -0.045 N 
ATOM      5  H23 UNL     1      -4.112  17.959 -19.392  1.00  0.00     0.278 HD
ATOM      6  H22 UNL     1      -3.590  16.715 -20.124  1.00  0.00     0.278 HD
ATOM      7  H21 UNL     1      -5.240  17.078 -20.306  1.00  0.00     0.278 HD
ENDBRANCH   3   4
BRANCH   3   8
HETATM    8  N3  UNL     1      -4.505  14.823 -18.762  1.00  0.00    -0.335 N 
ATOM      9  H3  UNL     1      -4.076  14.537 -19.642  1.00  0.00     0.164 HD
BRANCH   8  10
HETATM   10  C3  UNL     1      -4.787  13.843 -17.754  1.00  0.00     0.150 C 
HETATM   11  N4  UNL     1      -6.012  13.678 -17.474  1.00  0.00    -0.382 N 
ATOM     12  H42 UNL     1      -6.792  14.178 -17.902  1.00  0.00     0.157 HD
ATOM     13  H41 UNL     1      -6.213  12.981 -16.757  1.00  0.00     0.157 HD
BRANCH  10  14
HETATM   14  C4  UNL     1      -3.700  13.145 -17.156  1.00  0.00     0.243 C 
HETATM   15  O1  UNL     1      -2.945  12.449 -17.946  1.00  0.00    -0.282 OA
BRANCH  14  16
HETATM   16  C5  UNL     1      -3.365  13.148 -15.735  1.00  0.00     0.116 A 
HETATM   17  C6  UNL     1      -3.373  12.052 -14.868  1.00  0.00     0.139 A 
HETATM   18  N5  UNL     1      -3.008  12.446 -13.641  1.00  0.00    -0.293 N 
HETATM   19  N6  UNL     1      -2.779  13.750 -13.733  1.00  0.00    -0.022 NA
ATOM     20  H5  UNL     1      -2.925  11.865 -12.808  1.00  0.00     0.183 HD
HETATM   21  N7  UNL     1      -2.989  14.169 -14.968  1.00  0.00    -0.279 N 
ATOM     22  H7  UNL     1      -2.879  15.132 -15.287  1.00  0.00     0.184 HD
ENDBRANCH  14  16
ENDBRANCH  10  14
ENDBRANCH   8  10
ENDBRANCH   3   8
TORSDOF 5
ENDMDL
MODEL 5
REMARK VINA RESULT: -5.284368427      4.698      5.539
REMARK  5 active torsions:
REMARK  status: ('A' for Active; 'I' for Inactive)
REMARK    1  A    between atoms: C2_3  and  N2_4 
REMARK    2  A    between atoms: C2_3  and  N3_8 
REMARK    3  A    between atoms: N3_8  and  C3_10 
REMARK    4  A    between atoms: C3_10  and  C4_14 
REMARK    5  A    between atoms: C4_14  and  C5_16 
ROOT
HETATM    1  N1  UNL     1      -5.956  21.102 -14.415  1.00  0.00    -0.193 NA
HETATM    2  C1  UNL     1      -5.146  20.533 -15.028  1.00  0.00     0.114 C 
HETATM    3  C2  UNL     1      -4.138  19.827 -15.809  1.00  0.00     0.390 C 
ENDROOT
BRANCH   3   4
HETATM    4  N2  UNL     1      -3.164  20.802 -16.260  1.00  0.00    -0.045 N 
ATOM      5  H23 UNL     1      -3.475  21.322 -17.081  1.00  0.00     0.278 HD
ATOM      6  H22 UNL     1      -3.073  21.595 -15.625  1.00  0.00     0.278 HD
ATOM      7  H21 UNL     1      -2.282  20.314 -16.412  1.00  0.00     0.278 HD
ENDBRANCH   3   4
BRANCH   3   8
HETATM    8  N3  UNL     1      -3.538  18.832 -14.954  1.00  0.00    -0.335 N 
ATOM      9  H3  UNL     1      -3.286  19.073 -13.995  1.00  0.00     0.164 HD
BRANCH   8  10
HETATM   10  C3  UNL     1      -3.294  17.507 -15.445  1.00  0.00     0.150 C 
HETATM   11  N4  UNL     1      -4.297  16.732 -15.458  1.00  0.00    -0.382 N 
ATOM     12  H42 UNL     1      -5.240  16.976 -15.155  1.00  0.00     0.157 HD
ATOM     13  H41 UNL     1      -4.123  15.790 -15.808  1.00  0.00     0.157 HD
BRANCH  10  14
HETATM   14  C4  UNL     1      -1.979  17.167 -15.869  1.00  0.00     0.243 C 
HETATM   15  O1  UNL     1      -1.764  15.927 -16.175  1.00  0.00    -0.282 OA
BRANCH  14  16
HETATM   16  C5  UNL     1      -0.856  18.094 -15.987  1.00  0.00     0.116 A 
HETATM   17  C6  UNL     1      -0.400  18.716 -17.152  1.00  0.00     0.139 A 
HETATM   18  N5  UNL     1       0.651  19.495 -16.862  1.00  0.00    -0.293 N 
HETATM   19  N6  UNL     1       0.849  19.367 -15.557  1.00  0.00    -0.022 NA
ATOM     20  H5  UNL     1       1.188  20.069 -17.512  1.00  0.00     0.183 HD
HETATM   21  N7  UNL     1      -0.039  18.540 -15.035  1.00  0.00    -0.279 N 
ATOM     22  H7  UNL     1      -0.091  18.282 -14.049  1.00  0.00     0.184 HD
ENDBRANCH  14  16
ENDBRANCH  10  14
ENDBRANCH   8  10
ENDBRANCH   3   8
TORSDOF 5
ENDMDL
