MODEL 1
REMARK VINA RESULT: -7.091394125      0.000      0.000
REMARK  8 active torsions:
REMARK  status: ('A' for Active; 'I' for Inactive)
REMARK    1  A    between atoms: N1_1  and  C1_4 
REMARK    2  A    between atoms: C2_7  and  N3_8 
REMARK    3  A    between atoms: N4_10  and  N5_12 
REMARK    4  A    between atoms: N5_12  and  C3_13 
REMARK    5  A    between atoms: N5_12  and  C4_15 
REMARK    6  A    between atoms: C6_20  and  S1_21 
REMARK    7  A    between atoms: S1_21  and  N7_24 
REMARK    8  A    between atoms: N7_24  and  N8_26 
ROOT
HETATM    1  C1  UNL     1      24.414  14.896  60.774  1.00  0.00     0.679 A 
HETATM    2  N2  UNL     1      24.249  16.042  61.461  1.00  0.00    -0.174 N 
ATOM      3  H2  UNL     1      23.325  16.366  61.746  1.00  0.00     0.186 HD
HETATM    4  C2  UNL     1      25.359  16.738  61.753  1.00  0.00     0.164 A 
HETATM    5  C6  UNL     1      26.645  16.321  61.374  1.00  0.00     0.170 A 
HETATM    6  C7  UNL     1      26.756  15.148  60.676  1.00  0.00     0.142 A 
HETATM    7  N9  UNL     1      27.886  14.698  60.294  1.00  0.00    -0.384 N 
ATOM      8  H91 UNL     1      27.969  13.824  59.774  1.00  0.00     0.157 HD
ATOM      9  H92 UNL     1      28.739  15.216  60.507  1.00  0.00     0.157 HD
HETATM   10  N10 UNL     1      25.612  14.451  60.389  1.00  0.00    -0.176 N 
ATOM     11  H10 UNL     1      25.678  13.576  59.871  1.00  0.00     0.186 HD
ENDROOT
BRANCH   4  12
HETATM   12  N3  UNL     1      25.263  17.972  62.481  1.00  0.00    -0.269 N 
HETATM   13  N4  UNL     1      24.876  17.977  63.691  1.00  0.00    -0.235 N 
ATOM     14  H4  UNL     1      24.623  17.117  64.178  1.00  0.00     0.208 HD
ATOM     15  H3  UNL     1      25.508  18.850  62.025  1.00  0.00     0.190 HD
BRANCH  13  16
HETATM   16  N5  UNL     1      24.815  19.222  64.318  1.00  0.00    -0.220 N 
BRANCH  16  17
HETATM   17  C3  UNL     1      23.844  19.443  65.309  1.00  0.00     0.374 C 
HETATM   18  O1  UNL     1      22.712  19.851  64.994  1.00  0.00    -0.282 OA
ENDBRANCH  16  17
BRANCH  16  19
HETATM   19  C4  UNL     1      25.774  20.227  63.900  1.00  0.00     0.336 A 
HETATM   20  C5  UNL     1      26.177  21.316  64.811  1.00  0.00     0.291 A 
HETATM   21  N6  UNL     1      27.050  20.173  64.680  1.00  0.00    -0.047 N 
ATOM     22  H62 UNL     1      27.468  19.509  65.331  1.00  0.00     0.279 HD
ATOM     23  H61 UNL     1      28.033  20.042  64.443  1.00  0.00     0.279 HD
ENDBRANCH  16  19
ENDBRANCH  13  16
ENDBRANCH   4  12
BRANCH   5  24
HETATM   24  S1  UNL     1      27.989  17.316  61.817  1.00  0.00     0.283 S 
HETATM   25  O2  UNL     1      27.868  17.555  63.334  1.00  0.00    -0.199 OA
HETATM   26  O3  UNL     1      29.322  16.701  61.619  1.00  0.00    -0.199 OA
BRANCH  24  27
HETATM   27  N7  UNL     1      27.844  18.892  61.097  1.00  0.00    -0.229 N 
ATOM     28  H7  UNL     1      27.933  19.784  61.584  1.00  0.00     0.199 HD
BRANCH  27  29
HETATM   29  N8  UNL     1      27.587  18.727  59.750  1.00  0.00    -0.336 N 
ATOM     30  H82 UNL     1      27.636  17.841  59.247  1.00  0.00     0.177 HD
ATOM     31  H81 UNL     1      27.344  19.638  59.360  1.00  0.00     0.177 HD
ENDBRANCH  27  29
ENDBRANCH  24  27
ENDBRANCH   5  24
BRANCH   1  32
HETATM   32  N1  UNL     1      23.349  14.226  60.494  1.00  0.00    -0.234 N 
ATOM     33  H12 UNL     1      22.765  14.492  59.700  1.00  0.00     0.174 HD
ATOM     34  H11 UNL     1      23.130  13.435  61.099  1.00  0.00     0.174 HD
ENDBRANCH   1  32
TORSDOF 8
ENDMDL
MODEL 2
REMARK VINA RESULT: -6.958926891      2.596      3.970
REMARK  8 active torsions:
REMARK  status: ('A' for Active; 'I' for Inactive)
REMARK    1  A    between atoms: N1_1  and  C1_4 
REMARK    2  A    between atoms: C2_7  and  N3_8 
REMARK    3  A    between atoms: N4_10  and  N5_12 
REMARK    4  A    between atoms: N5_12  and  C3_13 
REMARK    5  A    between atoms: N5_12  and  C4_15 
REMARK    6  A    between atoms: C6_20  and  S1_21 
REMARK    7  A    between atoms: S1_21  and  N7_24 
REMARK    8  A    between atoms: N7_24  and  N8_26 
ROOT
HETATM    1  C1  UNL     1      23.866  16.900  63.147  1.00  0.00     0.679 A 
HETATM    2  N2  UNL     1      25.014  17.597  63.051  1.00  0.00    -0.174 N 
ATOM      3  H2  UNL     1      25.237  18.350  63.701  1.00  0.00     0.186 HD
HETATM    4  C2  UNL     1      25.848  17.254  62.058  1.00  0.00     0.164 A 
HETATM    5  C6  UNL     1      25.570  16.224  61.145  1.00  0.00     0.170 A 
HETATM    6  C7  UNL     1      24.388  15.546  61.288  1.00  0.00     0.142 A 
HETATM    7  N9  UNL     1      24.058  14.598  60.503  1.00  0.00    -0.384 N 
ATOM      8  H91 UNL     1      23.178  14.094  60.609  1.00  0.00     0.157 HD
ATOM      9  H92 UNL     1      24.682  14.327  59.742  1.00  0.00     0.157 HD
HETATM   10  N10 UNL     1      23.550  15.910  62.308  1.00  0.00    -0.176 N 
ATOM     11  H10 UNL     1      22.666  15.415  62.429  1.00  0.00     0.186 HD
ENDROOT
BRANCH   4  12
HETATM   12  N3  UNL     1      27.091  17.953  61.889  1.00  0.00    -0.269 N 
HETATM   13  N4  UNL     1      27.908  18.057  62.856  1.00  0.00    -0.235 N 
ATOM     14  H4  UNL     1      27.710  17.653  63.772  1.00  0.00     0.208 HD
ATOM     15  H3  UNL     1      27.320  18.370  60.987  1.00  0.00     0.190 HD
BRANCH  13  16
HETATM   16  N5  UNL     1      29.090  18.754  62.599  1.00  0.00    -0.220 N 
BRANCH  16  17
HETATM   17  C3  UNL     1      29.212  20.081  63.040  1.00  0.00     0.374 C 
HETATM   18  O1  UNL     1      28.228  20.842  63.013  1.00  0.00    -0.282 OA
ENDBRANCH  16  17
BRANCH  16  19
HETATM   19  C4  UNL     1      30.135  18.050  61.880  1.00  0.00     0.336 A 
HETATM   20  C5  UNL     1      31.392  17.666  62.551  1.00  0.00     0.291 A 
HETATM   21  N6  UNL     1      30.365  16.664  62.395  1.00  0.00    -0.047 N 
ATOM     22  H62 UNL     1      29.865  16.040  63.029  1.00  0.00     0.279 HD
ATOM     23  H61 UNL     1      30.326  15.729  61.989  1.00  0.00     0.279 HD
ENDBRANCH  16  19
ENDBRANCH  13  16
ENDBRANCH   4  12
BRANCH   5  24
HETATM   24  S1  UNL     1      26.737  15.887  59.913  1.00  0.00     0.283 S 
HETATM   25  O2  UNL     1      28.100  15.789  60.624  1.00  0.00    -0.199 OA
HETATM   26  O3  UNL     1      26.562  14.592  59.216  1.00  0.00    -0.199 OA
BRANCH  24  27
HETATM   27  N7  UNL     1      26.887  17.238  58.830  1.00  0.00    -0.229 N 
ATOM     28  H7  UNL     1      27.289  18.147  59.058  1.00  0.00     0.199 HD
BRANCH  27  29
HETATM   29  N8  UNL     1      26.365  16.866  57.606  1.00  0.00    -0.336 N 
ATOM     30  H82 UNL     1      26.690  16.080  57.043  1.00  0.00     0.177 HD
ATOM     31  H81 UNL     1      25.610  17.512  57.374  1.00  0.00     0.177 HD
ENDBRANCH  27  29
ENDBRANCH  24  27
ENDBRANCH   5  24
BRANCH   1  32
HETATM   32  N1  UNL     1      23.064  17.228  64.101  1.00  0.00    -0.234 N 
ATOM     33  H12 UNL     1      22.392  17.984  63.974  1.00  0.00     0.174 HD
ATOM     34  H11 UNL     1      23.139  16.697  64.969  1.00  0.00     0.174 HD
ENDBRANCH   1  32
TORSDOF 8
ENDMDL
MODEL 3
REMARK VINA RESULT: -6.913784821      1.655      2.294
REMARK  8 active torsions:
REMARK  status: ('A' for Active; 'I' for Inactive)
REMARK    1  A    between atoms: N1_1  and  C1_4 
REMARK    2  A    between atoms: C2_7  and  N3_8 
REMARK    3  A    between atoms: N4_10  and  N5_12 
REMARK    4  A    between atoms: N5_12  and  C3_13 
REMARK    5  A    between atoms: N5_12  and  C4_15 
REMARK    6  A    between atoms: C6_20  and  S1_21 
REMARK    7  A    between atoms: S1_21  and  N7_24 
REMARK    8  A    between atoms: N7_24  and  N8_26 
ROOT
HETATM    1  C1  UNL     1      24.188  15.023  61.370  1.00  0.00     0.679 A 
HETATM    2  N2  UNL     1      23.817  15.879  62.341  1.00  0.00    -0.174 N 
ATOM      3  H2  UNL     1      22.950  15.752  62.862  1.00  0.00     0.186 HD
HETATM    4  C2  UNL     1      24.644  16.906  62.590  1.00  0.00     0.164 A 
HETATM    5  C6  UNL     1      25.844  17.110  61.891  1.00  0.00     0.170 A 
HETATM    6  C7  UNL     1      26.173  16.210  60.912  1.00  0.00     0.142 A 
HETATM    7  N9  UNL     1      27.245  16.322  60.230  1.00  0.00    -0.384 N 
ATOM      8  H91 UNL     1      27.490  15.651  59.501  1.00  0.00     0.157 HD
ATOM      9  H92 UNL     1      27.882  17.098  60.407  1.00  0.00     0.157 HD
HETATM   10  N10 UNL     1      25.318  15.167  60.674  1.00  0.00    -0.176 N 
ATOM     11  H10 UNL     1      25.549  14.488  59.950  1.00  0.00     0.186 HD
ENDROOT
BRANCH   4  12
HETATM   12  N3  UNL     1      24.315  17.862  63.610  1.00  0.00    -0.269 N 
HETATM   13  N4  UNL     1      24.711  17.691  64.805  1.00  0.00    -0.235 N 
ATOM     14  H4  UNL     1      25.268  16.881  65.076  1.00  0.00     0.208 HD
ATOM     15  H3  UNL     1      23.759  18.685  63.374  1.00  0.00     0.190 HD
BRANCH  13  16
HETATM   16  N5  UNL     1      24.344  18.673  65.727  1.00  0.00    -0.220 N 
BRANCH  16  17
HETATM   17  C3  UNL     1      23.695  19.832  65.272  1.00  0.00     0.374 C 
HETATM   18  O1  UNL     1      22.487  19.794  64.973  1.00  0.00    -0.282 OA
ENDBRANCH  16  17
BRANCH  16  19
HETATM   19  C4  UNL     1      24.663  18.430  67.121  1.00  0.00     0.336 A 
HETATM   20  C5  UNL     1      23.849  19.022  68.200  1.00  0.00     0.291 A 
HETATM   21  N6  UNL     1      23.603  17.648  67.833  1.00  0.00    -0.047 N 
ATOM     22  H62 UNL     1      22.782  17.116  67.541  1.00  0.00     0.279 HD
ATOM     23  H61 UNL     1      23.578  16.761  68.336  1.00  0.00     0.279 HD
ENDBRANCH  16  19
ENDBRANCH  13  16
ENDBRANCH   4  12
BRANCH   5  24
HETATM   24  S1  UNL     1      26.815  18.478  62.316  1.00  0.00     0.283 S 
HETATM   25  O2  UNL     1      25.860  19.686  62.366  1.00  0.00    -0.199 OA
HETATM   26  O3  UNL     1      27.441  18.414  63.656  1.00  0.00    -0.199 OA
BRANCH  24  27
HETATM   27  N7  UNL     1      27.942  18.844  61.044  1.00  0.00    -0.229 N 
ATOM     28  H7  UNL     1      27.709  19.000  60.063  1.00  0.00     0.199 HD
BRANCH  27  29
HETATM   29  N8  UNL     1      29.209  18.887  61.593  1.00  0.00    -0.336 N 
ATOM     30  H82 UNL     1      29.416  18.929  62.590  1.00  0.00     0.177 HD
ATOM     31  H81 UNL     1      29.885  18.868  60.829  1.00  0.00     0.177 HD
ENDBRANCH  27  29
ENDBRANCH  24  27
ENDBRANCH   5  24
BRANCH   1  32
HETATM   32  N1  UNL     1      23.396  14.035  61.131  1.00  0.00    -0.234 N 
ATOM     33  H12 UNL     1      22.494  13.970  61.603  1.00  0.00     0.174 HD
ATOM     34  H11 UNL     1      23.717  13.340  60.457  1.00  0.00     0.174 HD
ENDBRANCH   1  32
TORSDOF 8
ENDMDL
MODEL 4
REMARK VINA RESULT: -6.771200047      2.626      3.900
REMARK  8 active torsions:
REMARK  status: ('A' for Active; 'I' for Inactive)
REMARK    1  A    between atoms: N1_1  and  C1_4 
REMARK    2  A    between atoms: C2_7  and  N3_8 
REMARK    3  A    between atoms: N4_10  and  N5_12 
REMARK    4  A    between atoms: N5_12  and  C3_13 
REMARK    5  A    between atoms: N5_12  and  C4_15 
REMARK    6  A    between atoms: C6_20  and  S1_21 
REMARK    7  A    between atoms: S1_21  and  N7_24 
REMARK    8  A    between atoms: N7_24  and  N8_26 
ROOT
HETATM    1  C1  UNL     1      23.878  16.970  63.239  1.00  0.00     0.679 A 
HETATM    2  N2  UNL     1      25.011  17.688  63.115  1.00  0.00    -0.174 N 
ATOM      3  H2  UNL     1      25.219  18.470  63.736  1.00  0.00     0.186 HD
HETATM    4  C2  UNL     1      25.852  17.326  62.135  1.00  0.00     0.164 A 
HETATM    5  C6  UNL     1      25.596  16.257  61.262  1.00  0.00     0.170 A 
HETATM    6  C7  UNL     1      24.429  15.560  61.431  1.00  0.00     0.142 A 
HETATM    7  N9  UNL     1      24.119  14.576  60.682  1.00  0.00    -0.384 N 
ATOM      8  H91 UNL     1      23.250  14.057  60.809  1.00  0.00     0.157 HD
ATOM      9  H92 UNL     1      24.748  14.290  59.932  1.00  0.00     0.157 HD
HETATM   10  N10 UNL     1      23.584  15.943  62.438  1.00  0.00    -0.176 N 
ATOM     11  H10 UNL     1      22.711  15.434  62.579  1.00  0.00     0.186 HD
ENDROOT
BRANCH   4  12
HETATM   12  N3  UNL     1      27.080  18.046  61.938  1.00  0.00    -0.269 N 
HETATM   13  N4  UNL     1      27.930  18.137  62.877  1.00  0.00    -0.235 N 
ATOM     14  H4  UNL     1      27.771  17.708  63.789  1.00  0.00     0.208 HD
ATOM     15  H3  UNL     1      27.270  18.487  61.039  1.00  0.00     0.190 HD
BRANCH  13  16
HETATM   16  N5  UNL     1      29.093  18.854  62.595  1.00  0.00    -0.220 N 
BRANCH  16  17
HETATM   17  C3  UNL     1      30.176  18.194  61.992  1.00  0.00     0.374 C 
HETATM   18  O1  UNL     1      31.221  17.992  62.636  1.00  0.00    -0.282 OA
ENDBRANCH  16  17
BRANCH  16  19
HETATM   19  C4  UNL     1      29.111  20.261  62.947  1.00  0.00     0.336 A 
HETATM   20  C5  UNL     1      28.510  20.735  64.209  1.00  0.00     0.291 A 
HETATM   21  N6  UNL     1      29.940  20.546  64.161  1.00  0.00    -0.047 N 
ATOM     22  H62 UNL     1      30.616  20.016  64.711  1.00  0.00     0.279 HD
ATOM     23  H61 UNL     1      30.751  21.133  64.357  1.00  0.00     0.279 HD
ENDBRANCH  16  19
ENDBRANCH  13  16
ENDBRANCH   4  12
BRANCH   5  24
HETATM   24  S1  UNL     1      26.769  15.899  60.041  1.00  0.00     0.283 S 
HETATM   25  O2  UNL     1      28.126  15.798  60.763  1.00  0.00    -0.199 OA
HETATM   26  O3  UNL     1      26.589  14.599  59.355  1.00  0.00    -0.199 OA
BRANCH  24  27
HETATM   27  N7  UNL     1      26.937  17.239  58.946  1.00  0.00    -0.229 N 
ATOM     28  H7  UNL     1      27.378  18.134  59.158  1.00  0.00     0.199 HD
BRANCH  27  29
HETATM   29  N8  UNL     1      26.368  16.881  57.739  1.00  0.00    -0.336 N 
ATOM     30  H82 UNL     1      26.084  15.937  57.481  1.00  0.00     0.177 HD
ATOM     31  H81 UNL     1      26.286  17.721  57.166  1.00  0.00     0.177 HD
ENDBRANCH  27  29
ENDBRANCH  24  27
ENDBRANCH   5  24
BRANCH   1  32
HETATM   32  N1  UNL     1      23.070  17.316  64.182  1.00  0.00    -0.234 N 
ATOM     33  H12 UNL     1      23.430  17.700  65.056  1.00  0.00     0.174 HD
ATOM     34  H11 UNL     1      22.074  17.186  64.004  1.00  0.00     0.174 HD
ENDBRANCH   1  32
TORSDOF 8
ENDMDL
MODEL 5
REMARK VINA RESULT: -6.693975261      1.751      1.983
REMARK  8 active torsions:
REMARK  status: ('A' for Active; 'I' for Inactive)
REMARK    1  A    between atoms: N1_1  and  C1_4 
REMARK    2  A    between atoms: C2_7  and  N3_8 
REMARK    3  A    between atoms: N4_10  and  N5_12 
REMARK    4  A    between atoms: N5_12  and  C3_13 
REMARK    5  A    between atoms: N5_12  and  C4_15 
REMARK    6  A    between atoms: C6_20  and  S1_21 
REMARK    7  A    between atoms: S1_21  and  N7_24 
REMARK    8  A    between atoms: N7_24  and  N8_26 
ROOT
HETATM    1  C1  UNL     1      23.928  14.457  61.525  1.00  0.00     0.679 A 
HETATM    2  N2  UNL     1      24.030  15.260  62.601  1.00  0.00    -0.174 N 
ATOM      3  H2  UNL     1      23.404  15.163  63.401  1.00  0.00     0.186 HD
HETATM    4  C2  UNL     1      24.993  16.194  62.571  1.00  0.00     0.164 A 
HETATM    5  C6  UNL     1      25.868  16.355  61.485  1.00  0.00     0.170 A 
HETATM    6  C7  UNL     1      25.722  15.511  60.416  1.00  0.00     0.142 A 
HETATM    7  N9  UNL     1      26.475  15.590  59.390  1.00  0.00    -0.384 N 
ATOM      8  H91 UNL     1      26.366  14.962  58.594  1.00  0.00     0.157 HD
ATOM      9  H92 UNL     1      27.211  16.296  59.352  1.00  0.00     0.157 HD
HETATM   10  N10 UNL     1      24.734  14.564  60.466  1.00  0.00    -0.176 N 
ATOM     11  H10 UNL     1      24.612  13.928  59.679  1.00  0.00     0.186 HD
ENDROOT
BRANCH   4  12
HETATM   12  N3  UNL     1      25.161  17.089  63.681  1.00  0.00    -0.269 N 
HETATM   13  N4  UNL     1      24.253  17.926  63.976  1.00  0.00    -0.235 N 
ATOM     14  H4  UNL     1      23.386  17.989  63.443  1.00  0.00     0.208 HD
ATOM     15  H3  UNL     1      26.016  17.053  64.236  1.00  0.00     0.190 HD
BRANCH  13  16
HETATM   16  N5  UNL     1      24.504  18.754  65.072  1.00  0.00    -0.220 N 
BRANCH  16  17
HETATM   17  C3  UNL     1      23.439  19.457  65.657  1.00  0.00     0.374 C 
HETATM   18  O1  UNL     1      22.477  19.828  64.960  1.00  0.00    -0.282 OA
ENDBRANCH  16  17
BRANCH  16  19
HETATM   19  C4  UNL     1      25.873  18.838  65.544  1.00  0.00     0.336 A 
HETATM   20  C5  UNL     1      26.216  19.634  66.738  1.00  0.00     0.291 A 
HETATM   21  N6  UNL     1      26.065  18.207  66.887  1.00  0.00    -0.047 N 
ATOM     22  H62 UNL     1      25.503  17.600  67.485  1.00  0.00     0.279 HD
ATOM     23  H61 UNL     1      26.650  17.455  67.252  1.00  0.00     0.279 HD
ENDBRANCH  16  19
ENDBRANCH  13  16
ENDBRANCH   4  12
BRANCH   5  24
HETATM   24  S1  UNL     1      27.065  17.601  61.579  1.00  0.00     0.283 S 
HETATM   25  O2  UNL     1      27.533  17.860  60.135  1.00  0.00    -0.199 OA
HETATM   26  O3  UNL     1      26.577  18.908  62.076  1.00  0.00    -0.199 OA
BRANCH  24  27
HETATM   27  N7  UNL     1      28.476  17.028  62.417  1.00  0.00    -0.229 N 
ATOM     28  H7  UNL     1      29.091  17.588  63.008  1.00  0.00     0.199 HD
BRANCH  27  29
HETATM   29  N8  UNL     1      28.621  15.682  62.144  1.00  0.00    -0.336 N 
ATOM     30  H82 UNL     1      28.694  15.276  61.211  1.00  0.00     0.177 HD
ATOM     31  H81 UNL     1      28.641  15.179  63.031  1.00  0.00     0.177 HD
ENDBRANCH  27  29
ENDBRANCH  24  27
ENDBRANCH   5  24
BRANCH   1  32
HETATM   32  N1  UNL     1      23.005  13.558  61.554  1.00  0.00    -0.234 N 
ATOM     33  H12 UNL     1      22.143  13.686  61.022  1.00  0.00     0.174 HD
ATOM     34  H11 UNL     1      23.183  12.732  62.125  1.00  0.00     0.174 HD
ENDBRANCH   1  32
TORSDOF 8
ENDMDL
