MODEL 1
REMARK VINA RESULT: -7.449830305      0.000      0.000
REMARK  7 active torsions:
REMARK  status: ('A' for Active; 'I' for Inactive)
REMARK    1  A    between atoms: C2_2  and  C3_3 
REMARK    2  A    between atoms: C4_6  and  N2_7 
REMARK    3  A    between atoms: N2_7  and  C5_9 
REMARK    4  A    between atoms: C5_9  and  C6_10 
REMARK    5  A    between atoms: C6_10  and  N3_11 
REMARK       I    between atoms: N3_11  and  C7_13 
REMARK       I    between atoms: C7_13  and  N5_17 
REMARK    6  A    between atoms: N5_17  and  N6_19 
REMARK    7  A    between atoms: C10_26  and  N8_27 
ROOT
HETATM    1  C3  UNL     1      26.585  17.278  61.228  1.00  0.00     0.118 A 
HETATM    2  N1  UNL     1      26.532  18.351  62.090  1.00  0.00    -0.328 N 
ATOM      3  H1  UNL     1      27.189  19.121  61.961  1.00  0.00     0.169 HD
HETATM    4  C4  UNL     1      25.650  18.418  63.087  1.00  0.00     0.106 A 
HETATM    5  C8  UNL     1      24.749  17.397  63.290  1.00  0.00     0.098 A 
HETATM    6  C9  UNL     1      24.794  16.319  62.432  1.00  0.00     0.136 A 
HETATM    7  N7  UNL     1      23.916  15.297  62.590  1.00  0.00    -0.176 N 
ATOM      8  H7  UNL     1      23.239  15.341  63.352  1.00  0.00     0.186 HD
HETATM    9  C10 UNL     1      23.908  14.229  61.776  1.00  0.00     0.681 A 
HETATM   10  N9  UNL     1      24.812  14.206  60.784  1.00  0.00    -0.141 N 
ATOM     11  H9  UNL     1      24.829  13.408  60.149  1.00  0.00     0.189 HD
HETATM   12  C11 UNL     1      25.711  15.222  60.600  1.00  0.00     0.348 A 
HETATM   13  O1  UNL     1      26.518  15.131  59.654  1.00  0.00    -0.245 OA
HETATM   14  N10 UNL     1      25.716  16.286  61.416  1.00  0.00    -0.233 N 
ENDROOT
BRANCH   4  15
HETATM   15  N2  UNL     1      25.596  19.429  63.902  1.00  0.00    -0.375 N 
ATOM     16  H2  UNL     1      24.752  20.002  63.919  1.00  0.00     0.161 HD
BRANCH  15  17
HETATM   17  C5  UNL     1      26.681  19.770  64.779  1.00  0.00     0.141 C 
BRANCH  17  18
HETATM   18  C6  UNL     1      26.986  21.250  64.743  1.00  0.00     0.157 C 
BRANCH  18  19
HETATM   19  N3  UNL     1      28.180  21.559  64.031  1.00  0.00    -0.224 N 
HETATM   20  C7  UNL     1      29.187  20.636  63.674  1.00  0.00     0.685 C 
HETATM   21  N4  UNL     1      30.044  20.285  64.564  1.00  0.00    -0.234 N 
HETATM   22  N5  UNL     1      29.287  20.081  62.374  1.00  0.00    -0.139 N 
ATOM     23  H42 UNL     1      29.971  20.684  65.500  1.00  0.00     0.174 HD
ATOM     24  H41 UNL     1      30.771  19.618  64.306  1.00  0.00     0.174 HD
ATOM     25  H5  UNL     1      28.629  20.384  61.656  1.00  0.00     0.205 HD
ATOM     26  H3  UNL     1      28.320  22.532  63.756  1.00  0.00     0.177 HD
BRANCH  22  27
HETATM   27  N6  UNL     1      30.246  19.146  62.049  1.00  0.00    -0.331 N 
ATOM     28  H62 UNL     1      30.631  18.576  62.801  1.00  0.00     0.177 HD
ATOM     29  H61 UNL     1      30.572  19.014  61.091  1.00  0.00     0.177 HD
ENDBRANCH  22  27
ENDBRANCH  18  19
ENDBRANCH  17  18
ENDBRANCH  15  17
ENDBRANCH   4  15
BRANCH   1  30
HETATM   30  C2  UNL     1      27.591  17.343  60.192  1.00  0.00     0.039 C 
HETATM   31  C1  UNL     1      27.663  18.447  59.412  1.00  0.00     0.015 C 
ENDBRANCH   1  30
BRANCH   9  32
HETATM   32  N8  UNL     1      23.081  13.250  61.912  1.00  0.00    -0.234 N 
ATOM     33  H82 UNL     1      22.487  12.975  61.130  1.00  0.00     0.174 HD
ATOM     34  H81 UNL     1      22.984  12.721  62.780  1.00  0.00     0.174 HD
ENDBRANCH   9  32
TORSDOF 7
ENDMDL
MODEL 2
REMARK VINA RESULT: -7.145403118      1.942      2.555
REMARK  7 active torsions:
REMARK  status: ('A' for Active; 'I' for Inactive)
REMARK    1  A    between atoms: C2_2  and  C3_3 
REMARK    2  A    between atoms: C4_6  and  N2_7 
REMARK    3  A    between atoms: N2_7  and  C5_9 
REMARK    4  A    between atoms: C5_9  and  C6_10 
REMARK    5  A    between atoms: C6_10  and  N3_11 
REMARK       I    between atoms: N3_11  and  C7_13 
REMARK       I    between atoms: C7_13  and  N5_17 
REMARK    6  A    between atoms: N5_17  and  N6_19 
REMARK    7  A    between atoms: C10_26  and  N8_27 
ROOT
HETATM    1  C3  UNL     1      27.452  16.239  61.859  1.00  0.00     0.118 A 
HETATM    2  N1  UNL     1      27.297  17.589  62.086  1.00  0.00    -0.328 N 
ATOM      3  H1  UNL     1      28.120  18.191  62.056  1.00  0.00     0.169 HD
HETATM    4  C4  UNL     1      26.109  18.134  62.345  1.00  0.00     0.106 A 
HETATM    5  C8  UNL     1      24.978  17.350  62.392  1.00  0.00     0.098 A 
HETATM    6  C9  UNL     1      25.123  15.998  62.165  1.00  0.00     0.136 A 
HETATM    7  N7  UNL     1      24.032  15.192  62.191  1.00  0.00    -0.176 N 
ATOM      8  H7  UNL     1      23.119  15.603  62.390  1.00  0.00     0.186 HD
HETATM    9  C10 UNL     1      24.113  13.871  61.965  1.00  0.00     0.681 A 
HETATM   10  N9  UNL     1      25.330  13.366  61.706  1.00  0.00    -0.141 N 
ATOM     11  H9  UNL     1      25.423  12.366  61.529  1.00  0.00     0.189 HD
HETATM   12  C11 UNL     1      26.449  14.155  61.673  1.00  0.00     0.348 A 
HETATM   13  O1  UNL     1      27.544  13.614  61.423  1.00  0.00    -0.245 OA
HETATM   14  N10 UNL     1      26.362  15.473  61.901  1.00  0.00    -0.233 N 
ENDROOT
BRANCH   4  15
HETATM   15  N2  UNL     1      25.959  19.407  62.560  1.00  0.00    -0.375 N 
ATOM     16  H2  UNL     1      25.501  19.976  61.847  1.00  0.00     0.161 HD
BRANCH  15  17
HETATM   17  C5  UNL     1      26.413  20.043  63.764  1.00  0.00     0.141 C 
BRANCH  17  18
HETATM   18  C6  UNL     1      25.299  20.797  64.454  1.00  0.00     0.157 C 
BRANCH  18  19
HETATM   19  N3  UNL     1      25.673  22.114  64.848  1.00  0.00    -0.224 N 
HETATM   20  C7  UNL     1      26.721  22.439  65.735  1.00  0.00     0.685 C 
HETATM   21  N4  UNL     1      26.514  22.334  66.999  1.00  0.00    -0.234 N 
HETATM   22  N5  UNL     1      27.992  22.877  65.287  1.00  0.00    -0.139 N 
ATOM     23  H42 UNL     1      25.599  22.018  67.321  1.00  0.00     0.174 HD
ATOM     24  H41 UNL     1      27.271  22.569  67.639  1.00  0.00     0.174 HD
ATOM     25  H5  UNL     1      28.148  22.995  64.286  1.00  0.00     0.205 HD
ATOM     26  H3  UNL     1      25.136  22.887  64.456  1.00  0.00     0.177 HD
BRANCH  22  27
HETATM   27  N6  UNL     1      29.023  23.149  66.160  1.00  0.00    -0.331 N 
ATOM     28  H62 UNL     1      29.881  23.544  65.776  1.00  0.00     0.177 HD
ATOM     29  H61 UNL     1      28.950  22.967  67.161  1.00  0.00     0.177 HD
ENDBRANCH  22  27
ENDBRANCH  18  19
ENDBRANCH  17  18
ENDBRANCH  15  17
ENDBRANCH   4  15
BRANCH   1  30
HETATM   30  C2  UNL     1      28.799  15.789  61.588  1.00  0.00     0.039 C 
HETATM   31  C1  UNL     1      29.825  16.320  62.294  1.00  0.00     0.015 C 
ENDBRANCH   1  30
BRANCH   9  32
HETATM   32  N8  UNL     1      23.087  13.091  61.986  1.00  0.00    -0.234 N 
ATOM     33  H82 UNL     1      22.209  13.420  62.386  1.00  0.00     0.174 HD
ATOM     34  H81 UNL     1      23.105  12.140  61.617  1.00  0.00     0.174 HD
ENDBRANCH   9  32
TORSDOF 7
ENDMDL
MODEL 3
REMARK VINA RESULT: -7.142747026      2.644      7.297
REMARK  7 active torsions:
REMARK  status: ('A' for Active; 'I' for Inactive)
REMARK    1  A    between atoms: C2_2  and  C3_3 
REMARK    2  A    between atoms: C4_6  and  N2_7 
REMARK    3  A    between atoms: N2_7  and  C5_9 
REMARK    4  A    between atoms: C5_9  and  C6_10 
REMARK    5  A    between atoms: C6_10  and  N3_11 
REMARK       I    between atoms: N3_11  and  C7_13 
REMARK       I    between atoms: C7_13  and  N5_17 
REMARK    6  A    between atoms: N5_17  and  N6_19 
REMARK    7  A    between atoms: C10_26  and  N8_27 
ROOT
HETATM    1  C3  UNL     1      25.295  19.838  64.455  1.00  0.00     0.118 A 
HETATM    2  N1  UNL     1      25.526  19.097  63.317  1.00  0.00    -0.328 N 
ATOM      3  H1  UNL     1      24.798  18.462  62.987  1.00  0.00     0.169 HD
HETATM    4  C4  UNL     1      26.667  19.180  62.634  1.00  0.00     0.106 A 
HETATM    5  C8  UNL     1      27.669  20.027  63.052  1.00  0.00     0.098 A 
HETATM    6  C9  UNL     1      27.448  20.773  64.189  1.00  0.00     0.136 A 
HETATM    7  N7  UNL     1      28.405  21.628  64.629  1.00  0.00    -0.176 N 
ATOM      8  H7  UNL     1      29.282  21.696  64.111  1.00  0.00     0.186 HD
HETATM    9  C10 UNL     1      28.237  22.389  65.723  1.00  0.00     0.681 A 
HETATM   10  N9  UNL     1      27.072  22.273  66.378  1.00  0.00    -0.141 N 
ATOM     11  H9  UNL     1      26.915  22.839  67.212  1.00  0.00     0.189 HD
HETATM   12  C11 UNL     1      26.086  21.419  65.959  1.00  0.00     0.348 A 
HETATM   13  O1  UNL     1      25.029  21.370  66.617  1.00  0.00    -0.245 OA
HETATM   14  N10 UNL     1      26.260  20.661  64.866  1.00  0.00    -0.233 N 
ENDROOT
BRANCH   4  15
HETATM   15  N2  UNL     1      26.888  18.482  61.560  1.00  0.00    -0.375 N 
ATOM     16  H2  UNL     1      27.386  18.919  60.784  1.00  0.00     0.161 HD
BRANCH  15  17
HETATM   17  C5  UNL     1      26.457  17.119  61.425  1.00  0.00     0.141 C 
BRANCH  17  18
HETATM   18  C6  UNL     1      27.039  16.467  60.192  1.00  0.00     0.157 C 
BRANCH  18  19
HETATM   19  N3  UNL     1      26.278  15.354  59.734  1.00  0.00    -0.224 N 
HETATM   20  C7  UNL     1      25.564  14.453  60.553  1.00  0.00     0.685 C 
HETATM   21  N4  UNL     1      26.210  13.514  61.145  1.00  0.00    -0.234 N 
HETATM   22  N5  UNL     1      24.164  14.545  60.748  1.00  0.00    -0.139 N 
ATOM     23  H42 UNL     1      27.219  13.449  61.005  1.00  0.00     0.174 HD
ATOM     24  H41 UNL     1      25.694  12.864  61.737  1.00  0.00     0.174 HD
ATOM     25  H5  UNL     1      23.643  15.268  60.252  1.00  0.00     0.205 HD
ATOM     26  H3  UNL     1      26.247  15.194  58.727  1.00  0.00     0.177 HD
BRANCH  22  27
HETATM   27  N6  UNL     1      23.483  13.689  61.586  1.00  0.00    -0.331 N 
ATOM     28  H62 UNL     1      23.138  14.061  62.471  1.00  0.00     0.177 HD
ATOM     29  H61 UNL     1      23.319  12.711  61.347  1.00  0.00     0.177 HD
ENDBRANCH  22  27
ENDBRANCH  18  19
ENDBRANCH  17  18
ENDBRANCH  15  17
ENDBRANCH   4  15
BRANCH   1  30
HETATM   30  C2  UNL     1      24.011  19.648  65.091  1.00  0.00     0.039 C 
HETATM   31  C1  UNL     1      23.610  18.393  65.402  1.00  0.00     0.015 C 
ENDBRANCH   1  30
BRANCH   9  32
HETATM   32  N8  UNL     1      29.137  23.205  66.154  1.00  0.00    -0.234 N 
ATOM     33  H82 UNL     1      29.743  22.930  66.927  1.00  0.00     0.174 HD
ATOM     34  H81 UNL     1      29.280  24.134  65.756  1.00  0.00     0.174 HD
ENDBRANCH   9  32
TORSDOF 7
ENDMDL
MODEL 4
REMARK VINA RESULT: -7.111219557      2.388      6.760
REMARK  7 active torsions:
REMARK  status: ('A' for Active; 'I' for Inactive)
REMARK    1  A    between atoms: C2_2  and  C3_3 
REMARK    2  A    between atoms: C4_6  and  N2_7 
REMARK    3  A    between atoms: N2_7  and  C5_9 
REMARK    4  A    between atoms: C5_9  and  C6_10 
REMARK    5  A    between atoms: C6_10  and  N3_11 
REMARK       I    between atoms: N3_11  and  C7_13 
REMARK       I    between atoms: C7_13  and  N5_17 
REMARK    6  A    between atoms: N5_17  and  N6_19 
REMARK    7  A    between atoms: C10_26  and  N8_27 
ROOT
HETATM    1  C3  UNL     1      28.885  19.145  62.767  1.00  0.00     0.118 A 
HETATM    2  N1  UNL     1      28.168  18.197  62.071  1.00  0.00    -0.328 N 
ATOM      3  H1  UNL     1      28.673  17.484  61.545  1.00  0.00     0.169 HD
HETATM    4  C4  UNL     1      26.835  18.180  62.063  1.00  0.00     0.106 A 
HETATM    5  C8  UNL     1      26.121  19.128  62.762  1.00  0.00     0.098 A 
HETATM    6  C9  UNL     1      26.831  20.080  63.461  1.00  0.00     0.136 A 
HETATM    7  N7  UNL     1      26.166  21.025  64.173  1.00  0.00    -0.176 N 
ATOM      8  H7  UNL     1      25.146  21.019  64.169  1.00  0.00     0.186 HD
HETATM    9  C10 UNL     1      26.807  21.969  64.882  1.00  0.00     0.681 A 
HETATM   10  N9  UNL     1      28.148  21.945  64.864  1.00  0.00    -0.141 N 
ATOM     11  H9  UNL     1      28.663  22.649  65.394  1.00  0.00     0.189 HD
HETATM   12  C11 UNL     1      28.847  21.004  64.155  1.00  0.00     0.348 A 
HETATM   13  O1  UNL     1      30.093  21.045  64.189  1.00  0.00    -0.245 OA
HETATM   14  N10 UNL     1      28.202  20.065  63.447  1.00  0.00    -0.233 N 
ENDROOT
BRANCH   4  15
HETATM   15  N2  UNL     1      26.154  17.287  61.408  1.00  0.00    -0.375 N 
ATOM     16  H2  UNL     1      25.377  16.821  61.876  1.00  0.00     0.161 HD
BRANCH  15  17
HETATM   17  C5  UNL     1      26.456  16.932  60.050  1.00  0.00     0.141 C 
BRANCH  17  18
HETATM   18  C6  UNL     1      27.201  15.619  59.967  1.00  0.00     0.157 C 
BRANCH  18  19
HETATM   19  N3  UNL     1      26.350  14.506  59.712  1.00  0.00    -0.224 N 
HETATM   20  C7  UNL     1      25.420  13.958  60.621  1.00  0.00     0.685 C 
HETATM   21  N4  UNL     1      25.849  13.167  61.538  1.00  0.00    -0.234 N 
HETATM   22  N5  UNL     1      24.034  14.246  60.562  1.00  0.00    -0.139 N 
ATOM     23  H42 UNL     1      26.847  12.960  61.581  1.00  0.00     0.174 HD
ATOM     24  H41 UNL     1      25.177  12.770  62.195  1.00  0.00     0.174 HD
ATOM     25  H5  UNL     1      23.686  14.846  59.814  1.00  0.00     0.205 HD
ATOM     26  H3  UNL     1      26.419  14.068  58.793  1.00  0.00     0.177 HD
BRANCH  22  27
HETATM   27  N6  UNL     1      23.141  13.741  61.482  1.00  0.00    -0.331 N 
ATOM     28  H62 UNL     1      22.589  12.926  61.215  1.00  0.00     0.177 HD
ATOM     29  H61 UNL     1      23.021  14.157  62.406  1.00  0.00     0.177 HD
ENDBRANCH  22  27
ENDBRANCH  18  19
ENDBRANCH  17  18
ENDBRANCH  15  17
ENDBRANCH   4  15
BRANCH   1  30
HETATM   30  C2  UNL     1      30.325  19.039  62.688  1.00  0.00     0.039 C 
HETATM   31  C1  UNL     1      30.878  17.869  62.290  1.00  0.00     0.015 C 
ENDBRANCH   1  30
BRANCH   9  32
HETATM   32  N8  UNL     1      26.191  22.873  65.563  1.00  0.00    -0.234 N 
ATOM     33  H82 UNL     1      25.868  23.723  65.102  1.00  0.00     0.174 HD
ATOM     34  H81 UNL     1      26.004  22.784  66.562  1.00  0.00     0.174 HD
ENDBRANCH   9  32
TORSDOF 7
ENDMDL
MODEL 5
REMARK VINA RESULT: -7.099611633      1.268      1.409
REMARK  7 active torsions:
REMARK  status: ('A' for Active; 'I' for Inactive)
REMARK    1  A    between atoms: C2_2  and  C3_3 
REMARK    2  A    between atoms: C4_6  and  N2_7 
REMARK    3  A    between atoms: N2_7  and  C5_9 
REMARK    4  A    between atoms: C5_9  and  C6_10 
REMARK    5  A    between atoms: C6_10  and  N3_11 
REMARK       I    between atoms: N3_11  and  C7_13 
REMARK       I    between atoms: C7_13  and  N5_17 
REMARK    6  A    between atoms: N5_17  and  N6_19 
REMARK    7  A    between atoms: C10_26  and  N8_27 
ROOT
HETATM    1  C3  UNL     1      27.306  16.369  62.264  1.00  0.00     0.118 A 
HETATM    2  N1  UNL     1      27.137  17.650  62.742  1.00  0.00    -0.328 N 
ATOM      3  H1  UNL     1      27.948  18.265  62.802  1.00  0.00     0.169 HD
HETATM    4  C4  UNL     1      25.948  18.111  63.129  1.00  0.00     0.106 A 
HETATM    5  C8  UNL     1      24.832  17.307  63.062  1.00  0.00     0.098 A 
HETATM    6  C9  UNL     1      24.992  16.025  62.584  1.00  0.00     0.136 A 
HETATM    7  N7  UNL     1      23.916  15.203  62.490  1.00  0.00    -0.176 N 
ATOM      8  H7  UNL     1      23.004  15.550  62.786  1.00  0.00     0.186 HD
HETATM    9  C10 UNL     1      24.013  13.949  62.020  1.00  0.00     0.681 A 
HETATM   10  N9  UNL     1      25.229  13.528  61.640  1.00  0.00    -0.141 N 
ATOM     11  H9  UNL     1      25.333  12.579  61.278  1.00  0.00     0.189 HD
HETATM   12  C11 UNL     1      26.333  14.333  61.723  1.00  0.00     0.348 A 
HETATM   13  O1  UNL     1      27.429  13.872  61.347  1.00  0.00    -0.245 OA
HETATM   14  N10 UNL     1      26.231  15.584  62.194  1.00  0.00    -0.233 N 
ENDROOT
BRANCH   4  15
HETATM   15  N2  UNL     1      25.784  19.319  63.581  1.00  0.00    -0.375 N 
ATOM     16  H2  UNL     1      25.245  19.983  63.024  1.00  0.00     0.161 HD
BRANCH  15  17
HETATM   17  C5  UNL     1      26.332  19.754  64.835  1.00  0.00     0.141 C 
BRANCH  17  18
HETATM   18  C6  UNL     1      26.465  21.259  64.896  1.00  0.00     0.157 C 
BRANCH  18  19
HETATM   19  N3  UNL     1      27.672  21.739  64.312  1.00  0.00    -0.224 N 
HETATM   20  C7  UNL     1      28.794  20.951  63.978  1.00  0.00     0.685 C 
HETATM   21  N4  UNL     1      29.612  20.618  64.912  1.00  0.00    -0.234 N 
HETATM   22  N5  UNL     1      29.053  20.514  62.656  1.00  0.00    -0.139 N 
ATOM     23  H42 UNL     1      29.425  20.933  65.864  1.00  0.00     0.174 HD
ATOM     24  H41 UNL     1      30.423  20.049  64.670  1.00  0.00     0.174 HD
ATOM     25  H5  UNL     1      28.425  20.805  61.908  1.00  0.00     0.205 HD
ATOM     26  H3  UNL     1      27.730  22.740  64.119  1.00  0.00     0.177 HD
BRANCH  22  27
HETATM   27  N6  UNL     1      30.127  19.706  62.349  1.00  0.00    -0.331 N 
ATOM     28  H62 UNL     1      31.047  19.984  62.691  1.00  0.00     0.177 HD
ATOM     29  H61 UNL     1      30.025  18.854  61.797  1.00  0.00     0.177 HD
ENDBRANCH  22  27
ENDBRANCH  18  19
ENDBRANCH  17  18
ENDBRANCH  15  17
ENDBRANCH   4  15
BRANCH   1  30
HETATM   30  C2  UNL     1      28.652  16.006  61.879  1.00  0.00     0.039 C 
HETATM   31  C1  UNL     1      29.651  16.127  62.783  1.00  0.00     0.015 C 
ENDBRANCH   1  30
BRANCH   9  32
HETATM   32  N8  UNL     1      23.001  13.156  61.925  1.00  0.00    -0.234 N 
ATOM     33  H82 UNL     1      22.614  12.935  61.007  1.00  0.00     0.174 HD
ATOM     34  H81 UNL     1      22.554  12.726  62.735  1.00  0.00     0.174 HD
ENDBRANCH   9  32
TORSDOF 7
ENDMDL
