MODEL 1
REMARK VINA RESULT: -7.913450659      0.000      0.000
REMARK  6 active torsions:
REMARK  status: ('A' for Active; 'I' for Inactive)
REMARK    1  A    between atoms: C1_2  and  C2_4 
REMARK    2  A    between atoms: C3_5  and  N2_6 
REMARK    3  A    between atoms: N2_6  and  N3_8 
REMARK    4  A    between atoms: N3_8  and  C4_10 
REMARK    5  A    between atoms: C6_12  and  C7_13 
REMARK    6  A    between atoms: C12_25  and  N7_26 
ROOT
HETATM    1  N3  UNL     1      26.299  18.296  61.602  1.00  0.00    -0.300 N 
ATOM      2  H3  UNL     1      25.465  18.822  61.861  1.00  0.00     0.187 HD
ENDROOT
BRANCH   1   3
HETATM    3  N2  UNL     1      26.217  17.217  60.743  1.00  0.00    -0.300 N 
ATOM      4  H2  UNL     1      26.722  17.269  59.858  1.00  0.00     0.186 HD
BRANCH   3   5
HETATM    5  C3  UNL     1      25.468  16.032  61.020  1.00  0.00     0.089 C 
HETATM    6  C2  UNL     1      26.026  14.852  61.205  1.00  0.00     0.120 C 
HETATM    7  N8  UNL     1      25.017  13.852  61.476  1.00  0.00    -0.382 N 
HETATM    8  C13 UNL     1      23.879  14.626  62.002  1.00  0.00     0.159 C 
ATOM      9  H8  UNL     1      25.079  12.844  61.335  1.00  0.00     0.160 HD
HETATM   10  C12 UNL     1      24.012  15.861  61.144  1.00  0.00     0.254 C 
BRANCH   6  11
HETATM   11  C1  UNL     1      27.459  14.529  61.167  1.00  0.00     0.283 C 
HETATM   12  N1  UNL     1      28.270  14.601  62.335  1.00  0.00    -0.056 NA
HETATM   13  O1  UNL     1      27.929  14.188  60.052  1.00  0.00    -0.269 OA
ENDBRANCH   6  11
BRANCH  10  14
HETATM   14  N7  UNL     1      23.366  17.007  61.748  1.00  0.00    -0.068 N 
ATOM     15  H73 UNL     1      23.386  16.945  62.766  1.00  0.00     0.275 HD
ATOM     16  H72 UNL     1      23.925  17.850  61.624  1.00  0.00     0.275 HD
ATOM     17  H71 UNL     1      22.414  17.144  61.409  1.00  0.00     0.275 HD
ENDBRANCH  10  14
ENDBRANCH   3   5
ENDBRANCH   1   3
BRANCH   1  18
HETATM   18  C4  UNL     1      27.584  18.660  62.122  1.00  0.00     0.055 A 
HETATM   19  C5  UNL     1      27.708  19.647  63.096  1.00  0.00     0.064 A 
HETATM   20  C6  UNL     1      28.943  19.962  63.562  1.00  0.00     0.081 A 
HETATM   21  N6  UNL     1      30.043  19.326  63.090  1.00  0.00    -0.320 N 
HETATM   22  C10 UNL     1      29.988  18.369  62.153  1.00  0.00     0.248 A 
ATOM     23  H6  UNL     1      30.955  19.588  63.464  1.00  0.00     0.169 HD
HETATM   24  O2  UNL     1      31.010  17.781  61.715  1.00  0.00    -0.268 OA
HETATM   25  C11 UNL     1      28.734  18.043  61.674  1.00  0.00     0.105 A 
BRANCH  20  26
HETATM   26  C7  UNL     1      29.114  21.006  64.599  1.00  0.00     0.124 C 
HETATM   27  N4  UNL     1      30.073  21.041  65.433  1.00  0.00    -0.373 N 
HETATM   28  C8  UNL     1      29.959  22.200  66.330  1.00  0.00     0.141 C 
ATOM     29  H4  UNL     1      30.825  20.354  65.476  1.00  0.00     0.161 HD
HETATM   30  C9  UNL     1      28.500  22.609  66.160  1.00  0.00     0.141 C 
HETATM   31  N5  UNL     1      28.250  22.117  64.824  1.00  0.00    -0.373 N 
ATOM     32  H5  UNL     1      27.575  22.496  64.160  1.00  0.00     0.161 HD
ENDBRANCH  20  26
ENDBRANCH   1  18
TORSDOF 6
ENDMDL
MODEL 2
REMARK VINA RESULT: -7.628402854      3.335      3.954
REMARK  6 active torsions:
REMARK  status: ('A' for Active; 'I' for Inactive)
REMARK    1  A    between atoms: C1_2  and  C2_4 
REMARK    2  A    between atoms: C3_5  and  N2_6 
REMARK    3  A    between atoms: N2_6  and  N3_8 
REMARK    4  A    between atoms: N3_8  and  C4_10 
REMARK    5  A    between atoms: C6_12  and  C7_13 
REMARK    6  A    between atoms: C12_25  and  N7_26 
ROOT
HETATM    1  N3  UNL     1      26.918  17.608  62.690  1.00  0.00    -0.300 N 
ATOM      2  H3  UNL     1      27.681  16.975  62.927  1.00  0.00     0.187 HD
ENDROOT
BRANCH   1   3
HETATM    3  N2  UNL     1      26.234  17.476  61.496  1.00  0.00    -0.300 N 
ATOM      4  H2  UNL     1      26.305  18.233  60.816  1.00  0.00     0.186 HD
BRANCH   3   5
HETATM    5  C3  UNL     1      25.435  16.341  61.157  1.00  0.00     0.089 C 
HETATM    6  C2  UNL     1      25.944  15.195  60.748  1.00  0.00     0.120 C 
HETATM    7  N8  UNL     1      24.893  14.237  60.491  1.00  0.00    -0.382 N 
HETATM    8  C13 UNL     1      23.769  14.709  61.319  1.00  0.00     0.159 C 
ATOM      9  H8  UNL     1      24.922  13.422  59.878  1.00  0.00     0.160 HD
HETATM   10  C12 UNL     1      23.971  16.197  61.172  1.00  0.00     0.254 C 
BRANCH   6  11
HETATM   11  C1  UNL     1      27.366  14.866  60.567  1.00  0.00     0.283 C 
HETATM   12  N1  UNL     1      28.363  15.366  61.451  1.00  0.00    -0.056 NA
HETATM   13  O1  UNL     1      27.652  14.125  59.594  1.00  0.00    -0.269 OA
ENDBRANCH   6  11
BRANCH  10  14
HETATM   14  N7  UNL     1      23.350  16.933  62.253  1.00  0.00    -0.068 N 
ATOM     15  H73 UNL     1      24.009  17.090  63.015  1.00  0.00     0.275 HD
ATOM     16  H72 UNL     1      23.176  17.902  61.984  1.00  0.00     0.275 HD
ATOM     17  H71 UNL     1      22.497  16.488  62.591  1.00  0.00     0.275 HD
ENDBRANCH  10  14
ENDBRANCH   3   5
ENDBRANCH   1   3
BRANCH   1  18
HETATM   18  C4  UNL     1      26.530  18.656  63.586  1.00  0.00     0.055 A 
HETATM   19  C5  UNL     1      25.603  18.425  64.598  1.00  0.00     0.064 A 
HETATM   20  C6  UNL     1      25.262  19.445  65.427  1.00  0.00     0.081 A 
HETATM   21  N6  UNL     1      25.815  20.673  65.275  1.00  0.00    -0.320 N 
HETATM   22  C10 UNL     1      26.712  20.957  64.320  1.00  0.00     0.248 A 
ATOM     23  H6  UNL     1      25.537  21.416  65.916  1.00  0.00     0.169 HD
HETATM   24  O2  UNL     1      27.224  22.098  64.180  1.00  0.00    -0.268 OA
HETATM   25  C11 UNL     1      27.064  19.924  63.473  1.00  0.00     0.105 A 
BRANCH  20  26
HETATM   26  C7  UNL     1      24.280  19.237  66.515  1.00  0.00     0.124 C 
HETATM   27  N4  UNL     1      23.850  20.155  67.283  1.00  0.00    -0.373 N 
HETATM   28  C8  UNL     1      22.886  19.629  68.259  1.00  0.00     0.141 C 
ATOM     29  H4  UNL     1      24.138  21.132  67.229  1.00  0.00     0.161 HD
HETATM   30  C9  UNL     1      23.156  18.128  68.216  1.00  0.00     0.141 C 
HETATM   31  N5  UNL     1      23.669  17.999  66.871  1.00  0.00    -0.373 N 
ATOM     32  H5  UNL     1      23.606  17.169  66.281  1.00  0.00     0.161 HD
ENDBRANCH  20  26
ENDBRANCH   1  18
TORSDOF 6
ENDMDL
MODEL 3
REMARK VINA RESULT: -7.545810837      2.194      2.674
REMARK  6 active torsions:
REMARK  status: ('A' for Active; 'I' for Inactive)
REMARK    1  A    between atoms: C1_2  and  C2_4 
REMARK    2  A    between atoms: C3_5  and  N2_6 
REMARK    3  A    between atoms: N2_6  and  N3_8 
REMARK    4  A    between atoms: N3_8  and  C4_10 
REMARK    5  A    between atoms: C6_12  and  C7_13 
REMARK    6  A    between atoms: C12_25  and  N7_26 
ROOT
HETATM    1  N3  UNL     1      26.114  18.545  61.943  1.00  0.00    -0.300 N 
ATOM      2  H3  UNL     1      25.554  18.925  61.180  1.00  0.00     0.187 HD
ENDROOT
BRANCH   1   3
HETATM    3  N2  UNL     1      26.345  17.186  62.041  1.00  0.00    -0.300 N 
ATOM      4  H2  UNL     1      27.157  16.875  62.574  1.00  0.00     0.186 HD
BRANCH   3   5
HETATM    5  C3  UNL     1      25.515  16.190  61.439  1.00  0.00     0.089 C 
HETATM    6  C2  UNL     1      25.978  15.044  60.981  1.00  0.00     0.120 C 
HETATM    7  N8  UNL     1      24.903  14.243  60.441  1.00  0.00    -0.382 N 
HETATM    8  C13 UNL     1      23.702  14.748  61.128  1.00  0.00     0.159 C 
ATOM      9  H8  UNL     1      24.962  13.499  59.746  1.00  0.00     0.160 HD
HETATM   10  C12 UNL     1      24.064  16.212  61.199  1.00  0.00     0.254 C 
BRANCH   6  11
HETATM   11  C1  UNL     1      27.373  14.579  60.994  1.00  0.00     0.283 C 
HETATM   12  N1  UNL     1      28.152  14.596  62.185  1.00  0.00    -0.056 NA
HETATM   13  O1  UNL     1      27.838  14.167  59.901  1.00  0.00    -0.269 OA
ENDBRANCH   6  11
BRANCH  10  14
HETATM   14  N7  UNL     1      23.336  16.895  62.247  1.00  0.00    -0.068 N 
ATOM     15  H73 UNL     1      23.218  16.294  63.063  1.00  0.00     0.275 HD
ATOM     16  H72 UNL     1      23.902  17.632  62.666  1.00  0.00     0.275 HD
ATOM     17  H71 UNL     1      22.438  17.259  61.928  1.00  0.00     0.275 HD
ENDBRANCH  10  14
ENDBRANCH   3   5
ENDBRANCH   1   3
BRANCH   1  18
HETATM   18  C4  UNL     1      26.677  19.408  62.939  1.00  0.00     0.055 A 
HETATM   19  C5  UNL     1      25.924  19.824  64.033  1.00  0.00     0.064 A 
HETATM   20  C6  UNL     1      26.495  20.642  64.954  1.00  0.00     0.081 A 
HETATM   21  N6  UNL     1      27.780  21.049  64.814  1.00  0.00    -0.320 N 
HETATM   22  C10 UNL     1      28.555  20.683  63.783  1.00  0.00     0.248 A 
ATOM     23  H6  UNL     1      28.177  21.662  65.526  1.00  0.00     0.169 HD
HETATM   24  O2  UNL     1      29.747  21.063  63.655  1.00  0.00    -0.268 OA
HETATM   25  C11 UNL     1      27.980  19.851  62.842  1.00  0.00     0.105 A 
BRANCH  20  26
HETATM   26  C7  UNL     1      25.725  21.105  66.131  1.00  0.00     0.124 C 
HETATM   27  N4  UNL     1      26.022  22.126  66.829  1.00  0.00    -0.373 N 
HETATM   28  C8  UNL     1      25.065  22.319  67.927  1.00  0.00     0.141 C 
ATOM     29  H4  UNL     1      26.821  22.734  66.649  1.00  0.00     0.161 HD
HETATM   30  C9  UNL     1      24.389  20.955  68.022  1.00  0.00     0.141 C 
HETATM   31  N5  UNL     1      24.553  20.493  66.662  1.00  0.00    -0.373 N 
ATOM     32  H5  UNL     1      23.938  19.844  66.170  1.00  0.00     0.161 HD
ENDBRANCH  20  26
ENDBRANCH   1  18
TORSDOF 6
ENDMDL
MODEL 4
REMARK VINA RESULT: -7.525797310      2.160      2.665
REMARK  6 active torsions:
REMARK  status: ('A' for Active; 'I' for Inactive)
REMARK    1  A    between atoms: C1_2  and  C2_4 
REMARK    2  A    between atoms: C3_5  and  N2_6 
REMARK    3  A    between atoms: N2_6  and  N3_8 
REMARK    4  A    between atoms: N3_8  and  C4_10 
REMARK    5  A    between atoms: C6_12  and  C7_13 
REMARK    6  A    between atoms: C12_25  and  N7_26 
ROOT
HETATM    1  N3  UNL     1      26.941  18.730  61.224  1.00  0.00    -0.300 N 
ATOM      2  H3  UNL     1      26.926  18.764  60.205  1.00  0.00     0.187 HD
ENDROOT
BRANCH   1   3
HETATM    3  N2  UNL     1      25.779  18.528  61.943  1.00  0.00    -0.300 N 
ATOM      4  H2  UNL     1      25.348  19.334  62.395  1.00  0.00     0.186 HD
BRANCH   3   5
HETATM    5  C3  UNL     1      25.143  17.256  62.090  1.00  0.00     0.089 C 
HETATM    6  C2  UNL     1      24.360  16.953  63.106  1.00  0.00     0.120 C 
HETATM    7  N8  UNL     1      23.858  15.604  62.974  1.00  0.00    -0.382 N 
HETATM    8  C13 UNL     1      23.938  15.333  61.529  1.00  0.00     0.159 C 
ATOM      9  H8  UNL     1      23.525  14.983  63.712  1.00  0.00     0.160 HD
HETATM   10  C12 UNL     1      25.215  16.074  61.216  1.00  0.00     0.254 C 
BRANCH   6  11
HETATM   11  C1  UNL     1      23.997  17.817  64.239  1.00  0.00     0.283 C 
HETATM   12  N1  UNL     1      24.987  18.362  65.106  1.00  0.00    -0.056 NA
HETATM   13  O1  UNL     1      22.772  18.048  64.401  1.00  0.00    -0.269 OA
ENDBRANCH   6  11
BRANCH  10  14
HETATM   14  N7  UNL     1      25.305  16.423  59.814  1.00  0.00    -0.068 N 
ATOM     15  H73 UNL     1      24.850  15.720  59.232  1.00  0.00     0.275 HD
ATOM     16  H72 UNL     1      24.711  17.224  59.597  1.00  0.00     0.275 HD
ATOM     17  H71 UNL     1      26.265  16.585  59.511  1.00  0.00     0.275 HD
ENDBRANCH  10  14
ENDBRANCH   3   5
ENDBRANCH   1   3
BRANCH   1  18
HETATM   18  C4  UNL     1      28.170  18.891  61.943  1.00  0.00     0.055 A 
HETATM   19  C5  UNL     1      28.278  19.819  62.975  1.00  0.00     0.064 A 
HETATM   20  C6  UNL     1      29.460  19.942  63.631  1.00  0.00     0.081 A 
HETATM   21  N6  UNL     1      30.523  19.173  63.290  1.00  0.00    -0.320 N 
HETATM   22  C10 UNL     1      30.481  18.264  62.307  1.00  0.00     0.248 A 
ATOM     23  H6  UNL     1      31.395  19.291  63.806  1.00  0.00     0.169 HD
HETATM   24  O2  UNL     1      31.468  17.551  61.991  1.00  0.00    -0.268 OA
HETATM   25  C11 UNL     1      29.281  18.134  61.634  1.00  0.00     0.105 A 
BRANCH  20  26
HETATM   26  C7  UNL     1      29.612  20.917  64.735  1.00  0.00     0.124 C 
HETATM   27  N4  UNL     1      30.575  20.919  65.567  1.00  0.00    -0.373 N 
HETATM   28  C8  UNL     1      30.438  22.012  66.540  1.00  0.00     0.141 C 
ATOM     29  H4  UNL     1      31.343  20.248  65.560  1.00  0.00     0.161 HD
HETATM   30  C9  UNL     1      28.969  22.397  66.403  1.00  0.00     0.141 C 
HETATM   31  N5  UNL     1      28.724  21.990  65.038  1.00  0.00    -0.373 N 
ATOM     32  H5  UNL     1      28.036  22.397  64.403  1.00  0.00     0.161 HD
ENDBRANCH  20  26
ENDBRANCH   1  18
TORSDOF 6
ENDMDL
MODEL 5
REMARK VINA RESULT: -7.525255805      2.258      6.967
REMARK  6 active torsions:
REMARK  status: ('A' for Active; 'I' for Inactive)
REMARK    1  A    between atoms: C1_2  and  C2_4 
REMARK    2  A    between atoms: C3_5  and  N2_6 
REMARK    3  A    between atoms: N2_6  and  N3_8 
REMARK    4  A    between atoms: N3_8  and  C4_10 
REMARK    5  A    between atoms: C6_12  and  C7_13 
REMARK    6  A    between atoms: C12_25  and  N7_26 
ROOT
HETATM    1  N3  UNL     1      28.256  19.268  61.588  1.00  0.00    -0.300 N 
ATOM      2  H3  UNL     1      27.768  20.081  61.964  1.00  0.00     0.187 HD
ENDROOT
BRANCH   1   3
HETATM    3  N2  UNL     1      29.589  19.048  61.879  1.00  0.00    -0.300 N 
ATOM      4  H2  UNL     1      30.276  19.229  61.148  1.00  0.00     0.186 HD
BRANCH   3   5
HETATM    5  C3  UNL     1      30.062  18.580  63.144  1.00  0.00     0.089 C 
HETATM    6  C2  UNL     1      30.163  19.353  64.208  1.00  0.00     0.120 C 
HETATM    7  N8  UNL     1      30.660  18.599  65.336  1.00  0.00    -0.382 N 
HETATM    8  C13 UNL     1      30.305  17.205  65.019  1.00  0.00     0.159 C 
ATOM      9  H8  UNL     1      31.145  18.950  66.162  1.00  0.00     0.160 HD
HETATM   10  C12 UNL     1      30.523  17.236  63.525  1.00  0.00     0.254 C 
BRANCH   6  11
HETATM   11  C1  UNL     1      29.826  20.781  64.306  1.00  0.00     0.283 C 
HETATM   12  N1  UNL     1      28.786  21.356  63.523  1.00  0.00    -0.056 NA
HETATM   13  O1  UNL     1      30.503  21.464  65.115  1.00  0.00    -0.269 OA
ENDBRANCH   6  11
BRANCH  10  14
HETATM   14  N7  UNL     1      29.789  16.185  62.854  1.00  0.00    -0.068 N 
ATOM     15  H73 UNL     1      29.185  16.566  62.126  1.00  0.00     0.275 HD
ATOM     16  H72 UNL     1      30.408  15.619  62.273  1.00  0.00     0.275 HD
ATOM     17  H71 UNL     1      29.259  15.601  63.501  1.00  0.00     0.275 HD
ENDBRANCH  10  14
ENDBRANCH   3   5
ENDBRANCH   1   3
BRANCH   1  18
HETATM   18  C4  UNL     1      27.576  18.330  60.746  1.00  0.00     0.055 A 
HETATM   19  C5  UNL     1      26.820  17.297  61.292  1.00  0.00     0.064 A 
HETATM   20  C6  UNL     1      26.192  16.428  60.459  1.00  0.00     0.081 A 
HETATM   21  N6  UNL     1      26.296  16.562  59.114  1.00  0.00    -0.320 N 
HETATM   22  C10 UNL     1      27.008  17.534  58.530  1.00  0.00     0.248 A 
ATOM     23  H6  UNL     1      25.809  15.892  58.519  1.00  0.00     0.169 HD
HETATM   24  O2  UNL     1      27.104  17.657  57.282  1.00  0.00    -0.268 OA
HETATM   25  C11 UNL     1      27.651  18.422  59.371  1.00  0.00     0.105 A 
BRANCH  20  26
HETATM   26  C7  UNL     1      25.378  15.316  61.003  1.00  0.00     0.124 C 
HETATM   27  N4  UNL     1      24.241  15.460  61.555  1.00  0.00    -0.373 N 
HETATM   28  C8  UNL     1      23.691  14.169  61.989  1.00  0.00     0.141 C 
ATOM     29  H4  UNL     1      23.771  16.356  61.679  1.00  0.00     0.161 HD
HETATM   30  C9  UNL     1      24.922  13.267  61.992  1.00  0.00     0.141 C 
HETATM   31  N5  UNL     1      25.730  13.935  60.996  1.00  0.00    -0.373 N 
ATOM     32  H5  UNL     1      26.428  13.496  60.396  1.00  0.00     0.161 HD
ENDBRANCH  20  26
ENDBRANCH   1  18
TORSDOF 6
ENDMDL
