MODEL 1
REMARK VINA RESULT: -7.020612187      0.000      0.000
REMARK  6 active torsions:
REMARK  status: ('A' for Active; 'I' for Inactive)
REMARK    1  A    between atoms: C2_5  and  N3_6 
REMARK    2  A    between atoms: N3_6  and  C3_8 
REMARK    3  A    between atoms: C3_8  and  C4_9 
REMARK    4  A    between atoms: C4_9  and  C5_10 
REMARK    5  A    between atoms: C5_10  and  N4_11 
REMARK    6  A    between atoms: N4_11  and  C6_13 
ROOT
HETATM    1  N3  UNL     1      27.512  17.312  64.787  1.00  0.00    -0.371 N 
ATOM      2  H3  UNL     1      28.235  17.050  65.456  1.00  0.00     0.161 HD
ENDROOT
BRANCH   1   3
HETATM    3  C2  UNL     1      26.816  18.340  65.045  1.00  0.00     0.173 C 
HETATM    4  N2  UNL     1      25.615  18.157  65.664  1.00  0.00    -0.312 N 
HETATM    5  C1  UNL     1      24.505  18.915  65.510  1.00  0.00     0.198 C 
ATOM      6  H2  UNL     1      25.547  17.369  66.308  1.00  0.00     0.170 HD
HETATM    7  N1  UNL     1      23.361  18.451  66.216  1.00  0.00    -0.063 NA
HETATM    8  N8  UNL     1      24.369  20.055  64.766  1.00  0.00    -0.282 N 
HETATM    9  C11 UNL     1      25.323  20.816  64.195  1.00  0.00     0.329 C 
ATOM     10  H8  UNL     1      23.410  20.373  64.624  1.00  0.00     0.173 HD
HETATM   11  N7  UNL     1      26.634  20.634  64.179  1.00  0.00    -0.272 N 
HETATM   12  O2  UNL     1      24.856  21.820  63.609  1.00  0.00    -0.247 OA
HETATM   13  C10 UNL     1      27.314  19.577  64.663  1.00  0.00     0.293 C 
ATOM     14  H7  UNL     1      27.190  21.377  63.755  1.00  0.00     0.174 HD
HETATM   15  O1  UNL     1      28.537  19.697  64.790  1.00  0.00    -0.264 OA
ENDBRANCH   1   3
BRANCH   1  16
HETATM   16  C3  UNL     1      27.357  16.500  63.632  1.00  0.00     0.126 C 
BRANCH  16  17
HETATM   17  C4  UNL     1      28.756  16.211  63.100  1.00  0.00     0.064 C 
BRANCH  17  18
HETATM   18  C5  UNL     1      28.558  15.899  61.628  1.00  0.00     0.059 C 
BRANCH  18  19
HETATM   19  N4  UNL     1      27.577  14.930  61.364  1.00  0.00    -0.374 N 
ATOM     20  H4  UNL     1      27.338  14.238  62.073  1.00  0.00     0.160 HD
BRANCH  19  21
HETATM   21  C6  UNL     1      26.926  14.918  60.122  1.00  0.00     0.309 C 
HETATM   22  C7  UNL     1      26.680  16.335  59.585  1.00  0.00     0.286 C 
HETATM   23  N5  UNL     1      25.324  16.748  59.874  1.00  0.00    -0.070 N 
HETATM   24  C8  UNL     1      24.801  16.231  61.101  1.00  0.00     0.260 C 
ATOM     25  H52 UNL     1      25.249  17.766  59.855  1.00  0.00     0.277 HD
ATOM     26  H51 UNL     1      24.706  16.514  59.097  1.00  0.00     0.277 HD
HETATM   27  C9  UNL     1      24.737  14.733  61.067  1.00  0.00     0.262 C 
HETATM   28  N6  UNL     1      25.673  14.172  60.110  1.00  0.00    -0.051 N 
ATOM     29  H62 UNL     1      25.272  14.119  59.174  1.00  0.00     0.279 HD
ATOM     30  H61 UNL     1      25.824  13.175  60.267  1.00  0.00     0.279 HD
ENDBRANCH  19  21
ENDBRANCH  18  19
ENDBRANCH  17  18
ENDBRANCH  16  17
ENDBRANCH   1  16
TORSDOF 6
ENDMDL
MODEL 2
REMARK VINA RESULT: -7.014441863      3.251      5.818
REMARK  6 active torsions:
REMARK  status: ('A' for Active; 'I' for Inactive)
REMARK    1  A    between atoms: C2_5  and  N3_6 
REMARK    2  A    between atoms: N3_6  and  C3_8 
REMARK    3  A    between atoms: C3_8  and  C4_9 
REMARK    4  A    between atoms: C4_9  and  C5_10 
REMARK    5  A    between atoms: C5_10  and  N4_11 
REMARK    6  A    between atoms: N4_11  and  C6_13 
ROOT
HETATM    1  N3  UNL     1      27.742  16.115  61.455  1.00  0.00    -0.371 N 
ATOM      2  H3  UNL     1      28.326  15.284  61.375  1.00  0.00     0.161 HD
ENDROOT
BRANCH   1   3
HETATM    3  C2  UNL     1      26.484  15.958  61.416  1.00  0.00     0.173 C 
HETATM    4  N2  UNL     1      25.707  16.865  62.073  1.00  0.00    -0.312 N 
HETATM    5  C1  UNL     1      24.516  16.626  62.668  1.00  0.00     0.198 C 
ATOM      6  H2  UNL     1      26.060  17.822  62.120  1.00  0.00     0.170 HD
HETATM    7  N1  UNL     1      23.956  17.740  63.354  1.00  0.00    -0.063 NA
HETATM    8  N8  UNL     1      23.808  15.457  62.679  1.00  0.00    -0.282 N 
HETATM    9  C11 UNL     1      23.994  14.344  61.942  1.00  0.00     0.329 C 
ATOM     10  H8  UNL     1      23.030  15.421  63.337  1.00  0.00     0.173 HD
HETATM   11  N7  UNL     1      24.932  14.088  61.044  1.00  0.00    -0.272 N 
HETATM   12  O2  UNL     1      23.139  13.459  62.175  1.00  0.00    -0.247 OA
HETATM   13  C10 UNL     1      25.986  14.863  60.725  1.00  0.00     0.293 C 
ATOM     14  H7  UNL     1      24.846  13.207  60.537  1.00  0.00     0.174 HD
HETATM   15  O1  UNL     1      26.606  14.585  59.693  1.00  0.00    -0.264 OA
ENDBRANCH   1   3
BRANCH   1  16
HETATM   16  C3  UNL     1      28.395  17.368  61.604  1.00  0.00     0.126 C 
BRANCH  16  17
HETATM   17  C4  UNL     1      29.752  17.090  62.240  1.00  0.00     0.064 C 
BRANCH  17  18
HETATM   18  C5  UNL     1      30.453  18.436  62.270  1.00  0.00     0.059 C 
BRANCH  18  19
HETATM   19  N4  UNL     1      29.589  19.542  62.291  1.00  0.00    -0.374 N 
ATOM     20  H4  UNL     1      28.909  19.674  61.543  1.00  0.00     0.160 HD
BRANCH  19  21
HETATM   21  C6  UNL     1      29.663  20.465  63.344  1.00  0.00     0.309 C 
HETATM   22  C7  UNL     1      30.151  19.816  64.647  1.00  0.00     0.286 C 
HETATM   23  N5  UNL     1      29.024  19.499  65.497  1.00  0.00    -0.070 N 
HETATM   24  C8  UNL     1      27.838  19.130  64.787  1.00  0.00     0.260 C 
ATOM     25  H52 UNL     1      29.277  18.776  66.170  1.00  0.00     0.277 HD
ATOM     26  H51 UNL     1      28.831  20.271  66.136  1.00  0.00     0.277 HD
HETATM   27  C9  UNL     1      27.354  20.260  63.929  1.00  0.00     0.262 C 
HETATM   28  N6  UNL     1      28.422  21.186  63.598  1.00  0.00    -0.051 N 
ATOM     29  H62 UNL     1      28.539  21.902  64.315  1.00  0.00     0.279 HD
ATOM     30  H61 UNL     1      28.170  21.793  62.817  1.00  0.00     0.279 HD
ENDBRANCH  19  21
ENDBRANCH  18  19
ENDBRANCH  17  18
ENDBRANCH  16  17
ENDBRANCH   1  16
TORSDOF 6
ENDMDL
MODEL 3
REMARK VINA RESULT: -6.963190815      1.640      2.575
REMARK  6 active torsions:
REMARK  status: ('A' for Active; 'I' for Inactive)
REMARK    1  A    between atoms: C2_5  and  N3_6 
REMARK    2  A    between atoms: N3_6  and  C3_8 
REMARK    3  A    between atoms: C3_8  and  C4_9 
REMARK    4  A    between atoms: C4_9  and  C5_10 
REMARK    5  A    between atoms: C5_10  and  N4_11 
REMARK    6  A    between atoms: N4_11  and  C6_13 
ROOT
HETATM    1  N3  UNL     1      25.072  16.472  63.138  1.00  0.00    -0.371 N 
ATOM      2  H3  UNL     1      25.815  15.775  63.165  1.00  0.00     0.161 HD
ENDROOT
BRANCH   1   3
HETATM    3  C2  UNL     1      25.226  17.524  63.829  1.00  0.00     0.173 C 
HETATM    4  N2  UNL     1      24.115  18.097  64.373  1.00  0.00    -0.312 N 
HETATM    5  C1  UNL     1      23.916  19.416  64.597  1.00  0.00     0.198 C 
ATOM      6  H2  UNL     1      23.357  17.468  64.637  1.00  0.00     0.170 HD
HETATM    7  N1  UNL     1      22.629  19.750  65.102  1.00  0.00    -0.063 NA
HETATM    8  N8  UNL     1      24.801  20.440  64.397  1.00  0.00    -0.282 N 
HETATM    9  C11 UNL     1      26.124  20.383  64.146  1.00  0.00     0.329 C 
ATOM     10  H8  UNL     1      24.403  21.378  64.444  1.00  0.00     0.173 HD
HETATM   11  N7  UNL     1      26.897  19.320  63.996  1.00  0.00    -0.272 N 
HETATM   12  O2  UNL     1      26.648  21.516  64.049  1.00  0.00    -0.247 OA
HETATM   13  C10 UNL     1      26.510  18.030  63.968  1.00  0.00     0.293 C 
ATOM     14  H7  UNL     1      27.896  19.497  63.890  1.00  0.00     0.174 HD
HETATM   15  O1  UNL     1      27.389  17.169  64.076  1.00  0.00    -0.264 OA
ENDBRANCH   1   3
BRANCH   1  16
HETATM   16  C3  UNL     1      23.938  16.196  62.328  1.00  0.00     0.126 C 
BRANCH  16  17
HETATM   17  C4  UNL     1      23.771  14.681  62.297  1.00  0.00     0.064 C 
BRANCH  17  18
HETATM   18  C5  UNL     1      25.090  14.153  61.765  1.00  0.00     0.059 C 
BRANCH  18  19
HETATM   19  N4  UNL     1      25.324  14.430  60.408  1.00  0.00    -0.374 N 
ATOM     20  H4  UNL     1      24.542  14.623  59.784  1.00  0.00     0.160 HD
BRANCH  19  21
HETATM   21  C6  UNL     1      26.637  14.441  59.916  1.00  0.00     0.309 C 
HETATM   22  C7  UNL     1      27.661  14.775  61.009  1.00  0.00     0.286 C 
HETATM   23  N5  UNL     1      28.020  16.175  60.943  1.00  0.00    -0.070 N 
HETATM   24  C8  UNL     1      26.958  17.035  60.520  1.00  0.00     0.260 C 
ATOM     25  H52 UNL     1      28.399  16.489  61.837  1.00  0.00     0.277 HD
ATOM     26  H51 UNL     1      28.841  16.305  60.352  1.00  0.00     0.277 HD
HETATM   27  C9  UNL     1      26.516  16.695  59.128  1.00  0.00     0.262 C 
HETATM   28  N6  UNL     1      26.841  15.326  58.775  1.00  0.00    -0.051 N 
ATOM     29  H62 UNL     1      27.785  15.245  58.397  1.00  0.00     0.279 HD
ATOM     30  H61 UNL     1      26.321  15.012  57.954  1.00  0.00     0.279 HD
ENDBRANCH  19  21
ENDBRANCH  18  19
ENDBRANCH  17  18
ENDBRANCH  16  17
ENDBRANCH   1  16
TORSDOF 6
ENDMDL
MODEL 4
REMARK VINA RESULT: -6.940779235      2.143      2.993
REMARK  6 active torsions:
REMARK  status: ('A' for Active; 'I' for Inactive)
REMARK    1  A    between atoms: C2_5  and  N3_6 
REMARK    2  A    between atoms: N3_6  and  C3_8 
REMARK    3  A    between atoms: C3_8  and  C4_9 
REMARK    4  A    between atoms: C4_9  and  C5_10 
REMARK    5  A    between atoms: C5_10  and  N4_11 
REMARK    6  A    between atoms: N4_11  and  C6_13 
ROOT
HETATM    1  N3  UNL     1      29.684  19.244  62.233  1.00  0.00    -0.371 N 
ATOM      2  H3  UNL     1      30.085  19.475  61.325  1.00  0.00     0.161 HD
ENDROOT
BRANCH   1   3
HETATM    3  C2  UNL     1      28.592  19.803  62.554  1.00  0.00     0.173 C 
HETATM    4  N2  UNL     1      28.645  20.861  63.412  1.00  0.00    -0.312 N 
HETATM    5  C1  UNL     1      27.707  21.210  64.321  1.00  0.00     0.198 C 
ATOM      6  H2  UNL     1      29.478  21.449  63.364  1.00  0.00     0.170 HD
HETATM    7  N1  UNL     1      28.055  22.315  65.147  1.00  0.00    -0.063 NA
HETATM    8  N8  UNL     1      26.486  20.629  64.526  1.00  0.00    -0.282 N 
HETATM    9  C11 UNL     1      25.831  19.737  63.758  1.00  0.00     0.329 C 
ATOM     10  H8  UNL     1      26.004  20.912  65.379  1.00  0.00     0.173 HD
HETATM   11  N7  UNL     1      26.217  19.168  62.628  1.00  0.00    -0.272 N 
HETATM   12  O2  UNL     1      24.707  19.433  64.220  1.00  0.00    -0.247 OA
HETATM   13  C10 UNL     1      27.417  19.288  62.027  1.00  0.00     0.293 C 
ATOM     14  H7  UNL     1      25.532  18.575  62.160  1.00  0.00     0.174 HD
HETATM   15  O1  UNL     1      27.510  18.897  60.858  1.00  0.00    -0.264 OA
ENDBRANCH   1   3
BRANCH   1  16
HETATM   16  C3  UNL     1      30.388  18.319  63.049  1.00  0.00     0.126 C 
BRANCH  16  17
HETATM   17  C4  UNL     1      30.561  17.045  62.230  1.00  0.00     0.064 C 
BRANCH  17  18
HETATM   18  C5  UNL     1      29.393  16.162  62.629  1.00  0.00     0.059 C 
BRANCH  18  19
HETATM   19  N4  UNL     1      28.463  15.926  61.603  1.00  0.00    -0.374 N 
ATOM     20  H4  UNL     1      28.294  16.637  60.893  1.00  0.00     0.160 HD
BRANCH  19  21
HETATM   21  C6  UNL     1      27.769  14.709  61.560  1.00  0.00     0.309 C 
HETATM   22  C7  UNL     1      27.241  14.396  60.153  1.00  0.00     0.286 C 
HETATM   23  N5  UNL     1      25.846  14.769  60.050  1.00  0.00    -0.070 N 
HETATM   24  C8  UNL     1      25.486  15.914  60.829  1.00  0.00     0.260 C 
ATOM     25  H52 UNL     1      25.584  14.905  59.074  1.00  0.00     0.277 HD
ATOM     26  H51 UNL     1      25.247  13.977  60.283  1.00  0.00     0.277 HD
HETATM   27  C9  UNL     1      25.699  15.656  62.291  1.00  0.00     0.262 C 
HETATM   28  N6  UNL     1      26.676  14.608  62.520  1.00  0.00    -0.051 N 
ATOM     29  H62 UNL     1      26.249  13.682  62.512  1.00  0.00     0.279 HD
ATOM     30  H61 UNL     1      27.016  14.610  63.482  1.00  0.00     0.279 HD
ENDBRANCH  19  21
ENDBRANCH  18  19
ENDBRANCH  17  18
ENDBRANCH  16  17
ENDBRANCH   1  16
TORSDOF 6
ENDMDL
MODEL 5
REMARK VINA RESULT: -6.926337449      0.991      1.064
REMARK  6 active torsions:
REMARK  status: ('A' for Active; 'I' for Inactive)
REMARK    1  A    between atoms: C2_5  and  N3_6 
REMARK    2  A    between atoms: N3_6  and  C3_8 
REMARK    3  A    between atoms: C3_8  and  C4_9 
REMARK    4  A    between atoms: C4_9  and  C5_10 
REMARK    5  A    between atoms: C5_10  and  N4_11 
REMARK    6  A    between atoms: N4_11  and  C6_13 
ROOT
HETATM    1  N3  UNL     1      27.142  17.423  64.819  1.00  0.00    -0.371 N 
ATOM      2  H3  UNL     1      27.466  16.811  65.568  1.00  0.00     0.161 HD
ENDROOT
BRANCH   1   3
HETATM    3  C2  UNL     1      26.778  18.596  65.134  1.00  0.00     0.173 C 
HETATM    4  N2  UNL     1      25.440  18.856  65.185  1.00  0.00    -0.312 N 
HETATM    5  C1  UNL     1      24.836  20.033  64.903  1.00  0.00     0.198 C 
ATOM      6  H2  UNL     1      24.834  18.084  65.463  1.00  0.00     0.170 HD
HETATM    7  N1  UNL     1      23.415  20.004  64.957  1.00  0.00    -0.063 NA
HETATM    8  N8  UNL     1      25.432  21.220  64.580  1.00  0.00    -0.282 N 
HETATM    9  C11 UNL     1      26.729  21.573  64.674  1.00  0.00     0.329 C 
ATOM     10  H8  UNL     1      24.807  21.941  64.218  1.00  0.00     0.173 HD
HETATM   11  N7  UNL     1      27.763  20.848  65.070  1.00  0.00    -0.272 N 
HETATM   12  O2  UNL     1      26.935  22.759  64.326  1.00  0.00    -0.247 OA
HETATM   13  C10 UNL     1      27.763  19.539  65.387  1.00  0.00     0.293 C 
ATOM     14  H7  UNL     1      28.657  21.333  65.143  1.00  0.00     0.174 HD
HETATM   15  O1  UNL     1      28.755  19.096  65.976  1.00  0.00    -0.264 OA
ENDBRANCH   1   3
BRANCH   1  16
HETATM   16  C3  UNL     1      27.132  16.901  63.498  1.00  0.00     0.126 C 
BRANCH  16  17
HETATM   17  C4  UNL     1      28.515  16.316  63.240  1.00  0.00     0.064 C 
BRANCH  17  18
HETATM   18  C5  UNL     1      28.405  15.632  61.890  1.00  0.00     0.059 C 
BRANCH  18  19
HETATM   19  N4  UNL     1      27.185  14.974  61.668  1.00  0.00    -0.374 N 
ATOM     20  H4  UNL     1      26.694  14.532  62.445  1.00  0.00     0.160 HD
BRANCH  19  21
HETATM   21  C6  UNL     1      26.644  14.926  60.376  1.00  0.00     0.309 C 
HETATM   22  C7  UNL     1      26.449  16.327  59.779  1.00  0.00     0.286 C 
HETATM   23  N5  UNL     1      25.073  16.748  59.938  1.00  0.00    -0.070 N 
HETATM   24  C8  UNL     1      24.445  16.265  61.129  1.00  0.00     0.260 C 
ATOM     25  H52 UNL     1      25.003  17.764  59.883  1.00  0.00     0.277 HD
ATOM     26  H51 UNL     1      24.525  16.491  59.117  1.00  0.00     0.277 HD
HETATM   27  C9  UNL     1      24.381  14.767  61.132  1.00  0.00     0.262 C 
HETATM   28  N6  UNL     1      25.395  14.179  60.276  1.00  0.00    -0.051 N 
ATOM     29  H62 UNL     1      25.077  14.100  59.310  1.00  0.00     0.279 HD
ATOM     30  H61 UNL     1      25.530  13.187  60.474  1.00  0.00     0.279 HD
ENDBRANCH  19  21
ENDBRANCH  18  19
ENDBRANCH  17  18
ENDBRANCH  16  17
ENDBRANCH   1  16
TORSDOF 6
ENDMDL
