MODEL 1
REMARK VINA RESULT: -6.851944167      0.000      0.000
REMARK  8 active torsions:
REMARK  status: ('A' for Active; 'I' for Inactive)
REMARK    1  A    between atoms: N1_1  and  C1_4 
REMARK    2  A    between atoms: N5_19  and  C7_20 
REMARK    3  A    between atoms: C7_20  and  C8_21 
REMARK    4  A    between atoms: C8_21  and  C9_22 
REMARK    5  A    between atoms: C9_22  and  C10_23 
REMARK    6  A    between atoms: C10_23  and  N6_24 
REMARK    7  A    between atoms: C10_23  and  C11_28 
REMARK    8  A    between atoms: C11_28  and  N7_29 
ROOT
HETATM    1  C1  UNL     1      23.921  14.292  61.911  1.00  0.00     0.679 A 
HETATM    2  N2  UNL     1      23.623  15.364  62.666  1.00  0.00    -0.154 N 
ATOM      3  H2  UNL     1      22.761  15.357  63.211  1.00  0.00     0.187 HD
HETATM    4  C2  UNL     1      24.432  16.462  62.728  1.00  0.00     0.289 A 
HETATM    5  O1  UNL     1      24.136  17.437  63.429  1.00  0.00    -0.265 OA
HETATM    6  C3  UNL     1      25.584  16.440  61.983  1.00  0.00     0.141 A 
HETATM    7  C4  UNL     1      25.871  15.301  61.201  1.00  0.00     0.149 A 
HETATM    8  N3  UNL     1      25.043  14.246  61.172  1.00  0.00    -0.184 N 
ATOM      9  H3  UNL     1      25.260  13.428  60.603  1.00  0.00     0.184 HD
HETATM   10  C5  UNL     1      27.013  15.234  60.439  1.00  0.00     0.279 A 
HETATM   11  O2  UNL     1      27.272  14.219  59.740  1.00  0.00    -0.265 OA
HETATM   12  N4  UNL     1      27.853  16.306  60.468  1.00  0.00    -0.273 N 
ATOM     13  H4  UNL     1      28.706  16.278  59.910  1.00  0.00     0.173 HD
HETATM   14  C6  UNL     1      27.602  17.379  61.193  1.00  0.00     0.330 A 
HETATM   15  O3  UNL     1      28.372  18.364  61.221  1.00  0.00    -0.246 OA
HETATM   16  N5  UNL     1      26.462  17.458  61.959  1.00  0.00    -0.292 N 
ENDROOT
BRANCH  16  17
HETATM   17  C7  UNL     1      26.270  18.673  62.717  1.00  0.00     0.134 C 
BRANCH  17  18
HETATM   18  C8  UNL     1      27.030  18.681  64.024  1.00  0.00     0.022 C 
BRANCH  18  19
HETATM   19  C9  UNL     1      26.928  20.032  64.714  1.00  0.00     0.036 C 
BRANCH  19  20
HETATM   20  C10 UNL     1      27.834  21.052  64.100  1.00  0.00     0.208 C 
BRANCH  20  21
HETATM   21  N6  UNL     1      27.906  22.170  65.054  1.00  0.00    -0.073 N 
ATOM     22  H63 UNL     1      27.011  22.384  65.495  1.00  0.00     0.274 HD
ATOM     23  H62 UNL     1      28.415  21.941  65.909  1.00  0.00     0.274 HD
ATOM     24  H61 UNL     1      28.304  22.958  64.543  1.00  0.00     0.274 HD
ENDBRANCH  20  21
BRANCH  20  25
HETATM   25  C11 UNL     1      29.267  20.540  63.975  1.00  0.00     0.262 C 
BRANCH  25  26
HETATM   26  N7  UNL     1      29.706  20.615  62.600  1.00  0.00    -0.077 N 
ATOM     27  H73 UNL     1      29.084  21.192  62.033  1.00  0.00     0.274 HD
ATOM     28  H72 UNL     1      30.556  21.170  62.502  1.00  0.00     0.274 HD
ATOM     29  H71 UNL     1      29.815  19.677  62.214  1.00  0.00     0.274 HD
ENDBRANCH  25  26
ENDBRANCH  20  25
ENDBRANCH  19  20
ENDBRANCH  18  19
ENDBRANCH  17  18
ENDBRANCH  16  17
BRANCH   1  30
HETATM   30  N1  UNL     1      23.080  13.298  61.924  1.00  0.00    -0.234 N 
ATOM     31  H12 UNL     1      22.164  13.386  62.362  1.00  0.00     0.174 HD
ATOM     32  H11 UNL     1      23.375  12.428  61.480  1.00  0.00     0.174 HD
ENDBRANCH   1  30
TORSDOF 8
ENDMDL
MODEL 2
REMARK VINA RESULT: -6.766821302      1.288      1.612
REMARK  8 active torsions:
REMARK  status: ('A' for Active; 'I' for Inactive)
REMARK    1  A    between atoms: N1_1  and  C1_4 
REMARK    2  A    between atoms: N5_19  and  C7_20 
REMARK    3  A    between atoms: C7_20  and  C8_21 
REMARK    4  A    between atoms: C8_21  and  C9_22 
REMARK    5  A    between atoms: C9_22  and  C10_23 
REMARK    6  A    between atoms: C10_23  and  N6_24 
REMARK    7  A    between atoms: C10_23  and  C11_28 
REMARK    8  A    between atoms: C11_28  and  N7_29 
ROOT
HETATM    1  C1  UNL     1      23.927  14.299  61.912  1.00  0.00     0.679 A 
HETATM    2  N2  UNL     1      23.669  15.394  62.650  1.00  0.00    -0.154 N 
ATOM      3  H2  UNL     1      22.826  15.414  63.222  1.00  0.00     0.187 HD
HETATM    4  C2  UNL     1      24.497  16.480  62.659  1.00  0.00     0.289 A 
HETATM    5  O1  UNL     1      24.238  17.476  63.345  1.00  0.00    -0.265 OA
HETATM    6  C3  UNL     1      25.623  16.422  61.878  1.00  0.00     0.141 A 
HETATM    7  C4  UNL     1      25.867  15.261  61.115  1.00  0.00     0.149 A 
HETATM    8  N3  UNL     1      25.023  14.219  61.138  1.00  0.00    -0.184 N 
ATOM      9  H3  UNL     1      25.209  13.383  60.582  1.00  0.00     0.184 HD
HETATM   10  C5  UNL     1      26.983  15.157  60.318  1.00  0.00     0.279 A 
HETATM   11  O2  UNL     1      27.204  14.122  59.636  1.00  0.00    -0.265 OA
HETATM   12  N4  UNL     1      27.839  16.216  60.294  1.00  0.00    -0.273 N 
ATOM     13  H4  UNL     1      28.673  16.161  59.710  1.00  0.00     0.173 HD
HETATM   14  C6  UNL     1      27.628  17.310  61.000  1.00  0.00     0.330 A 
HETATM   15  O3  UNL     1      28.414  18.282  60.979  1.00  0.00    -0.246 OA
HETATM   16  N5  UNL     1      26.516  17.425  61.801  1.00  0.00    -0.292 N 
ENDROOT
BRANCH  16  17
HETATM   17  C7  UNL     1      26.367  18.661  62.534  1.00  0.00     0.134 C 
BRANCH  17  18
HETATM   18  C8  UNL     1      27.317  18.771  63.706  1.00  0.00     0.022 C 
BRANCH  18  19
HETATM   19  C9  UNL     1      26.649  19.440  64.897  1.00  0.00     0.036 C 
BRANCH  19  20
HETATM   20  C10 UNL     1      25.884  20.664  64.504  1.00  0.00     0.208 C 
BRANCH  20  21
HETATM   21  N6  UNL     1      24.459  20.322  64.640  1.00  0.00    -0.073 N 
ATOM     22  H63 UNL     1      24.170  19.545  64.045  1.00  0.00     0.274 HD
ATOM     23  H62 UNL     1      24.230  19.887  65.534  1.00  0.00     0.274 HD
ATOM     24  H61 UNL     1      23.940  21.182  64.463  1.00  0.00     0.274 HD
ENDBRANCH  20  21
BRANCH  20  25
HETATM   25  C11 UNL     1      26.113  21.818  65.477  1.00  0.00     0.262 C 
BRANCH  25  26
HETATM   26  N7  UNL     1      26.565  22.990  64.764  1.00  0.00    -0.077 N 
ATOM     27  H73 UNL     1      27.203  22.752  64.004  1.00  0.00     0.274 HD
ATOM     28  H72 UNL     1      25.820  23.409  64.208  1.00  0.00     0.274 HD
ATOM     29  H71 UNL     1      26.979  23.660  65.413  1.00  0.00     0.274 HD
ENDBRANCH  25  26
ENDBRANCH  20  25
ENDBRANCH  19  20
ENDBRANCH  18  19
ENDBRANCH  17  18
ENDBRANCH  16  17
BRANCH   1  30
HETATM   30  N1  UNL     1      23.072  13.320  61.976  1.00  0.00    -0.234 N 
ATOM     31  H12 UNL     1      22.544  13.134  62.828  1.00  0.00     0.174 HD
ATOM     32  H11 UNL     1      22.953  12.746  61.141  1.00  0.00     0.174 HD
ENDBRANCH   1  30
TORSDOF 8
ENDMDL
MODEL 3
REMARK VINA RESULT: -6.756624948      2.039      6.525
REMARK  8 active torsions:
REMARK  status: ('A' for Active; 'I' for Inactive)
REMARK    1  A    between atoms: N1_1  and  C1_4 
REMARK    2  A    between atoms: N5_19  and  C7_20 
REMARK    3  A    between atoms: C7_20  and  C8_21 
REMARK    4  A    between atoms: C8_21  and  C9_22 
REMARK    5  A    between atoms: C9_22  and  C10_23 
REMARK    6  A    between atoms: C10_23  and  N6_24 
REMARK    7  A    between atoms: C10_23  and  C11_28 
REMARK    8  A    between atoms: C11_28  and  N7_29 
ROOT
HETATM    1  C1  UNL     1      28.470  20.196  62.946  1.00  0.00     0.679 A 
HETATM    2  N2  UNL     1      28.372  18.976  62.389  1.00  0.00    -0.154 N 
ATOM      3  H2  UNL     1      29.139  18.637  61.808  1.00  0.00     0.187 HD
HETATM    4  C2  UNL     1      27.282  18.174  62.573  1.00  0.00     0.289 A 
HETATM    5  O1  UNL     1      27.214  17.056  62.050  1.00  0.00    -0.265 OA
HETATM    6  C3  UNL     1      26.267  18.659  63.359  1.00  0.00     0.141 A 
HETATM    7  C4  UNL     1      26.398  19.943  63.929  1.00  0.00     0.149 A 
HETATM    8  N3  UNL     1      27.490  20.694  63.719  1.00  0.00    -0.184 N 
ATOM      9  H3  UNL     1      27.574  21.621  64.136  1.00  0.00     0.184 HD
HETATM   10  C5  UNL     1      25.408  20.470  64.724  1.00  0.00     0.279 A 
HETATM   11  O2  UNL     1      25.522  21.616  65.235  1.00  0.00    -0.265 OA
HETATM   12  N4  UNL     1      24.299  19.708  64.937  1.00  0.00    -0.273 N 
ATOM     13  H4  UNL     1      23.552  20.079  65.523  1.00  0.00     0.173 HD
HETATM   14  C6  UNL     1      24.159  18.505  64.412  1.00  0.00     0.330 A 
HETATM   15  O3  UNL     1      23.142  17.805  64.608  1.00  0.00    -0.246 OA
HETATM   16  N5  UNL     1      25.143  17.968  63.616  1.00  0.00    -0.292 N 
ENDROOT
BRANCH  16  17
HETATM   17  C7  UNL     1      24.899  16.647  63.083  1.00  0.00     0.134 C 
BRANCH  17  18
HETATM   18  C8  UNL     1      23.907  16.645  61.941  1.00  0.00     0.022 C 
BRANCH  18  19
HETATM   19  C9  UNL     1      24.012  15.367  61.122  1.00  0.00     0.036 C 
BRANCH  19  20
HETATM   20  C10 UNL     1      25.056  14.437  61.654  1.00  0.00     0.208 C 
BRANCH  20  21
HETATM   21  N6  UNL     1      24.357  13.193  62.012  1.00  0.00    -0.073 N 
ATOM     22  H63 UNL     1      23.360  13.211  61.795  1.00  0.00     0.274 HD
ATOM     23  H62 UNL     1      24.601  12.404  61.413  1.00  0.00     0.274 HD
ATOM     24  H61 UNL     1      24.553  13.028  62.999  1.00  0.00     0.274 HD
ENDBRANCH  20  21
BRANCH  20  25
HETATM   25  C11 UNL     1      26.063  14.035  60.579  1.00  0.00     0.262 C 
BRANCH  25  26
HETATM   26  N7  UNL     1      26.354  15.161  59.721  1.00  0.00    -0.077 N 
ATOM     27  H73 UNL     1      26.061  16.044  60.139  1.00  0.00     0.274 HD
ATOM     28  H72 UNL     1      27.354  15.347  59.663  1.00  0.00     0.274 HD
ATOM     29  H71 UNL     1      25.938  15.018  58.800  1.00  0.00     0.274 HD
ENDBRANCH  25  26
ENDBRANCH  20  25
ENDBRANCH  19  20
ENDBRANCH  18  19
ENDBRANCH  17  18
ENDBRANCH  16  17
BRANCH   1  30
HETATM   30  N1  UNL     1      29.553  20.878  62.706  1.00  0.00    -0.234 N 
ATOM     31  H12 UNL     1      29.509  21.839  62.368  1.00  0.00     0.174 HD
ATOM     32  H11 UNL     1      30.446  20.412  62.869  1.00  0.00     0.174 HD
ENDBRANCH   1  30
TORSDOF 8
ENDMDL
MODEL 4
REMARK VINA RESULT: -6.749122134      0.844      1.297
REMARK  8 active torsions:
REMARK  status: ('A' for Active; 'I' for Inactive)
REMARK    1  A    between atoms: N1_1  and  C1_4 
REMARK    2  A    between atoms: N5_19  and  C7_20 
REMARK    3  A    between atoms: C7_20  and  C8_21 
REMARK    4  A    between atoms: C8_21  and  C9_22 
REMARK    5  A    between atoms: C9_22  and  C10_23 
REMARK    6  A    between atoms: C10_23  and  N6_24 
REMARK    7  A    between atoms: C10_23  and  C11_28 
REMARK    8  A    between atoms: C11_28  and  N7_29 
ROOT
HETATM    1  C1  UNL     1      23.937  14.309  61.958  1.00  0.00     0.679 A 
HETATM    2  N2  UNL     1      23.664  15.414  62.675  1.00  0.00    -0.154 N 
ATOM      3  H2  UNL     1      22.818  15.433  63.246  1.00  0.00     0.187 HD
HETATM    4  C2  UNL     1      24.477  16.511  62.667  1.00  0.00     0.289 A 
HETATM    5  O1  UNL     1      24.204  17.515  63.334  1.00  0.00    -0.265 OA
HETATM    6  C3  UNL     1      25.606  16.453  61.889  1.00  0.00     0.141 A 
HETATM    7  C4  UNL     1      25.866  15.281  61.148  1.00  0.00     0.149 A 
HETATM    8  N3  UNL     1      25.036  14.229  61.189  1.00  0.00    -0.184 N 
ATOM      9  H3  UNL     1      25.234  13.386  60.648  1.00  0.00     0.184 HD
HETATM   10  C5  UNL     1      26.985  15.177  60.355  1.00  0.00     0.279 A 
HETATM   11  O2  UNL     1      27.221  14.133  59.692  1.00  0.00    -0.265 OA
HETATM   12  N4  UNL     1      27.828  16.247  60.314  1.00  0.00    -0.273 N 
ATOM     13  H4  UNL     1      28.664  16.192  59.732  1.00  0.00     0.173 HD
HETATM   14  C6  UNL     1      27.601  17.351  60.999  1.00  0.00     0.330 A 
HETATM   15  O3  UNL     1      28.374  18.332  60.962  1.00  0.00    -0.246 OA
HETATM   16  N5  UNL     1      26.486  17.466  61.796  1.00  0.00    -0.292 N 
ENDROOT
BRANCH  16  17
HETATM   17  C7  UNL     1      26.319  18.713  62.506  1.00  0.00     0.134 C 
BRANCH  17  18
HETATM   18  C8  UNL     1      27.159  18.794  63.762  1.00  0.00     0.022 C 
BRANCH  18  19
HETATM   19  C9  UNL     1      27.926  20.106  63.828  1.00  0.00     0.036 C 
BRANCH  19  20
HETATM   20  C10 UNL     1      27.583  20.902  65.048  1.00  0.00     0.208 C 
BRANCH  20  21
HETATM   21  N6  UNL     1      28.675  21.871  65.230  1.00  0.00    -0.073 N 
ATOM     22  H63 UNL     1      29.370  21.843  64.484  1.00  0.00     0.274 HD
ATOM     23  H62 UNL     1      28.384  22.839  65.094  1.00  0.00     0.274 HD
ATOM     24  H61 UNL     1      29.066  21.691  66.155  1.00  0.00     0.274 HD
ENDBRANCH  20  21
BRANCH  20  25
HETATM   25  C11 UNL     1      26.328  21.747  64.842  1.00  0.00     0.262 C 
BRANCH  25  26
HETATM   26  N7  UNL     1      26.668  23.151  64.828  1.00  0.00    -0.077 N 
ATOM     27  H73 UNL     1      27.628  23.313  65.134  1.00  0.00     0.274 HD
ATOM     28  H72 UNL     1      26.750  23.514  63.879  1.00  0.00     0.274 HD
ATOM     29  H71 UNL     1      25.996  23.681  65.383  1.00  0.00     0.274 HD
ENDBRANCH  25  26
ENDBRANCH  20  25
ENDBRANCH  19  20
ENDBRANCH  18  19
ENDBRANCH  17  18
ENDBRANCH  16  17
BRANCH   1  30
HETATM   30  N1  UNL     1      23.095  13.320  62.039  1.00  0.00    -0.234 N 
ATOM     31  H12 UNL     1      22.880  12.879  62.933  1.00  0.00     0.174 HD
ATOM     32  H11 UNL     1      22.659  13.004  61.172  1.00  0.00     0.174 HD
ENDBRANCH   1  30
TORSDOF 8
ENDMDL
MODEL 5
REMARK VINA RESULT: -6.729611586      2.140      3.618
REMARK  8 active torsions:
REMARK  status: ('A' for Active; 'I' for Inactive)
REMARK    1  A    between atoms: N1_1  and  C1_4 
REMARK    2  A    between atoms: N5_19  and  C7_20 
REMARK    3  A    between atoms: C7_20  and  C8_21 
REMARK    4  A    between atoms: C8_21  and  C9_22 
REMARK    5  A    between atoms: C9_22  and  C10_23 
REMARK    6  A    between atoms: C10_23  and  N6_24 
REMARK    7  A    between atoms: C10_23  and  C11_28 
REMARK    8  A    between atoms: C11_28  and  N7_29 
ROOT
HETATM    1  C1  UNL     1      23.768  17.373  63.521  1.00  0.00     0.679 A 
HETATM    2  N2  UNL     1      24.914  18.050  63.329  1.00  0.00    -0.154 N 
ATOM      3  H2  UNL     1      24.982  19.008  63.670  1.00  0.00     0.187 HD
HETATM    4  C2  UNL     1      25.990  17.499  62.693  1.00  0.00     0.289 A 
HETATM    5  O1  UNL     1      27.033  18.141  62.528  1.00  0.00    -0.265 OA
HETATM    6  C3  UNL     1      25.865  16.208  62.245  1.00  0.00     0.141 A 
HETATM    7  C4  UNL     1      24.650  15.523  62.461  1.00  0.00     0.149 A 
HETATM    8  N3  UNL     1      23.621  16.108  63.091  1.00  0.00    -0.184 N 
ATOM      9  H3  UNL     1      22.747  15.604  63.242  1.00  0.00     0.184 HD
HETATM   10  C5  UNL     1      24.480  14.229  62.031  1.00  0.00     0.279 A 
HETATM   11  O2  UNL     1      23.397  13.614  62.222  1.00  0.00    -0.265 OA
HETATM   12  N4  UNL     1      25.526  13.635  61.391  1.00  0.00    -0.273 N 
ATOM     13  H4  UNL     1      25.422  12.676  61.063  1.00  0.00     0.173 HD
HETATM   14  C6  UNL     1      26.669  14.259  61.180  1.00  0.00     0.330 A 
HETATM   15  O3  UNL     1      27.630  13.716  60.592  1.00  0.00    -0.246 OA
HETATM   16  N5  UNL     1      26.851  15.554  61.605  1.00  0.00    -0.292 N 
ENDROOT
BRANCH  16  17
HETATM   17  C7  UNL     1      28.134  16.156  61.327  1.00  0.00     0.134 C 
BRANCH  17  18
HETATM   18  C8  UNL     1      29.188  15.805  62.354  1.00  0.00     0.022 C 
BRANCH  18  19
HETATM   19  C9  UNL     1      30.325  16.815  62.346  1.00  0.00     0.036 C 
BRANCH  19  20
HETATM   20  C10 UNL     1      30.456  17.532  63.653  1.00  0.00     0.208 C 
BRANCH  20  21
HETATM   21  N6  UNL     1      31.874  17.440  64.034  1.00  0.00    -0.073 N 
ATOM     22  H63 UNL     1      32.123  16.546  64.459  1.00  0.00     0.274 HD
ATOM     23  H62 UNL     1      32.506  17.379  63.235  1.00  0.00     0.274 HD
ATOM     24  H61 UNL     1      32.061  18.241  64.638  1.00  0.00     0.274 HD
ENDBRANCH  20  21
BRANCH  20  25
HETATM   25  C11 UNL     1      30.174  19.026  63.514  1.00  0.00     0.262 C 
BRANCH  25  26
HETATM   26  N7  UNL     1      29.834  19.345  62.147  1.00  0.00    -0.077 N 
ATOM     27  H73 UNL     1      29.073  20.023  62.092  1.00  0.00     0.274 HD
ATOM     28  H72 UNL     1      30.560  19.898  61.693  1.00  0.00     0.274 HD
ATOM     29  H71 UNL     1      29.623  18.492  61.628  1.00  0.00     0.274 HD
ENDBRANCH  25  26
ENDBRANCH  20  25
ENDBRANCH  19  20
ENDBRANCH  18  19
ENDBRANCH  17  18
ENDBRANCH  16  17
BRANCH   1  30
HETATM   30  N1  UNL     1      22.804  17.992  64.139  1.00  0.00    -0.234 N 
ATOM     31  H12 UNL     1      22.238  17.520  64.844  1.00  0.00     0.174 HD
ATOM     32  H11 UNL     1      22.637  18.967  63.890  1.00  0.00     0.174 HD
ENDBRANCH   1  30
TORSDOF 8
ENDMDL
