MODEL 1
REMARK VINA RESULT: -7.060629750      0.000      0.000
REMARK  9 active torsions:
REMARK  status: ('A' for Active; 'I' for Inactive)
REMARK    1  A    between atoms: O1_2  and  C2_3 
REMARK    2  A    between atoms: N1_5  and  C4_6 
REMARK    3  A    between atoms: C4_6  and  C5_7 
REMARK    4  A    between atoms: C5_7  and  C6_8 
REMARK    5  A    between atoms: C6_8  and  N2_9 
REMARK    6  A    between atoms: N2_9  and  C7_11 
REMARK    7  A    between atoms: C8_14  and  N4_15 
REMARK    8  A    between atoms: C9_20  and  N6_21 
REMARK    9  A    between atoms: C11_27  and  N8_28 
ROOT
HETATM    1  N2  UNL     1      25.598  16.673  59.760  1.00  0.00    -0.225 N 
ATOM      2  H2  UNL     1      25.092  17.024  58.947  1.00  0.00     0.177 HD
ENDROOT
BRANCH   1   3
HETATM    3  C6  UNL     1      27.019  16.692  59.685  1.00  0.00     0.140 C 
BRANCH   3   4
HETATM    4  C5  UNL     1      27.614  16.182  60.994  1.00  0.00     0.050 C 
BRANCH   4   5
HETATM    5  C4  UNL     1      28.716  17.147  61.354  1.00  0.00     0.274 C 
BRANCH   5   6
HETATM    6  N1  UNL     1      28.600  17.607  62.702  1.00  0.00     0.097 N 
HETATM    7  C3  UNL     1      27.254  17.879  63.098  1.00  0.00     0.332 C 
HETATM    8  C2  UNL     1      26.812  19.264  62.746  1.00  0.00     0.290 C 
HETATM    9  O2  UNL     1      27.715  20.236  63.221  1.00  0.00    -0.325 OA
HETATM   10  C11 UNL     1      28.914  19.993  62.539  1.00  0.00     0.349 C 
HETATM   11  C10 UNL     1      29.458  18.685  63.070  1.00  0.00     0.333 C 
BRANCH   8  12
HETATM   12  O1  UNL     1      25.548  19.529  63.247  1.00  0.00    -0.364 OA
HETATM   13  C1  UNL     1      25.690  20.297  64.392  1.00  0.00     0.204 C 
ENDBRANCH   8  12
BRANCH  10  14
HETATM   14  N8  UNL     1      29.836  21.089  62.745  1.00  0.00    -0.051 N 
ATOM     15  H83 UNL     1      29.701  21.822  62.049  1.00  0.00     0.277 HD
ATOM     16  H82 UNL     1      29.600  21.618  63.585  1.00  0.00     0.277 HD
ATOM     17  H81 UNL     1      30.807  20.774  62.767  1.00  0.00     0.277 HD
ENDBRANCH  10  14
ENDBRANCH   5   6
ENDBRANCH   4   5
ENDBRANCH   3   4
ENDBRANCH   1   3
BRANCH   1  18
HETATM   18  C7  UNL     1      24.891  16.261  60.743  1.00  0.00     0.707 A 
HETATM   19  N3  UNL     1      24.648  14.947  60.852  1.00  0.00    -0.022 N 
HETATM   20  C8  UNL     1      23.894  14.500  61.897  1.00  0.00     0.705 A 
ATOM     21  H3  UNL     1      25.020  14.292  60.164  1.00  0.00     0.203 HD
HETATM   22  N5  UNL     1      23.405  15.368  62.797  1.00  0.00    -0.022 N 
HETATM   23  C9  UNL     1      23.636  16.690  62.709  1.00  0.00     0.705 A 
ATOM     24  H5  UNL     1      22.842  15.015  63.571  1.00  0.00     0.203 HD
HETATM   25  N7  UNL     1      24.382  17.107  61.671  1.00  0.00    -0.022 N 
ATOM     26  H7  UNL     1      24.574  18.104  61.579  1.00  0.00     0.203 HD
BRANCH  20  27
HETATM   27  N4  UNL     1      23.653  13.244  62.013  1.00  0.00    -0.234 N 
ATOM     28  H42 UNL     1      24.138  12.570  61.419  1.00  0.00     0.174 HD
ATOM     29  H41 UNL     1      22.975  12.923  62.704  1.00  0.00     0.174 HD
ENDBRANCH  20  27
BRANCH  23  30
HETATM   30  N6  UNL     1      23.160  17.533  63.586  1.00  0.00    -0.234 N 
ATOM     31  H62 UNL     1      23.748  17.919  64.325  1.00  0.00     0.174 HD
ATOM     32  H61 UNL     1      22.187  17.838  63.565  1.00  0.00     0.174 HD
ENDBRANCH  23  30
ENDBRANCH   1  18
TORSDOF 9
ENDMDL
MODEL 2
REMARK VINA RESULT: -7.058497925      1.327      1.578
REMARK  9 active torsions:
REMARK  status: ('A' for Active; 'I' for Inactive)
REMARK    1  A    between atoms: O1_2  and  C2_3 
REMARK    2  A    between atoms: N1_5  and  C4_6 
REMARK    3  A    between atoms: C4_6  and  C5_7 
REMARK    4  A    between atoms: C5_7  and  C6_8 
REMARK    5  A    between atoms: C6_8  and  N2_9 
REMARK    6  A    between atoms: N2_9  and  C7_11 
REMARK    7  A    between atoms: C8_14  and  N4_15 
REMARK    8  A    between atoms: C9_20  and  N6_21 
REMARK    9  A    between atoms: C11_27  and  N8_28 
ROOT
HETATM    1  N2  UNL     1      25.668  16.790  59.797  1.00  0.00    -0.225 N 
ATOM      2  H2  UNL     1      25.146  17.093  58.975  1.00  0.00     0.177 HD
ENDROOT
BRANCH   1   3
HETATM    3  C6  UNL     1      27.086  16.882  59.722  1.00  0.00     0.140 C 
BRANCH   3   4
HETATM    4  C5  UNL     1      27.533  18.306  60.040  1.00  0.00     0.050 C 
BRANCH   4   5
HETATM    5  C4  UNL     1      28.520  18.189  61.173  1.00  0.00     0.274 C 
BRANCH   5   6
HETATM    6  N1  UNL     1      27.877  18.256  62.448  1.00  0.00     0.097 N 
HETATM    7  C3  UNL     1      27.368  19.555  62.762  1.00  0.00     0.332 C 
HETATM    8  C2  UNL     1      28.390  20.442  63.398  1.00  0.00     0.290 C 
HETATM    9  O2  UNL     1      28.999  19.824  64.509  1.00  0.00    -0.325 OA
HETATM   10  C11 UNL     1      29.674  18.712  63.992  1.00  0.00     0.349 C 
HETATM   11  C10 UNL     1      28.613  17.728  63.549  1.00  0.00     0.333 C 
BRANCH   8  12
HETATM   12  O1  UNL     1      27.832  21.647  63.793  1.00  0.00    -0.364 OA
HETATM   13  C1  UNL     1      27.026  21.409  64.895  1.00  0.00     0.204 C 
ENDBRANCH   8  12
BRANCH  10  14
HETATM   14  N8  UNL     1      30.553  18.150  64.994  1.00  0.00    -0.051 N 
ATOM     15  H83 UNL     1      30.883  18.866  65.641  1.00  0.00     0.277 HD
ATOM     16  H82 UNL     1      30.036  17.565  65.652  1.00  0.00     0.277 HD
ATOM     17  H81 UNL     1      31.332  17.639  64.578  1.00  0.00     0.277 HD
ENDBRANCH  10  14
ENDBRANCH   5   6
ENDBRANCH   4   5
ENDBRANCH   3   4
ENDBRANCH   1   3
BRANCH   1  18
HETATM   18  C7  UNL     1      24.982  16.366  60.790  1.00  0.00     0.707 A 
HETATM   19  N3  UNL     1      24.718  15.054  60.874  1.00  0.00    -0.022 N 
HETATM   20  C8  UNL     1      23.986  14.595  61.930  1.00  0.00     0.705 A 
ATOM     21  H3  UNL     1      25.058  14.411  60.161  1.00  0.00     0.203 HD
HETATM   22  N5  UNL     1      23.540  15.450  62.865  1.00  0.00    -0.022 N 
HETATM   23  C9  UNL     1      23.793  16.770  62.802  1.00  0.00     0.705 A 
ATOM     24  H5  UNL     1      22.993  15.089  63.645  1.00  0.00     0.203 HD
HETATM   25  N7  UNL     1      24.516  17.198  61.753  1.00  0.00    -0.022 N 
ATOM     26  H7  UNL     1      24.723  18.194  61.678  1.00  0.00     0.203 HD
BRANCH  20  27
HETATM   27  N4  UNL     1      23.726  13.342  62.022  1.00  0.00    -0.234 N 
ATOM     28  H42 UNL     1      24.465  12.679  62.258  1.00  0.00     0.174 HD
ATOM     29  H41 UNL     1      22.774  13.012  61.860  1.00  0.00     0.174 HD
ENDBRANCH  20  27
BRANCH  23  30
HETATM   30  N6  UNL     1      23.357  17.599  63.711  1.00  0.00    -0.234 N 
ATOM     31  H62 UNL     1      22.500  17.413  64.232  1.00  0.00     0.174 HD
ATOM     32  H61 UNL     1      23.856  18.460  63.937  1.00  0.00     0.174 HD
ENDBRANCH  23  30
ENDBRANCH   1  18
TORSDOF 9
ENDMDL
MODEL 3
REMARK VINA RESULT: -7.050022691      1.311      2.330
REMARK  9 active torsions:
REMARK  status: ('A' for Active; 'I' for Inactive)
REMARK    1  A    between atoms: O1_2  and  C2_3 
REMARK    2  A    between atoms: N1_5  and  C4_6 
REMARK    3  A    between atoms: C4_6  and  C5_7 
REMARK    4  A    between atoms: C5_7  and  C6_8 
REMARK    5  A    between atoms: C6_8  and  N2_9 
REMARK    6  A    between atoms: N2_9  and  C7_11 
REMARK    7  A    between atoms: C8_14  and  N4_15 
REMARK    8  A    between atoms: C9_20  and  N6_21 
REMARK    9  A    between atoms: C11_27  and  N8_28 
ROOT
HETATM    1  N2  UNL     1      25.696  16.767  59.807  1.00  0.00    -0.225 N 
ATOM      2  H2  UNL     1      25.187  17.061  58.973  1.00  0.00     0.177 HD
ENDROOT
BRANCH   1   3
HETATM    3  C6  UNL     1      27.113  16.882  59.765  1.00  0.00     0.140 C 
BRANCH   3   4
HETATM    4  C5  UNL     1      27.526  18.318  60.073  1.00  0.00     0.050 C 
BRANCH   4   5
HETATM    5  C4  UNL     1      28.574  18.227  61.154  1.00  0.00     0.274 C 
BRANCH   5   6
HETATM    6  N1  UNL     1      27.995  18.263  62.460  1.00  0.00     0.097 N 
HETATM    7  C3  UNL     1      27.432  19.532  62.799  1.00  0.00     0.332 C 
HETATM    8  C2  UNL     1      28.435  20.478  63.380  1.00  0.00     0.290 C 
HETATM    9  O2  UNL     1      29.133  19.899  64.459  1.00  0.00    -0.325 OA
HETATM   10  C11 UNL     1      29.842  18.824  63.908  1.00  0.00     0.349 C 
HETATM   11  C10 UNL     1      28.816  17.781  63.521  1.00  0.00     0.333 C 
BRANCH   8  12
HETATM   12  O1  UNL     1      27.832  21.651  63.802  1.00  0.00    -0.364 OA
HETATM   13  C1  UNL     1      26.863  21.326  64.739  1.00  0.00     0.204 C 
ENDBRANCH   8  12
BRANCH  10  14
HETATM   14  N8  UNL     1      30.801  18.315  64.864  1.00  0.00    -0.051 N 
ATOM     15  H83 UNL     1      31.161  17.405  64.577  1.00  0.00     0.277 HD
ATOM     16  H82 UNL     1      31.670  18.848  64.835  1.00  0.00     0.277 HD
ATOM     17  H81 UNL     1      30.419  18.281  65.809  1.00  0.00     0.277 HD
ENDBRANCH  10  14
ENDBRANCH   5   6
ENDBRANCH   4   5
ENDBRANCH   3   4
ENDBRANCH   1   3
BRANCH   1  18
HETATM   18  C7  UNL     1      24.994  16.331  60.785  1.00  0.00     0.707 A 
HETATM   19  N3  UNL     1      24.551  17.208  61.697  1.00  0.00    -0.022 N 
HETATM   20  C8  UNL     1      23.804  16.751  62.743  1.00  0.00     0.705 A 
ATOM     21  H3  UNL     1      24.769  18.200  61.611  1.00  0.00     0.203 HD
HETATM   22  N5  UNL     1      23.523  15.442  62.851  1.00  0.00    -0.022 N 
HETATM   23  C9  UNL     1      23.956  14.544  61.948  1.00  0.00     0.705 A 
ATOM     24  H5  UNL     1      22.965  15.119  63.640  1.00  0.00     0.203 HD
HETATM   25  N7  UNL     1      24.690  15.018  60.926  1.00  0.00    -0.022 N 
ATOM     26  H7  UNL     1      25.032  14.360  60.226  1.00  0.00     0.203 HD
BRANCH  20  27
HETATM   27  N4  UNL     1      23.374  17.580  63.623  1.00  0.00    -0.234 N 
ATOM     28  H42 UNL     1      23.842  18.476  63.759  1.00  0.00     0.174 HD
ATOM     29  H41 UNL     1      22.558  17.337  64.187  1.00  0.00     0.174 HD
ENDBRANCH  20  27
BRANCH  23  30
HETATM   30  N6  UNL     1      23.682  13.272  62.055  1.00  0.00    -0.234 N 
ATOM     31  H62 UNL     1      22.767  12.951  62.372  1.00  0.00     0.174 HD
ATOM     32  H61 UNL     1      24.368  12.552  61.826  1.00  0.00     0.174 HD
ENDBRANCH  23  30
ENDBRANCH   1  18
TORSDOF 9
ENDMDL
MODEL 4
REMARK VINA RESULT: -7.001843219      1.862      3.871
REMARK  9 active torsions:
REMARK  status: ('A' for Active; 'I' for Inactive)
REMARK    1  A    between atoms: O1_2  and  C2_3 
REMARK    2  A    between atoms: N1_5  and  C4_6 
REMARK    3  A    between atoms: C4_6  and  C5_7 
REMARK    4  A    between atoms: C5_7  and  C6_8 
REMARK    5  A    between atoms: C6_8  and  N2_9 
REMARK    6  A    between atoms: N2_9  and  C7_11 
REMARK    7  A    between atoms: C8_14  and  N4_15 
REMARK    8  A    between atoms: C9_20  and  N6_21 
REMARK    9  A    between atoms: C11_27  and  N8_28 
ROOT
HETATM    1  N2  UNL     1      23.392  17.701  63.382  1.00  0.00    -0.225 N 
ATOM      2  H2  UNL     1      22.733  18.386  63.012  1.00  0.00     0.177 HD
ENDROOT
BRANCH   1   3
HETATM    3  C6  UNL     1      23.715  17.807  64.764  1.00  0.00     0.140 C 
BRANCH   3   4
HETATM    4  C5  UNL     1      23.709  19.272  65.188  1.00  0.00     0.050 C 
BRANCH   4   5
HETATM    5  C4  UNL     1      25.155  19.686  65.278  1.00  0.00     0.274 C 
BRANCH   5   6
HETATM    6  N1  UNL     1      25.517  20.587  64.229  1.00  0.00     0.097 N 
HETATM    7  C3  UNL     1      26.367  20.000  63.241  1.00  0.00     0.332 C 
HETATM    8  C2  UNL     1      27.817  20.075  63.602  1.00  0.00     0.290 C 
HETATM    9  O2  UNL     1      28.205  21.390  63.928  1.00  0.00    -0.325 OA
HETATM   10  C11 UNL     1      27.471  21.722  65.073  1.00  0.00     0.349 C 
HETATM   11  C10 UNL     1      26.027  21.853  64.640  1.00  0.00     0.333 C 
BRANCH   8  12
HETATM   12  O1  UNL     1      28.615  19.604  62.573  1.00  0.00    -0.364 OA
HETATM   13  C1  UNL     1      27.826  18.834  61.733  1.00  0.00     0.204 C 
ENDBRANCH   8  12
BRANCH  10  14
HETATM   14  N8  UNL     1      27.978  22.946  65.655  1.00  0.00    -0.051 N 
ATOM     15  H83 UNL     1      28.992  22.915  65.755  1.00  0.00     0.277 HD
ATOM     16  H82 UNL     1      27.904  23.724  65.000  1.00  0.00     0.277 HD
ATOM     17  H81 UNL     1      27.524  23.164  66.542  1.00  0.00     0.277 HD
ENDBRANCH  10  14
ENDBRANCH   5   6
ENDBRANCH   4   5
ENDBRANCH   3   4
ENDBRANCH   1   3
BRANCH   1  18
HETATM   18  C7  UNL     1      23.843  16.833  62.557  1.00  0.00     0.707 A 
HETATM   19  N3  UNL     1      24.577  17.257  61.518  1.00  0.00    -0.022 N 
HETATM   20  C8  UNL     1      25.061  16.338  60.634  1.00  0.00     0.705 A 
ATOM     21  H3  UNL     1      24.771  18.250  61.391  1.00  0.00     0.203 HD
HETATM   22  N5  UNL     1      24.799  15.032  60.806  1.00  0.00    -0.022 N 
HETATM   23  C9  UNL     1      24.066  14.583  61.841  1.00  0.00     0.705 A 
ATOM     24  H5  UNL     1      25.168  14.360  60.134  1.00  0.00     0.203 HD
HETATM   25  N7  UNL     1      23.601  15.508  62.699  1.00  0.00    -0.022 N 
ATOM     26  H7  UNL     1      23.041  15.197  63.493  1.00  0.00     0.203 HD
BRANCH  20  27
HETATM   27  N4  UNL     1      25.765  16.731  59.635  1.00  0.00    -0.234 N 
ATOM     28  H42 UNL     1      25.949  16.100  58.854  1.00  0.00     0.174 HD
ATOM     29  H41 UNL     1      26.139  17.680  59.625  1.00  0.00     0.174 HD
ENDBRANCH  20  27
BRANCH  23  30
HETATM   30  N6  UNL     1      23.813  13.314  62.006  1.00  0.00    -0.234 N 
ATOM     31  H62 UNL     1      22.857  12.958  62.010  1.00  0.00     0.174 HD
ATOM     32  H61 UNL     1      24.559  12.629  62.136  1.00  0.00     0.174 HD
ENDBRANCH  23  30
ENDBRANCH   1  18
TORSDOF 9
ENDMDL
MODEL 5
REMARK VINA RESULT: -6.992532526      1.524      2.285
REMARK  9 active torsions:
REMARK  status: ('A' for Active; 'I' for Inactive)
REMARK    1  A    between atoms: O1_2  and  C2_3 
REMARK    2  A    between atoms: N1_5  and  C4_6 
REMARK    3  A    between atoms: C4_6  and  C5_7 
REMARK    4  A    between atoms: C5_7  and  C6_8 
REMARK    5  A    between atoms: C6_8  and  N2_9 
REMARK    6  A    between atoms: N2_9  and  C7_11 
REMARK    7  A    between atoms: C8_14  and  N4_15 
REMARK    8  A    between atoms: C9_20  and  N6_21 
REMARK    9  A    between atoms: C11_27  and  N8_28 
ROOT
HETATM    1  N2  UNL     1      25.702  16.796  59.731  1.00  0.00    -0.225 N 
ATOM      2  H2  UNL     1      25.189  17.119  58.911  1.00  0.00     0.177 HD
ENDROOT
BRANCH   1   3
HETATM    3  C6  UNL     1      27.121  16.873  59.668  1.00  0.00     0.140 C 
BRANCH   3   4
HETATM    4  C5  UNL     1      27.581  18.281  60.034  1.00  0.00     0.050 C 
BRANCH   4   5
HETATM    5  C4  UNL     1      28.297  18.155  61.355  1.00  0.00     0.274 C 
BRANCH   5   6
HETATM    6  N1  UNL     1      27.619  18.861  62.397  1.00  0.00     0.097 N 
HETATM    7  C3  UNL     1      28.253  20.090  62.758  1.00  0.00     0.332 C 
HETATM    8  C2  UNL     1      29.328  19.912  63.783  1.00  0.00     0.290 C 
HETATM    9  O2  UNL     1      28.864  19.200  64.907  1.00  0.00    -0.325 OA
HETATM   10  C11 UNL     1      28.528  17.928  64.428  1.00  0.00     0.349 C 
HETATM   11  C10 UNL     1      27.300  18.102  63.561  1.00  0.00     0.333 C 
BRANCH   8  12
HETATM   12  O1  UNL     1      29.837  21.133  64.192  1.00  0.00    -0.364 OA
HETATM   13  C1  UNL     1      29.847  21.155  65.578  1.00  0.00     0.204 C 
ENDBRANCH   8  12
BRANCH  10  14
HETATM   14  N8  UNL     1      28.289  17.025  65.533  1.00  0.00    -0.051 N 
ATOM     15  H83 UNL     1      27.949  17.526  66.354  1.00  0.00     0.277 HD
ATOM     16  H82 UNL     1      27.477  16.433  65.358  1.00  0.00     0.277 HD
ATOM     17  H81 UNL     1      29.114  16.466  65.756  1.00  0.00     0.277 HD
ENDBRANCH  10  14
ENDBRANCH   5   6
ENDBRANCH   4   5
ENDBRANCH   3   4
ENDBRANCH   1   3
BRANCH   1  18
HETATM   18  C7  UNL     1      25.004  16.361  60.712  1.00  0.00     0.707 A 
HETATM   19  N3  UNL     1      24.786  15.042  60.810  1.00  0.00    -0.022 N 
HETATM   20  C8  UNL     1      24.042  14.572  61.852  1.00  0.00     0.705 A 
ATOM     21  H3  UNL     1      25.169  14.401  60.116  1.00  0.00     0.203 HD
HETATM   22  N5  UNL     1      23.538  15.423  62.760  1.00  0.00    -0.022 N 
HETATM   23  C9  UNL     1      23.744  16.750  62.683  1.00  0.00     0.705 A 
ATOM     24  H5  UNL     1      22.983  15.053  63.531  1.00  0.00     0.203 HD
HETATM   25  N7  UNL     1      24.481  17.190  61.648  1.00  0.00    -0.022 N 
ATOM     26  H7  UNL     1      24.653  18.191  61.564  1.00  0.00     0.203 HD
BRANCH  20  27
HETATM   27  N4  UNL     1      23.825  13.311  61.957  1.00  0.00    -0.234 N 
ATOM     28  H42 UNL     1      22.907  12.968  62.237  1.00  0.00     0.174 HD
ATOM     29  H41 UNL     1      24.579  12.653  61.755  1.00  0.00     0.174 HD
ENDBRANCH  20  27
BRANCH  23  30
HETATM   30  N6  UNL     1      23.253  17.575  63.568  1.00  0.00    -0.234 N 
ATOM     31  H62 UNL     1      23.220  17.335  64.559  1.00  0.00     0.174 HD
ATOM     32  H61 UNL     1      22.886  18.491  63.304  1.00  0.00     0.174 HD
ENDBRANCH  23  30
ENDBRANCH   1  18
TORSDOF 9
ENDMDL
