MODEL 1
REMARK VINA RESULT: -7.391112488      0.000      0.000
REMARK  8 active torsions:
REMARK  status: ('A' for Active; 'I' for Inactive)
REMARK    1  A    between atoms: N1_1  and  C1_4 
REMARK    2  A    between atoms: N4_16  and  C6_17 
REMARK    3  A    between atoms: C6_17  and  C7_18 
REMARK    4  A    between atoms: C7_18  and  C8_19 
REMARK    5  A    between atoms: C8_19  and  C9_20 
REMARK    6  A    between atoms: C9_20  and  C10_21 
REMARK    7  A    between atoms: C10_21  and  N5_22 
REMARK    8  A    between atoms: C10_21  and  N6_26 
ROOT
HETATM    1  C1  UNL     1      25.333  17.846  63.761  1.00  0.00     0.680 A 
HETATM    2  N2  UNL     1      25.242  19.182  63.909  1.00  0.00    -0.155 N 
ATOM      3  H2  UNL     1      24.370  19.596  64.241  1.00  0.00     0.187 HD
HETATM    4  C2  UNL     1      26.302  19.986  63.617  1.00  0.00     0.279 A 
HETATM    5  O1  UNL     1      26.231  21.237  63.749  1.00  0.00    -0.266 OA
HETATM    6  C3  UNL     1      27.452  19.369  63.171  1.00  0.00     0.145 A 
HETATM    7  C4  UNL     1      28.550  20.146  62.867  1.00  0.00     0.269 A 
HETATM    8  O2  UNL     1      28.455  21.390  63.007  1.00  0.00    -0.267 OA
HETATM    9  N3  UNL     1      29.678  19.537  62.433  1.00  0.00    -0.274 N 
ATOM     10  H3  UNL     1      30.493  20.108  62.207  1.00  0.00     0.173 HD
HETATM   11  C5  UNL     1      29.757  18.211  62.291  1.00  0.00     0.331 A 
HETATM   12  O3  UNL     1      30.798  17.638  61.889  1.00  0.00    -0.246 OA
HETATM   13  N4  UNL     1      28.677  17.439  62.588  1.00  0.00    -0.284 N 
HETATM   14  C11 UNL     1      27.524  17.974  63.025  1.00  0.00     0.148 A 
HETATM   15  N7  UNL     1      26.447  17.239  63.328  1.00  0.00    -0.175 N 
ATOM     16  H7  UNL     1      26.475  16.224  63.231  1.00  0.00     0.186 HD
ENDROOT
BRANCH  13  17
HETATM   17  C6  UNL     1      28.826  16.010  62.414  1.00  0.00     0.135 C 
BRANCH  17  18
HETATM   18  C7  UNL     1      28.205  15.595  61.090  1.00  0.00     0.020 C 
BRANCH  18  19
HETATM   19  C8  UNL     1      27.334  14.397  61.203  1.00  0.00     0.005 C 
BRANCH  19  20
HETATM   20  C9  UNL     1      26.176  14.392  60.242  1.00  0.00     0.062 C 
BRANCH  20  21
HETATM   21  C10 UNL     1      24.972  15.062  60.867  1.00  0.00     0.378 C 
BRANCH  21  22
HETATM   22  N5  UNL     1      24.815  16.387  60.323  1.00  0.00    -0.051 N 
ATOM     23  H53 UNL     1      25.062  16.428  59.334  1.00  0.00     0.276 HD
ATOM     24  H52 UNL     1      23.835  16.655  60.241  1.00  0.00     0.276 HD
ATOM     25  H51 UNL     1      25.349  17.053  60.881  1.00  0.00     0.276 HD
ENDBRANCH  21  22
BRANCH  21  26
HETATM   26  N6  UNL     1      23.751  14.337  60.641  1.00  0.00    -0.051 N 
ATOM     27  H63 UNL     1      23.799  13.804  59.772  1.00  0.00     0.276 HD
ATOM     28  H62 UNL     1      23.656  13.567  61.302  1.00  0.00     0.276 HD
ATOM     29  H61 UNL     1      22.926  14.937  60.657  1.00  0.00     0.276 HD
ENDBRANCH  21  26
ENDBRANCH  20  21
ENDBRANCH  19  20
ENDBRANCH  18  19
ENDBRANCH  17  18
ENDBRANCH  13  17
BRANCH   1  30
HETATM   30  N1  UNL     1      24.326  17.125  64.043  1.00  0.00    -0.234 N 
ATOM     31  H12 UNL     1      23.396  17.521  63.905  1.00  0.00     0.174 HD
ATOM     32  H11 UNL     1      24.478  16.180  64.395  1.00  0.00     0.174 HD
ENDBRANCH   1  30
TORSDOF 8
ENDMDL
MODEL 2
REMARK VINA RESULT: -7.007403551      1.338      1.628
REMARK  8 active torsions:
REMARK  status: ('A' for Active; 'I' for Inactive)
REMARK    1  A    between atoms: N1_1  and  C1_4 
REMARK    2  A    between atoms: N4_16  and  C6_17 
REMARK    3  A    between atoms: C6_17  and  C7_18 
REMARK    4  A    between atoms: C7_18  and  C8_19 
REMARK    5  A    between atoms: C8_19  and  C9_20 
REMARK    6  A    between atoms: C9_20  and  C10_21 
REMARK    7  A    between atoms: C10_21  and  N5_22 
REMARK    8  A    between atoms: C10_21  and  N6_26 
ROOT
HETATM    1  C1  UNL     1      25.199  18.062  64.080  1.00  0.00     0.680 A 
HETATM    2  N2  UNL     1      25.219  19.407  64.163  1.00  0.00    -0.155 N 
ATOM      3  H2  UNL     1      24.407  19.903  64.530  1.00  0.00     0.187 HD
HETATM    4  C2  UNL     1      26.314  20.110  63.759  1.00  0.00     0.279 A 
HETATM    5  O1  UNL     1      26.347  21.368  63.829  1.00  0.00    -0.266 OA
HETATM    6  C3  UNL     1      27.380  19.385  63.270  1.00  0.00     0.145 A 
HETATM    7  C4  UNL     1      28.509  20.057  62.854  1.00  0.00     0.269 A 
HETATM    8  O2  UNL     1      28.519  21.310  62.935  1.00  0.00    -0.267 OA
HETATM    9  N3  UNL     1      29.554  19.342  62.378  1.00  0.00    -0.274 N 
ATOM     10  H3  UNL     1      30.392  19.835  62.069  1.00  0.00     0.173 HD
HETATM   11  C5  UNL     1      29.523  18.008  62.301  1.00  0.00     0.331 A 
HETATM   12  O3  UNL     1      30.487  17.336  61.862  1.00  0.00    -0.246 OA
HETATM   13  N4  UNL     1      28.412  17.339  62.710  1.00  0.00    -0.284 N 
HETATM   14  C11 UNL     1      27.336  17.983  63.193  1.00  0.00     0.148 A 
HETATM   15  N7  UNL     1      26.231  17.350  63.606  1.00  0.00    -0.175 N 
ATOM     16  H7  UNL     1      26.175  16.333  63.560  1.00  0.00     0.186 HD
ENDROOT
BRANCH  13  17
HETATM   17  C6  UNL     1      28.440  15.895  62.602  1.00  0.00     0.135 C 
BRANCH  17  18
HETATM   18  C7  UNL     1      28.190  15.493  61.157  1.00  0.00     0.020 C 
BRANCH  18  19
HETATM   19  C8  UNL     1      26.760  15.210  60.868  1.00  0.00     0.005 C 
BRANCH  19  20
HETATM   20  C9  UNL     1      26.043  16.337  60.176  1.00  0.00     0.062 C 
BRANCH  20  21
HETATM   21  C10 UNL     1      26.964  17.014  59.183  1.00  0.00     0.378 C 
BRANCH  21  22
HETATM   22  N5  UNL     1      26.361  17.002  57.874  1.00  0.00    -0.051 N 
ATOM     23  H53 UNL     1      26.786  16.305  57.262  1.00  0.00     0.276 HD
ATOM     24  H52 UNL     1      25.414  16.626  57.891  1.00  0.00     0.276 HD
ATOM     25  H51 UNL     1      26.395  17.938  57.471  1.00  0.00     0.276 HD
ENDBRANCH  21  22
BRANCH  21  26
HETATM   26  N6  UNL     1      27.252  18.378  59.531  1.00  0.00    -0.051 N 
ATOM     27  H63 UNL     1      28.153  18.669  59.153  1.00  0.00     0.276 HD
ATOM     28  H62 UNL     1      26.644  19.021  59.023  1.00  0.00     0.276 HD
ATOM     29  H61 UNL     1      27.204  18.548  60.536  1.00  0.00     0.276 HD
ENDBRANCH  21  26
ENDBRANCH  20  21
ENDBRANCH  19  20
ENDBRANCH  18  19
ENDBRANCH  17  18
ENDBRANCH  13  17
BRANCH   1  30
HETATM   30  N1  UNL     1      24.163  17.438  64.465  1.00  0.00    -0.234 N 
ATOM     31  H12 UNL     1      23.394  17.977  64.865  1.00  0.00     0.174 HD
ATOM     32  H11 UNL     1      24.132  16.423  64.363  1.00  0.00     0.174 HD
ENDBRANCH   1  30
TORSDOF 8
ENDMDL
MODEL 3
REMARK VINA RESULT: -6.964586573      1.211      1.300
REMARK  8 active torsions:
REMARK  status: ('A' for Active; 'I' for Inactive)
REMARK    1  A    between atoms: N1_1  and  C1_4 
REMARK    2  A    between atoms: N4_16  and  C6_17 
REMARK    3  A    between atoms: C6_17  and  C7_18 
REMARK    4  A    between atoms: C7_18  and  C8_19 
REMARK    5  A    between atoms: C8_19  and  C9_20 
REMARK    6  A    between atoms: C9_20  and  C10_21 
REMARK    7  A    between atoms: C10_21  and  N5_22 
REMARK    8  A    between atoms: C10_21  and  N6_26 
ROOT
HETATM    1  C1  UNL     1      24.450  18.271  64.004  1.00  0.00     0.680 A 
HETATM    2  N2  UNL     1      24.445  19.492  64.574  1.00  0.00    -0.155 N 
ATOM      3  H2  UNL     1      23.633  19.796  65.111  1.00  0.00     0.187 HD
HETATM    4  C2  UNL     1      25.515  20.324  64.438  1.00  0.00     0.279 A 
HETATM    5  O1  UNL     1      25.524  21.470  64.964  1.00  0.00    -0.266 OA
HETATM    6  C3  UNL     1      26.583  19.858  63.701  1.00  0.00     0.145 A 
HETATM    7  C4  UNL     1      27.688  20.667  63.542  1.00  0.00     0.269 A 
HETATM    8  O2  UNL     1      27.674  21.804  64.076  1.00  0.00    -0.267 OA
HETATM    9  N3  UNL     1      28.735  20.205  62.820  1.00  0.00    -0.274 N 
ATOM     10  H3  UNL     1      29.554  20.801  62.700  1.00  0.00     0.173 HD
HETATM   11  C5  UNL     1      28.728  18.992  62.260  1.00  0.00     0.331 A 
HETATM   12  O3  UNL     1      29.694  18.555  61.590  1.00  0.00    -0.246 OA
HETATM   13  N4  UNL     1      27.641  18.189  62.413  1.00  0.00    -0.284 N 
HETATM   14  C11 UNL     1      26.565  18.581  63.116  1.00  0.00     0.148 A 
HETATM   15  N7  UNL     1      25.484  17.810  63.286  1.00  0.00    -0.175 N 
ATOM     16  H7  UNL     1      25.447  16.879  62.871  1.00  0.00     0.186 HD
ENDROOT
BRANCH  13  17
HETATM   17  C6  UNL     1      27.696  16.887  61.783  1.00  0.00     0.135 C 
BRANCH  17  18
HETATM   18  C7  UNL     1      27.315  17.019  60.316  1.00  0.00     0.020 C 
BRANCH  18  19
HETATM   19  C8  UNL     1      26.265  16.055  59.897  1.00  0.00     0.005 C 
BRANCH  19  20
HETATM   20  C9  UNL     1      25.748  15.191  61.015  1.00  0.00     0.062 C 
BRANCH  20  21
HETATM   21  C10 UNL     1      24.245  15.328  61.133  1.00  0.00     0.378 C 
BRANCH  21  22
HETATM   22  N5  UNL     1      23.819  16.560  60.522  1.00  0.00    -0.051 N 
ATOM     23  H53 UNL     1      24.310  17.369  60.904  1.00  0.00     0.276 HD
ATOM     24  H52 UNL     1      24.135  16.639  59.555  1.00  0.00     0.276 HD
ATOM     25  H51 UNL     1      22.806  16.652  60.603  1.00  0.00     0.276 HD
ENDBRANCH  21  22
BRANCH  21  26
HETATM   26  N6  UNL     1      23.537  14.246  60.504  1.00  0.00    -0.051 N 
ATOM     27  H63 UNL     1      23.735  14.213  59.504  1.00  0.00     0.276 HD
ATOM     28  H62 UNL     1      23.927  13.345  60.780  1.00  0.00     0.276 HD
ATOM     29  H61 UNL     1      22.532  14.279  60.677  1.00  0.00     0.276 HD
ENDBRANCH  21  26
ENDBRANCH  20  21
ENDBRANCH  19  20
ENDBRANCH  18  19
ENDBRANCH  17  18
ENDBRANCH  13  17
BRANCH   1  30
HETATM   30  N1  UNL     1      23.437  17.520  64.150  1.00  0.00    -0.234 N 
ATOM     31  H12 UNL     1      23.331  16.724  63.521  1.00  0.00     0.174 HD
ATOM     32  H11 UNL     1      22.766  17.734  64.888  1.00  0.00     0.174 HD
ENDBRANCH   1  30
TORSDOF 8
ENDMDL
MODEL 4
REMARK VINA RESULT: -6.817527664      2.622      3.993
REMARK  8 active torsions:
REMARK  status: ('A' for Active; 'I' for Inactive)
REMARK    1  A    between atoms: N1_1  and  C1_4 
REMARK    2  A    between atoms: N4_16  and  C6_17 
REMARK    3  A    between atoms: C6_17  and  C7_18 
REMARK    4  A    between atoms: C7_18  and  C8_19 
REMARK    5  A    between atoms: C8_19  and  C9_20 
REMARK    6  A    between atoms: C9_20  and  C10_21 
REMARK    7  A    between atoms: C10_21  and  N5_22 
REMARK    8  A    between atoms: C10_21  and  N6_26 
ROOT
HETATM    1  C1  UNL     1      27.255  20.721  64.355  1.00  0.00     0.680 A 
HETATM    2  N2  UNL     1      26.452  21.205  65.322  1.00  0.00    -0.155 N 
ATOM      3  H2  UNL     1      26.725  22.044  65.834  1.00  0.00     0.187 HD
HETATM    4  C2  UNL     1      25.278  20.583  65.623  1.00  0.00     0.279 A 
HETATM    5  O1  UNL     1      24.516  21.023  66.526  1.00  0.00    -0.266 OA
HETATM    6  C3  UNL     1      24.963  19.453  64.898  1.00  0.00     0.145 A 
HETATM    7  C4  UNL     1      23.782  18.794  65.169  1.00  0.00     0.269 A 
HETATM    8  O2  UNL     1      23.039  19.252  66.072  1.00  0.00    -0.267 OA
HETATM    9  N3  UNL     1      23.475  17.688  64.453  1.00  0.00    -0.274 N 
ATOM     10  H3  UNL     1      22.603  17.197  64.650  1.00  0.00     0.173 HD
HETATM   11  C5  UNL     1      24.281  17.217  63.497  1.00  0.00     0.331 A 
HETATM   12  O3  UNL     1      24.005  16.193  62.828  1.00  0.00    -0.246 OA
HETATM   13  N4  UNL     1      25.447  17.862  63.225  1.00  0.00    -0.284 N 
HETATM   14  C11 UNL     1      25.817  18.967  63.895  1.00  0.00     0.148 A 
HETATM   15  N7  UNL     1      26.957  19.623  63.647  1.00  0.00    -0.175 N 
ATOM     16  H7  UNL     1      27.594  19.290  62.923  1.00  0.00     0.186 HD
ENDROOT
BRANCH  13  17
HETATM   17  C6  UNL     1      26.275  17.303  62.177  1.00  0.00     0.135 C 
BRANCH  17  18
HETATM   18  C7  UNL     1      27.197  16.249  62.771  1.00  0.00     0.020 C 
BRANCH  18  19
HETATM   19  C8  UNL     1      27.719  15.294  61.759  1.00  0.00     0.005 C 
BRANCH  19  20
HETATM   20  C9  UNL     1      26.881  14.055  61.600  1.00  0.00     0.062 C 
BRANCH  20  21
HETATM   21  C10 UNL     1      26.132  14.091  60.285  1.00  0.00     0.378 C 
BRANCH  21  22
HETATM   22  N5  UNL     1      24.736  14.351  60.527  1.00  0.00    -0.051 N 
ATOM     23  H53 UNL     1      24.337  13.702  61.206  1.00  0.00     0.276 HD
ATOM     24  H52 UNL     1      24.590  15.216  61.046  1.00  0.00     0.276 HD
ATOM     25  H51 UNL     1      24.227  14.343  59.643  1.00  0.00     0.276 HD
ENDBRANCH  21  22
BRANCH  21  26
HETATM   26  N6  UNL     1      26.628  15.102  59.391  1.00  0.00    -0.051 N 
ATOM     27  H63 UNL     1      26.795  15.978  59.886  1.00  0.00     0.276 HD
ATOM     28  H62 UNL     1      27.582  14.893  59.097  1.00  0.00     0.276 HD
ATOM     29  H61 UNL     1      26.021  15.248  58.584  1.00  0.00     0.276 HD
ENDBRANCH  21  26
ENDBRANCH  20  21
ENDBRANCH  19  20
ENDBRANCH  18  19
ENDBRANCH  17  18
ENDBRANCH  13  17
BRANCH   1  30
HETATM   30  N1  UNL     1      28.343  21.325  64.100  1.00  0.00    -0.234 N 
ATOM     31  H12 UNL     1      28.417  21.835  63.219  1.00  0.00     0.174 HD
ATOM     32  H11 UNL     1      29.102  21.283  64.779  1.00  0.00     0.174 HD
ENDBRANCH   1  30
TORSDOF 8
ENDMDL
MODEL 5
REMARK VINA RESULT: -6.779897014      1.772      2.457
REMARK  8 active torsions:
REMARK  status: ('A' for Active; 'I' for Inactive)
REMARK    1  A    between atoms: N1_1  and  C1_4 
REMARK    2  A    between atoms: N4_16  and  C6_17 
REMARK    3  A    between atoms: C6_17  and  C7_18 
REMARK    4  A    between atoms: C7_18  and  C8_19 
REMARK    5  A    between atoms: C8_19  and  C9_20 
REMARK    6  A    between atoms: C9_20  and  C10_21 
REMARK    7  A    between atoms: C10_21  and  N5_22 
REMARK    8  A    between atoms: C10_21  and  N6_26 
ROOT
HETATM    1  C1  UNL     1      24.188  17.559  63.811  1.00  0.00     0.680 A 
HETATM    2  N2  UNL     1      23.616  18.453  64.641  1.00  0.00    -0.155 N 
ATOM      3  H2  UNL     1      22.681  18.276  65.008  1.00  0.00     0.187 HD
HETATM    4  C2  UNL     1      24.276  19.591  64.995  1.00  0.00     0.279 A 
HETATM    5  O1  UNL     1      23.754  20.436  65.771  1.00  0.00    -0.266 OA
HETATM    6  C3  UNL     1      25.537  19.774  64.467  1.00  0.00     0.145 A 
HETATM    7  C4  UNL     1      26.241  20.911  64.803  1.00  0.00     0.269 A 
HETATM    8  O2  UNL     1      25.700  21.739  65.577  1.00  0.00    -0.267 OA
HETATM    9  N3  UNL     1      27.479  21.087  64.285  1.00  0.00    -0.274 N 
ATOM     10  H3  UNL     1      28.003  21.927  64.530  1.00  0.00     0.173 HD
HETATM   11  C5  UNL     1      28.035  20.193  63.462  1.00  0.00     0.331 A 
HETATM   12  O3  UNL     1      29.182  20.347  62.978  1.00  0.00    -0.246 OA
HETATM   13  N4  UNL     1      27.346  19.070  63.127  1.00  0.00    -0.284 N 
HETATM   14  C11 UNL     1      26.112  18.828  63.603  1.00  0.00     0.148 A 
HETATM   15  N7  UNL     1      25.412  17.730  63.293  1.00  0.00    -0.175 N 
ATOM     16  H7  UNL     1      25.808  17.029  62.668  1.00  0.00     0.186 HD
ENDROOT
BRANCH  13  17
HETATM   17  C6  UNL     1      28.003  18.141  62.233  1.00  0.00     0.135 C 
BRANCH  17  18
HETATM   18  C7  UNL     1      27.729  18.546  60.793  1.00  0.00     0.020 C 
BRANCH  18  19
HETATM   19  C8  UNL     1      27.212  17.429  59.960  1.00  0.00     0.005 C 
BRANCH  19  20
HETATM   20  C9  UNL     1      27.251  16.090  60.644  1.00  0.00     0.062 C 
BRANCH  20  21
HETATM   21  C10 UNL     1      25.861  15.494  60.713  1.00  0.00     0.378 C 
BRANCH  21  22
HETATM   22  N5  UNL     1      24.912  16.404  60.127  1.00  0.00    -0.051 N 
ATOM     23  H53 UNL     1      25.087  16.556  59.134  1.00  0.00     0.276 HD
ATOM     24  H52 UNL     1      23.982  15.993  60.052  1.00  0.00     0.276 HD
ATOM     25  H51 UNL     1      24.903  17.279  60.653  1.00  0.00     0.276 HD
ENDBRANCH  21  22
BRANCH  21  26
HETATM   26  N6  UNL     1      25.760  14.236  60.025  1.00  0.00    -0.051 N 
ATOM     27  H63 UNL     1      25.950  13.458  60.656  1.00  0.00     0.276 HD
ATOM     28  H62 UNL     1      24.791  14.026  59.789  1.00  0.00     0.276 HD
ATOM     29  H61 UNL     1      26.356  14.189  59.198  1.00  0.00     0.276 HD
ENDBRANCH  21  26
ENDBRANCH  20  21
ENDBRANCH  19  20
ENDBRANCH  18  19
ENDBRANCH  17  18
ENDBRANCH  13  17
BRANCH   1  30
HETATM   30  N1  UNL     1      23.545  16.508  63.501  1.00  0.00    -0.234 N 
ATOM     31  H12 UNL     1      22.616  16.613  63.092  1.00  0.00     0.174 HD
ATOM     32  H11 UNL     1      23.976  15.599  63.670  1.00  0.00     0.174 HD
ENDBRANCH   1  30
TORSDOF 8
ENDMDL
