MODEL 1
REMARK VINA RESULT: -6.679841100      0.000      0.000
REMARK  9 active torsions:
REMARK  status: ('A' for Active; 'I' for Inactive)
REMARK    1  A    between atoms: N1_2  and  C2_4 
REMARK    2  A    between atoms: C3_7  and  N3_8 
REMARK    3  A    between atoms: N3_8  and  C4_10 
REMARK    4  A    between atoms: C4_10  and  C5_11 
REMARK    5  A    between atoms: C5_11  and  C6_12 
REMARK    6  A    between atoms: C6_12  and  O1_13 
REMARK    7  A    between atoms: N6_23  and  C10_24 
REMARK    8  A    between atoms: C10_24  and  C11_25 
REMARK    9  A    between atoms: C11_25  and  O3_26 
ROOT
HETATM    1  C2  UNL     1      27.876  18.251  61.714  1.00  0.00     0.147 A 
HETATM    2  N2  UNL     1      27.240  19.151  62.527  1.00  0.00    -0.175 N 
ATOM      3  H2  UNL     1      27.764  19.960  62.860  1.00  0.00     0.186 HD
HETATM    4  C3  UNL     1      25.976  19.019  62.903  1.00  0.00     0.681 A 
HETATM    5  N4  UNL     1      25.312  17.943  62.450  1.00  0.00    -0.174 N 
ATOM      6  H4  UNL     1      24.338  17.830  62.733  1.00  0.00     0.186 HD
HETATM    7  C7  UNL     1      25.842  17.007  61.651  1.00  0.00     0.158 A 
HETATM    8  C8  UNL     1      27.167  17.157  61.266  1.00  0.00     0.126 A 
HETATM    9  N5  UNL     1      27.492  16.110  60.471  1.00  0.00    -0.302 N 
ATOM     10  H5  UNL     1      28.399  15.945  60.035  1.00  0.00     0.171 HD
HETATM   11  C9  UNL     1      26.392  15.317  60.359  1.00  0.00     0.328 A 
HETATM   12  O2  UNL     1      26.399  14.262  59.676  1.00  0.00    -0.246 OA
HETATM   13  N6  UNL     1      25.411  15.873  61.076  1.00  0.00    -0.281 N 
ENDROOT
BRANCH   4  14
HETATM   14  N3  UNL     1      25.388  19.892  63.681  1.00  0.00    -0.226 N 
ATOM     15  H3  UNL     1      24.622  20.472  63.340  1.00  0.00     0.177 HD
BRANCH  14  16
HETATM   16  C4  UNL     1      25.860  20.006  65.032  1.00  0.00     0.140 C 
BRANCH  16  17
HETATM   17  C5  UNL     1      24.638  20.310  65.902  1.00  0.00     0.046 C 
BRANCH  17  18
HETATM   18  C6  UNL     1      23.627  19.229  65.629  1.00  0.00     0.165 C 
BRANCH  18  19
HETATM   19  O1  UNL     1      22.573  19.784  64.904  1.00  0.00    -0.401 OA
ATOM     20  H1  UNL     1      22.729  19.627  63.981  1.00  0.00     0.209 HD
ENDBRANCH  18  19
ENDBRANCH  17  18
ENDBRANCH  16  17
ENDBRANCH  14  16
ENDBRANCH   4  14
BRANCH   1  21
HETATM   21  N1  UNL     1      29.075  18.516  61.449  1.00  0.00    -0.378 N 
HETATM   22  C1  UNL     1      30.268  18.522  62.187  1.00  0.00     0.147 C 
ATOM     23  H1  UNL     1      29.212  18.790  60.476  1.00  0.00     0.160 HD
ENDBRANCH   1  21
BRANCH  13  24
HETATM   24  C10 UNL     1      24.078  15.335  61.216  1.00  0.00     0.161 C 
BRANCH  24  25
HETATM   25  C11 UNL     1      24.003  14.277  62.294  1.00  0.00     0.184 C 
BRANCH  25  26
HETATM   26  O3  UNL     1      23.119  13.272  61.991  1.00  0.00    -0.399 OA
ATOM     27  H3  UNL     1      23.357  12.799  61.203  1.00  0.00     0.209 HD
ENDBRANCH  25  26
ENDBRANCH  24  25
ENDBRANCH  13  24
TORSDOF 9
ENDMDL
MODEL 2
REMARK VINA RESULT: -6.625673049      1.377      1.626
REMARK  9 active torsions:
REMARK  status: ('A' for Active; 'I' for Inactive)
REMARK    1  A    between atoms: N1_2  and  C2_4 
REMARK    2  A    between atoms: C3_7  and  N3_8 
REMARK    3  A    between atoms: N3_8  and  C4_10 
REMARK    4  A    between atoms: C4_10  and  C5_11 
REMARK    5  A    between atoms: C5_11  and  C6_12 
REMARK    6  A    between atoms: C6_12  and  O1_13 
REMARK    7  A    between atoms: N6_23  and  C10_24 
REMARK    8  A    between atoms: C10_24  and  C11_25 
REMARK    9  A    between atoms: C11_25  and  O3_26 
ROOT
HETATM    1  C2  UNL     1      27.894  18.254  61.703  1.00  0.00     0.147 A 
HETATM    2  N2  UNL     1      27.254  19.159  62.507  1.00  0.00    -0.175 N 
ATOM      3  H2  UNL     1      27.776  19.969  62.839  1.00  0.00     0.186 HD
HETATM    4  C3  UNL     1      25.987  19.031  62.874  1.00  0.00     0.681 A 
HETATM    5  N4  UNL     1      25.324  17.953  62.422  1.00  0.00    -0.174 N 
ATOM      6  H4  UNL     1      24.348  17.844  62.699  1.00  0.00     0.186 HD
HETATM    7  C7  UNL     1      25.859  17.012  61.632  1.00  0.00     0.158 A 
HETATM    8  C8  UNL     1      27.186  17.158  61.256  1.00  0.00     0.126 A 
HETATM    9  N5  UNL     1      27.515  16.106  60.469  1.00  0.00    -0.302 N 
ATOM     10  H5  UNL     1      28.425  15.938  60.040  1.00  0.00     0.171 HD
HETATM   11  C9  UNL     1      26.415  15.314  60.353  1.00  0.00     0.328 A 
HETATM   12  O2  UNL     1      26.425  14.256  59.676  1.00  0.00    -0.246 OA
HETATM   13  N6  UNL     1      25.430  15.876  61.060  1.00  0.00    -0.281 N 
ENDROOT
BRANCH   4  14
HETATM   14  N3  UNL     1      25.395  19.909  63.644  1.00  0.00    -0.226 N 
ATOM     15  H3  UNL     1      24.682  20.539  63.275  1.00  0.00     0.177 HD
BRANCH  14  16
HETATM   16  C4  UNL     1      25.784  19.956  65.024  1.00  0.00     0.140 C 
BRANCH  16  17
HETATM   17  C5  UNL     1      25.762  21.430  65.439  1.00  0.00     0.046 C 
BRANCH  17  18
HETATM   18  C6  UNL     1      27.025  22.053  64.906  1.00  0.00     0.165 C 
BRANCH  18  19
HETATM   19  O1  UNL     1      26.727  23.342  64.462  1.00  0.00    -0.401 OA
ATOM     20  H1  UNL     1      26.188  23.274  63.683  1.00  0.00     0.209 HD
ENDBRANCH  18  19
ENDBRANCH  17  18
ENDBRANCH  16  17
ENDBRANCH  14  16
ENDBRANCH   4  14
BRANCH   1  21
HETATM   21  N1  UNL     1      29.095  18.516  61.445  1.00  0.00    -0.378 N 
HETATM   22  C1  UNL     1      30.287  18.500  62.185  1.00  0.00     0.147 C 
ATOM     23  H1  UNL     1      29.236  18.806  60.477  1.00  0.00     0.160 HD
ENDBRANCH   1  21
BRANCH  13  24
HETATM   24  C10 UNL     1      24.095  15.341  61.193  1.00  0.00     0.161 C 
BRANCH  24  25
HETATM   25  C11 UNL     1      24.008  14.295  62.281  1.00  0.00     0.184 C 
BRANCH  25  26
HETATM   26  O3  UNL     1      23.125  13.288  61.982  1.00  0.00    -0.399 OA
ATOM     27  H3  UNL     1      22.219  13.548  62.097  1.00  0.00     0.209 HD
ENDBRANCH  25  26
ENDBRANCH  24  25
ENDBRANCH  13  24
TORSDOF 9
ENDMDL
MODEL 3
REMARK VINA RESULT: -6.463573791      2.570      6.028
REMARK  9 active torsions:
REMARK  status: ('A' for Active; 'I' for Inactive)
REMARK    1  A    between atoms: N1_2  and  C2_4 
REMARK    2  A    between atoms: C3_7  and  N3_8 
REMARK    3  A    between atoms: N3_8  and  C4_10 
REMARK    4  A    between atoms: C4_10  and  C5_11 
REMARK    5  A    between atoms: C5_11  and  C6_12 
REMARK    6  A    between atoms: C6_12  and  O1_13 
REMARK    7  A    between atoms: N6_23  and  C10_24 
REMARK    8  A    between atoms: C10_24  and  C11_25 
REMARK    9  A    between atoms: C11_25  and  O3_26 
ROOT
HETATM    1  C2  UNL     1      24.540  16.063  62.716  1.00  0.00     0.147 A 
HETATM    2  N2  UNL     1      25.844  15.748  62.445  1.00  0.00    -0.175 N 
ATOM      3  H2  UNL     1      26.038  14.902  61.909  1.00  0.00     0.186 HD
HETATM    4  C3  UNL     1      26.866  16.490  62.845  1.00  0.00     0.681 A 
HETATM    5  N4  UNL     1      26.580  17.598  63.548  1.00  0.00    -0.174 N 
ATOM      6  H4  UNL     1      27.359  18.177  63.862  1.00  0.00     0.186 HD
HETATM    7  C7  UNL     1      25.340  17.994  63.866  1.00  0.00     0.158 A 
HETATM    8  C8  UNL     1      24.280  17.207  63.441  1.00  0.00     0.126 A 
HETATM    9  N5  UNL     1      23.132  17.787  63.868  1.00  0.00    -0.302 N 
ATOM     10  H5  UNL     1      22.187  17.439  63.708  1.00  0.00     0.171 HD
HETATM   11  C9  UNL     1      23.467  18.917  64.548  1.00  0.00     0.328 A 
HETATM   12  O2  UNL     1      22.599  19.666  65.063  1.00  0.00    -0.246 OA
HETATM   13  N6  UNL     1      24.799  19.023  64.536  1.00  0.00    -0.281 N 
ENDROOT
BRANCH   4  14
HETATM   14  N3  UNL     1      28.106  16.169  62.573  1.00  0.00    -0.226 N 
ATOM     15  H3  UNL     1      28.339  15.613  61.750  1.00  0.00     0.177 HD
BRANCH  14  16
HETATM   16  C4  UNL     1      29.126  16.624  63.474  1.00  0.00     0.140 C 
BRANCH  16  17
HETATM   17  C5  UNL     1      30.331  17.018  62.614  1.00  0.00     0.046 C 
BRANCH  17  18
HETATM   18  C6  UNL     1      30.206  18.492  62.335  1.00  0.00     0.165 C 
BRANCH  18  19
HETATM   19  O1  UNL     1      29.405  18.661  61.205  1.00  0.00    -0.401 OA
ATOM     20  H1  UNL     1      29.305  19.591  61.045  1.00  0.00     0.209 HD
ENDBRANCH  18  19
ENDBRANCH  17  18
ENDBRANCH  16  17
ENDBRANCH  14  16
ENDBRANCH   4  14
BRANCH   1  21
HETATM   21  N1  UNL     1      23.685  15.259  62.268  1.00  0.00    -0.378 N 
HETATM   22  C1  UNL     1      23.650  13.872  62.065  1.00  0.00     0.147 C 
ATOM     23  H1  UNL     1      22.819  15.721  61.988  1.00  0.00     0.160 HD
ENDBRANCH   1  21
BRANCH  13  24
HETATM   24  C10 UNL     1      25.552  20.090  65.153  1.00  0.00     0.161 C 
BRANCH  24  25
HETATM   25  C11 UNL     1      25.935  21.163  64.159  1.00  0.00     0.184 C 
BRANCH  25  26
HETATM   26  O3  UNL     1      24.873  21.950  63.791  1.00  0.00    -0.399 OA
ATOM     27  H3  UNL     1      24.637  22.584  64.458  1.00  0.00     0.209 HD
ENDBRANCH  25  26
ENDBRANCH  24  25
ENDBRANCH  13  24
TORSDOF 9
ENDMDL
MODEL 4
REMARK VINA RESULT: -6.387527571      2.087      4.242
REMARK  9 active torsions:
REMARK  status: ('A' for Active; 'I' for Inactive)
REMARK    1  A    between atoms: N1_2  and  C2_4 
REMARK    2  A    between atoms: C3_7  and  N3_8 
REMARK    3  A    between atoms: N3_8  and  C4_10 
REMARK    4  A    between atoms: C4_10  and  C5_11 
REMARK    5  A    between atoms: C5_11  and  C6_12 
REMARK    6  A    between atoms: C6_12  and  O1_13 
REMARK    7  A    between atoms: N6_23  and  C10_24 
REMARK    8  A    between atoms: C10_24  and  C11_25 
REMARK    9  A    between atoms: C11_25  and  O3_26 
ROOT
HETATM    1  C2  UNL     1      24.609  17.937  63.348  1.00  0.00     0.147 A 
HETATM    2  N2  UNL     1      25.594  18.752  62.858  1.00  0.00    -0.175 N 
ATOM      3  H2  UNL     1      25.698  19.684  63.259  1.00  0.00     0.186 HD
HETATM    4  C3  UNL     1      26.420  18.386  61.888  1.00  0.00     0.681 A 
HETATM    5  N4  UNL     1      26.260  17.153  61.380  1.00  0.00    -0.174 N 
ATOM      6  H4  UNL     1      26.889  16.860  60.633  1.00  0.00     0.186 HD
HETATM    7  C7  UNL     1      25.328  16.281  61.790  1.00  0.00     0.158 A 
HETATM    8  C8  UNL     1      24.470  16.677  62.805  1.00  0.00     0.126 A 
HETATM    9  N5  UNL     1      23.620  15.653  63.057  1.00  0.00    -0.302 N 
ATOM     10  H5  UNL     1      22.874  15.649  63.753  1.00  0.00     0.171 HD
HETATM   11  C9  UNL     1      23.938  14.633  62.214  1.00  0.00     0.328 A 
HETATM   12  O2  UNL     1      23.310  13.544  62.221  1.00  0.00    -0.246 OA
HETATM   13  N6  UNL     1      24.967  15.030  61.460  1.00  0.00    -0.281 N 
ENDROOT
BRANCH   4  14
HETATM   14  N3  UNL     1      27.356  19.182  61.436  1.00  0.00    -0.226 N 
ATOM     15  H3  UNL     1      27.125  20.083  61.018  1.00  0.00     0.177 HD
BRANCH  14  16
HETATM   16  C4  UNL     1      28.717  18.742  61.548  1.00  0.00     0.140 C 
BRANCH  16  17
HETATM   17  C5  UNL     1      29.143  18.990  62.998  1.00  0.00     0.046 C 
BRANCH  17  18
HETATM   18  C6  UNL     1      29.700  20.387  63.057  1.00  0.00     0.165 C 
BRANCH  18  19
HETATM   19  O1  UNL     1      28.678  21.283  62.739  1.00  0.00    -0.401 OA
ATOM     20  H1  UNL     1      28.970  21.827  62.018  1.00  0.00     0.209 HD
ENDBRANCH  18  19
ENDBRANCH  17  18
ENDBRANCH  16  17
ENDBRANCH  14  16
ENDBRANCH   4  14
BRANCH   1  21
HETATM   21  N1  UNL     1      23.909  18.429  64.267  1.00  0.00    -0.378 N 
HETATM   22  C1  UNL     1      24.085  18.614  65.647  1.00  0.00     0.147 C 
ATOM     23  H1  UNL     1      23.007  18.772  63.935  1.00  0.00     0.160 HD
ENDBRANCH   1  21
BRANCH  13  24
HETATM   24  C10 UNL     1      25.603  14.233  60.438  1.00  0.00     0.161 C 
BRANCH  24  25
HETATM   25  C11 UNL     1      26.997  13.804  60.838  1.00  0.00     0.184 C 
BRANCH  25  26
HETATM   26  O3  UNL     1      27.965  14.674  60.403  1.00  0.00    -0.399 OA
ATOM     27  H3  UNL     1      28.721  14.699  60.977  1.00  0.00     0.209 HD
ENDBRANCH  25  26
ENDBRANCH  24  25
ENDBRANCH  13  24
TORSDOF 9
ENDMDL
MODEL 5
REMARK VINA RESULT: -6.378064001      2.351      5.106
REMARK  9 active torsions:
REMARK  status: ('A' for Active; 'I' for Inactive)
REMARK    1  A    between atoms: N1_2  and  C2_4 
REMARK    2  A    between atoms: C3_7  and  N3_8 
REMARK    3  A    between atoms: N3_8  and  C4_10 
REMARK    4  A    between atoms: C4_10  and  C5_11 
REMARK    5  A    between atoms: C5_11  and  C6_12 
REMARK    6  A    between atoms: C6_12  and  O1_13 
REMARK    7  A    between atoms: N6_23  and  C10_24 
REMARK    8  A    between atoms: C10_24  and  C11_25 
REMARK    9  A    between atoms: C11_25  and  O3_26 
ROOT
HETATM    1  C2  UNL     1      26.669  19.072  62.692  1.00  0.00     0.147 A 
HETATM    2  N2  UNL     1      28.022  19.269  62.623  1.00  0.00    -0.175 N 
ATOM      3  H2  UNL     1      28.419  20.084  63.093  1.00  0.00     0.186 HD
HETATM    4  C3  UNL     1      28.840  18.453  61.975  1.00  0.00     0.681 A 
HETATM    5  N4  UNL     1      28.289  17.390  61.367  1.00  0.00    -0.174 N 
ATOM      6  H4  UNL     1      28.909  16.754  60.864  1.00  0.00     0.186 HD
HETATM    7  C7  UNL     1      26.979  17.108  61.375  1.00  0.00     0.158 A 
HETATM    8  C8  UNL     1      26.134  17.972  62.056  1.00  0.00     0.126 A 
HETATM    9  N5  UNL     1      24.869  17.501  61.934  1.00  0.00    -0.302 N 
ATOM     10  H5  UNL     1      24.030  17.925  62.330  1.00  0.00     0.171 HD
HETATM   11  C9  UNL     1      24.920  16.363  61.190  1.00  0.00     0.328 A 
HETATM   12  O2  UNL     1      23.887  15.703  60.912  1.00  0.00    -0.246 OA
HETATM   13  N6  UNL     1      26.197  16.144  60.863  1.00  0.00    -0.281 N 
ENDROOT
BRANCH   4  14
HETATM   14  N3  UNL     1      30.132  18.661  61.924  1.00  0.00    -0.226 N 
ATOM     15  H3  UNL     1      30.541  19.263  61.209  1.00  0.00     0.177 HD
BRANCH  14  16
HETATM   16  C4  UNL     1      30.952  18.014  62.907  1.00  0.00     0.140 C 
BRANCH  16  17
HETATM   17  C5  UNL     1      31.826  17.004  62.158  1.00  0.00     0.046 C 
BRANCH  17  18
HETATM   18  C6  UNL     1      33.252  17.286  62.549  1.00  0.00     0.165 C 
BRANCH  18  19
HETATM   19  O1  UNL     1      34.093  16.622  61.655  1.00  0.00    -0.401 OA
ATOM     20  H1  UNL     1      34.943  16.518  62.065  1.00  0.00     0.209 HD
ENDBRANCH  18  19
ENDBRANCH  17  18
ENDBRANCH  16  17
ENDBRANCH  14  16
ENDBRANCH   4  14
BRANCH   1  21
HETATM   21  N1  UNL     1      26.029  19.935  63.343  1.00  0.00    -0.378 N 
HETATM   22  C1  UNL     1      25.606  20.048  64.676  1.00  0.00     0.147 C 
ATOM     23  H1  UNL     1      25.755  20.735  62.773  1.00  0.00     0.160 HD
ENDBRANCH   1  21
BRANCH  13  24
HETATM   24  C10 UNL     1      26.672  15.032  60.073  1.00  0.00     0.161 C 
BRANCH  24  25
HETATM   25  C11 UNL     1      26.925  13.803  60.918  1.00  0.00     0.184 C 
BRANCH  25  26
HETATM   26  O3  UNL     1      25.766  13.198  61.335  1.00  0.00    -0.399 OA
ATOM     27  H3  UNL     1      25.829  12.251  61.347  1.00  0.00     0.209 HD
ENDBRANCH  25  26
ENDBRANCH  24  25
ENDBRANCH  13  24
TORSDOF 9
ENDMDL
