MODEL 1
REMARK VINA RESULT: -6.802593037      0.000      0.000
REMARK  8 active torsions:
REMARK  status: ('A' for Active; 'I' for Inactive)
REMARK    1  A    between atoms: N1_1  and  C1_5 
REMARK    2  A    between atoms: C1_5  and  C2_6 
REMARK    3  A    between atoms: C1_5  and  N6_22 
REMARK    4  A    between atoms: C2_6  and  C3_7 
REMARK    5  A    between atoms: C3_7  and  C4_8 
REMARK    6  A    between atoms: C4_8  and  N2_9 
REMARK    7  A    between atoms: N2_9  and  C5_11 
REMARK    8  A    between atoms: N6_22  and  C8_24 
ROOT
HETATM    1  C3  UNL     1      26.642  16.922  59.412  1.00  0.00     0.024 C 
ENDROOT
BRANCH   1   2
HETATM    2  C2  UNL     1      27.064  15.482  59.622  1.00  0.00     0.055 C 
BRANCH   2   3
HETATM    3  C1  UNL     1      26.220  14.871  60.767  1.00  0.00     0.278 C 
BRANCH   3   4
HETATM    4  N1  UNL     1      27.065  13.946  61.449  1.00  0.00    -0.059 N 
ATOM      5  H13 UNL     1      28.007  14.303  61.608  1.00  0.00     0.276 HD
ATOM      6  H12 UNL     1      26.812  13.815  62.429  1.00  0.00     0.276 HD
ATOM      7  H11 UNL     1      27.047  13.081  60.910  1.00  0.00     0.276 HD
ENDBRANCH   3   4
BRANCH   3   8
HETATM    8  N6  UNL     1      25.011  14.337  60.268  1.00  0.00    -0.382 N 
ATOM      9  H6  UNL     1      24.971  13.797  59.404  1.00  0.00     0.156 HD
BRANCH   8  10
HETATM   10  C8  UNL     1      23.862  14.599  61.044  1.00  0.00     0.189 A 
HETATM   11  C9  UNL     1      23.799  13.951  62.376  1.00  0.00     0.157 A 
HETATM   12  N7  UNL     1      23.749  15.318  62.922  1.00  0.00    -0.357 N 
HETATM   13  C10 UNL     1      23.755  15.950  61.650  1.00  0.00     0.241 A 
ATOM     14  H7  UNL     1      23.720  15.682  63.874  1.00  0.00     0.162 HD
HETATM   15  O3  UNL     1      23.700  17.102  61.132  1.00  0.00    -0.271 OA
ENDBRANCH   8  10
ENDBRANCH   3   8
ENDBRANCH   2   3
ENDBRANCH   1   2
BRANCH   1  16
HETATM   16  C4  UNL     1      27.702  17.849  59.961  1.00  0.00     0.138 C 
BRANCH  16  17
HETATM   17  N2  UNL     1      27.151  18.711  60.983  1.00  0.00    -0.226 N 
ATOM     18  H2  UNL     1      27.070  19.702  60.756  1.00  0.00     0.177 HD
BRANCH  17  19
HETATM   19  C5  UNL     1      26.756  18.350  62.142  1.00  0.00     0.686 A 
HETATM   20  N3  UNL     1      27.457  17.431  62.821  1.00  0.00    -0.141 N 
HETATM   21  C6  UNL     1      27.100  16.997  64.052  1.00  0.00     0.342 A 
ATOM     22  H3  UNL     1      28.296  17.042  62.390  1.00  0.00     0.189 HD
HETATM   23  O1  UNL     1      27.769  16.132  64.677  1.00  0.00    -0.246 OA
HETATM   24  N4  UNL     1      25.997  17.505  64.628  1.00  0.00    -0.260 N 
HETATM   25  C7  UNL     1      25.274  18.429  63.969  1.00  0.00     0.342 A 
ATOM     26  H4  UNL     1      25.711  17.194  65.557  1.00  0.00     0.175 HD
HETATM   27  O2  UNL     1      24.245  18.878  64.548  1.00  0.00    -0.246 OA
HETATM   28  N5  UNL     1      25.660  18.846  62.728  1.00  0.00    -0.141 N 
ATOM     29  H5  UNL     1      25.104  19.548  62.239  1.00  0.00     0.189 HD
ENDBRANCH  17  19
ENDBRANCH  16  17
ENDBRANCH   1  16
TORSDOF 8
ENDMDL
MODEL 2
REMARK VINA RESULT: -6.710691153      2.308      3.051
REMARK  8 active torsions:
REMARK  status: ('A' for Active; 'I' for Inactive)
REMARK    1  A    between atoms: N1_1  and  C1_5 
REMARK    2  A    between atoms: C1_5  and  C2_6 
REMARK    3  A    between atoms: C1_5  and  N6_22 
REMARK    4  A    between atoms: C2_6  and  C3_7 
REMARK    5  A    between atoms: C3_7  and  C4_8 
REMARK    6  A    between atoms: C4_8  and  N2_9 
REMARK    7  A    between atoms: N2_9  and  C5_11 
REMARK    8  A    between atoms: N6_22  and  C8_24 
ROOT
HETATM    1  C3  UNL     1      27.885  15.853  62.180  1.00  0.00     0.024 C 
ENDROOT
BRANCH   1   2
HETATM    2  C2  UNL     1      27.492  16.374  60.813  1.00  0.00     0.055 C 
BRANCH   2   3
HETATM    3  C1  UNL     1      26.218  15.633  60.338  1.00  0.00     0.278 C 
BRANCH   3   4
HETATM    4  N1  UNL     1      26.569  14.944  59.140  1.00  0.00    -0.059 N 
ATOM      5  H13 UNL     1      26.298  15.443  58.293  1.00  0.00     0.276 HD
ATOM      6  H12 UNL     1      27.573  14.929  58.963  1.00  0.00     0.276 HD
ATOM      7  H11 UNL     1      26.158  14.013  59.207  1.00  0.00     0.276 HD
ENDBRANCH   3   4
BRANCH   3   8
HETATM    8  N6  UNL     1      25.129  16.527  60.230  1.00  0.00    -0.382 N 
ATOM      9  H6  UNL     1      25.168  17.362  59.645  1.00  0.00     0.156 HD
BRANCH   8  10
HETATM   10  C8  UNL     1      23.985  16.190  60.983  1.00  0.00     0.189 A 
HETATM   11  C9  UNL     1      23.823  14.758  61.337  1.00  0.00     0.157 A 
HETATM   12  N7  UNL     1      23.879  15.208  62.738  1.00  0.00    -0.357 N 
HETATM   13  C10 UNL     1      23.981  16.586  62.413  1.00  0.00     0.241 A 
ATOM     14  H7  UNL     1      23.853  14.707  63.626  1.00  0.00     0.162 HD
HETATM   15  O3  UNL     1      24.046  17.718  62.972  1.00  0.00    -0.271 OA
ENDBRANCH   8  10
ENDBRANCH   3   8
ENDBRANCH   2   3
ENDBRANCH   1   2
BRANCH   1  16
HETATM   16  C4  UNL     1      27.506  16.862  63.239  1.00  0.00     0.138 C 
BRANCH  16  17
HETATM   17  N2  UNL     1      27.296  18.167  62.654  1.00  0.00    -0.226 N 
ATOM     18  H2  UNL     1      27.259  18.215  61.636  1.00  0.00     0.177 HD
BRANCH  17  19
HETATM   19  C5  UNL     1      27.152  19.265  63.290  1.00  0.00     0.686 A 
HETATM   20  N3  UNL     1      25.919  19.734  63.524  1.00  0.00    -0.141 N 
HETATM   21  C6  UNL     1      25.687  20.890  64.189  1.00  0.00     0.342 A 
ATOM     22  H3  UNL     1      25.121  19.197  63.186  1.00  0.00     0.189 HD
HETATM   23  O1  UNL     1      24.521  21.319  64.401  1.00  0.00    -0.246 OA
HETATM   24  N4  UNL     1      26.733  21.604  64.640  1.00  0.00    -0.260 N 
HETATM   25  C7  UNL     1      27.982  21.156  64.418  1.00  0.00     0.342 A 
ATOM     26  H4  UNL     1      26.581  22.477  65.146  1.00  0.00     0.175 HD
HETATM   27  O2  UNL     1      28.934  21.860  64.859  1.00  0.00    -0.246 OA
HETATM   28  N5  UNL     1      28.183  19.987  63.744  1.00  0.00    -0.141 N 
ATOM     29  H5  UNL     1      29.135  19.658  63.584  1.00  0.00     0.189 HD
ENDBRANCH  17  19
ENDBRANCH  16  17
ENDBRANCH   1  16
TORSDOF 8
ENDMDL
MODEL 3
REMARK VINA RESULT: -6.705238143      1.960      2.096
REMARK  8 active torsions:
REMARK  status: ('A' for Active; 'I' for Inactive)
REMARK    1  A    between atoms: N1_1  and  C1_5 
REMARK    2  A    between atoms: C1_5  and  C2_6 
REMARK    3  A    between atoms: C1_5  and  N6_22 
REMARK    4  A    between atoms: C2_6  and  C3_7 
REMARK    5  A    between atoms: C3_7  and  C4_8 
REMARK    6  A    between atoms: C4_8  and  N2_9 
REMARK    7  A    between atoms: N2_9  and  C5_11 
REMARK    8  A    between atoms: N6_22  and  C8_24 
ROOT
HETATM    1  C3  UNL     1      26.988  16.981  59.911  1.00  0.00     0.024 C 
ENDROOT
BRANCH   1   2
HETATM    2  C2  UNL     1      27.085  15.481  59.722  1.00  0.00     0.055 C 
BRANCH   2   3
HETATM    3  C1  UNL     1      26.210  14.780  60.790  1.00  0.00     0.278 C 
BRANCH   3   4
HETATM    4  N1  UNL     1      26.995  13.717  61.328  1.00  0.00    -0.059 N 
ATOM      5  H13 UNL     1      27.136  12.949  60.673  1.00  0.00     0.276 HD
ATOM      6  H12 UNL     1      27.977  13.964  61.450  1.00  0.00     0.276 HD
ATOM      7  H11 UNL     1      26.542  13.429  62.195  1.00  0.00     0.276 HD
ENDBRANCH   3   4
BRANCH   3   8
HETATM    8  N6  UNL     1      24.963  14.401  60.245  1.00  0.00    -0.382 N 
ATOM      9  H6  UNL     1      24.881  13.967  59.326  1.00  0.00     0.156 HD
BRANCH   8  10
HETATM   10  C8  UNL     1      23.839  14.661  61.056  1.00  0.00     0.189 A 
HETATM   11  C9  UNL     1      23.789  13.963  62.364  1.00  0.00     0.157 A 
HETATM   12  N7  UNL     1      23.785  15.309  62.962  1.00  0.00    -0.357 N 
HETATM   13  C10 UNL     1      23.779  15.990  61.716  1.00  0.00     0.241 A 
ATOM     14  H7  UNL     1      23.786  15.636  63.929  1.00  0.00     0.162 HD
HETATM   15  O3  UNL     1      23.742  17.161  61.244  1.00  0.00    -0.271 OA
ENDBRANCH   8  10
ENDBRANCH   3   8
ENDBRANCH   2   3
ENDBRANCH   1   2
BRANCH   1  16
HETATM   16  C4  UNL     1      27.218  17.328  61.365  1.00  0.00     0.138 C 
BRANCH  16  17
HETATM   17  N2  UNL     1      26.397  18.451  61.760  1.00  0.00    -0.226 N 
ATOM     18  H2  UNL     1      25.488  18.540  61.307  1.00  0.00     0.177 HD
BRANCH  17  19
HETATM   19  C5  UNL     1      26.702  19.342  62.623  1.00  0.00     0.686 A 
HETATM   20  N3  UNL     1      27.972  19.762  62.715  1.00  0.00    -0.141 N 
HETATM   21  C6  UNL     1      28.371  20.701  63.605  1.00  0.00     0.342 A 
ATOM     22  H3  UNL     1      28.666  19.356  62.088  1.00  0.00     0.189 HD
HETATM   23  O1  UNL     1      29.569  21.085  63.680  1.00  0.00    -0.246 OA
HETATM   24  N4  UNL     1      27.463  21.242  64.434  1.00  0.00    -0.260 N 
HETATM   25  C7  UNL     1      26.181  20.838  64.363  1.00  0.00     0.342 A 
ATOM     26  H4  UNL     1      27.742  21.953  65.111  1.00  0.00     0.175 HD
HETATM   27  O2  UNL     1      25.362  21.373  65.162  1.00  0.00    -0.246 OA
HETATM   28  N5  UNL     1      25.809  19.889  63.455  1.00  0.00    -0.141 N 
ATOM     29  H5  UNL     1      24.834  19.593  63.410  1.00  0.00     0.189 HD
ENDBRANCH  17  19
ENDBRANCH  16  17
ENDBRANCH   1  16
TORSDOF 8
ENDMDL
MODEL 4
REMARK VINA RESULT: -6.680919485      2.193      3.818
REMARK  8 active torsions:
REMARK  status: ('A' for Active; 'I' for Inactive)
REMARK    1  A    between atoms: N1_1  and  C1_5 
REMARK    2  A    between atoms: C1_5  and  C2_6 
REMARK    3  A    between atoms: C1_5  and  N6_22 
REMARK    4  A    between atoms: C2_6  and  C3_7 
REMARK    5  A    between atoms: C3_7  and  C4_8 
REMARK    6  A    between atoms: C4_8  and  N2_9 
REMARK    7  A    between atoms: N2_9  and  C5_11 
REMARK    8  A    between atoms: N6_22  and  C8_24 
ROOT
HETATM    1  C3  UNL     1      23.703  16.923  62.917  1.00  0.00     0.024 C 
ENDROOT
BRANCH   1   2
HETATM    2  C2  UNL     1      23.916  16.551  61.464  1.00  0.00     0.055 C 
BRANCH   2   3
HETATM    3  C1  UNL     1      23.784  15.016  61.312  1.00  0.00     0.278 C 
BRANCH   3   4
HETATM    4  N1  UNL     1      23.634  14.486  62.628  1.00  0.00    -0.059 N 
ATOM      5  H13 UNL     1      22.761  14.761  63.076  1.00  0.00     0.276 HD
ATOM      6  H12 UNL     1      23.473  13.479  62.641  1.00  0.00     0.276 HD
ATOM      7  H11 UNL     1      24.462  14.768  63.153  1.00  0.00     0.276 HD
ENDBRANCH   3   4
BRANCH   3   8
HETATM    8  N6  UNL     1      24.862  14.492  60.564  1.00  0.00    -0.382 N 
ATOM      9  H6  UNL     1      24.719  13.919  59.732  1.00  0.00     0.156 HD
BRANCH   8  10
HETATM   10  C8  UNL     1      26.149  14.814  61.042  1.00  0.00     0.189 A 
HETATM   11  C9  UNL     1      27.113  13.693  61.160  1.00  0.00     0.157 A 
HETATM   12  N7  UNL     1      27.937  14.439  60.195  1.00  0.00    -0.357 N 
HETATM   13  C10 UNL     1      27.049  15.544  60.113  1.00  0.00     0.241 A 
ATOM     14  H7  UNL     1      28.830  14.235  59.744  1.00  0.00     0.162 HD
HETATM   15  O3  UNL     1      26.945  16.674  59.557  1.00  0.00    -0.271 OA
ENDBRANCH   8  10
ENDBRANCH   3   8
ENDBRANCH   2   3
ENDBRANCH   1   2
BRANCH   1  16
HETATM   16  C4  UNL     1      24.941  17.601  63.457  1.00  0.00     0.138 C 
BRANCH  16  17
HETATM   17  N2  UNL     1      25.756  18.116  62.380  1.00  0.00    -0.226 N 
ATOM     18  H2  UNL     1      25.376  18.038  61.436  1.00  0.00     0.177 HD
BRANCH  17  19
HETATM   19  C5  UNL     1      26.905  18.660  62.497  1.00  0.00     0.686 A 
HETATM   20  N3  UNL     1      27.014  19.844  63.117  1.00  0.00    -0.141 N 
HETATM   21  C6  UNL     1      28.197  20.482  63.278  1.00  0.00     0.342 A 
ATOM     22  H3  UNL     1      26.169  20.282  63.483  1.00  0.00     0.189 HD
HETATM   23  O1  UNL     1      28.283  21.595  63.862  1.00  0.00    -0.246 OA
HETATM   24  N4  UNL     1      29.316  19.911  62.801  1.00  0.00    -0.260 N 
HETATM   25  C7  UNL     1      29.235  18.723  62.173  1.00  0.00     0.342 A 
ATOM     26  H4  UNL     1      30.218  20.374  62.913  1.00  0.00     0.175 HD
HETATM   27  O2  UNL     1      30.312  18.225  61.740  1.00  0.00    -0.246 OA
HETATM   28  N5  UNL     1      28.028  18.105  62.026  1.00  0.00    -0.141 N 
ATOM     29  H5  UNL     1      27.981  17.204  61.551  1.00  0.00     0.189 HD
ENDBRANCH  17  19
ENDBRANCH  16  17
ENDBRANCH   1  16
TORSDOF 8
ENDMDL
MODEL 5
REMARK VINA RESULT: -6.656075715      2.195      4.728
REMARK  8 active torsions:
REMARK  status: ('A' for Active; 'I' for Inactive)
REMARK    1  A    between atoms: N1_1  and  C1_5 
REMARK    2  A    between atoms: C1_5  and  C2_6 
REMARK    3  A    between atoms: C1_5  and  N6_22 
REMARK    4  A    between atoms: C2_6  and  C3_7 
REMARK    5  A    between atoms: C3_7  and  C4_8 
REMARK    6  A    between atoms: C4_8  and  N2_9 
REMARK    7  A    between atoms: N2_9  and  C5_11 
REMARK    8  A    between atoms: N6_22  and  C8_24 
ROOT
HETATM    1  C3  UNL     1      27.613  17.883  60.248  1.00  0.00     0.024 C 
ENDROOT
BRANCH   1   2
HETATM    2  C2  UNL     1      28.243  17.372  61.527  1.00  0.00     0.055 C 
BRANCH   2   3
HETATM    3  C1  UNL     1      29.439  18.282  61.900  1.00  0.00     0.278 C 
BRANCH   3   4
HETATM    4  N1  UNL     1      30.353  17.474  62.640  1.00  0.00    -0.059 N 
ATOM      5  H13 UNL     1      30.048  17.294  63.596  1.00  0.00     0.276 HD
ATOM      6  H12 UNL     1      30.376  16.503  62.328  1.00  0.00     0.276 HD
ATOM      7  H11 UNL     1      31.260  17.936  62.587  1.00  0.00     0.276 HD
ENDBRANCH   3   4
BRANCH   3   8
HETATM    8  N6  UNL     1      28.992  19.452  62.555  1.00  0.00    -0.382 N 
ATOM      9  H6  UNL     1      29.306  20.382  62.279  1.00  0.00     0.156 HD
BRANCH   8  10
HETATM   10  C8  UNL     1      28.084  19.248  63.615  1.00  0.00     0.189 A 
HETATM   11  C9  UNL     1      28.419  19.893  64.908  1.00  0.00     0.157 A 
HETATM   12  N7  UNL     1      27.149  20.622  64.753  1.00  0.00    -0.357 N 
HETATM   13  C10 UNL     1      26.791  19.974  63.541  1.00  0.00     0.241 A 
ATOM     14  H7  UNL     1      26.690  21.339  65.315  1.00  0.00     0.162 HD
HETATM   15  O3  UNL     1      25.852  19.935  62.695  1.00  0.00    -0.271 OA
ENDBRANCH   8  10
ENDBRANCH   3   8
ENDBRANCH   2   3
ENDBRANCH   1   2
BRANCH   1  16
HETATM   16  C4  UNL     1      26.928  16.745  59.526  1.00  0.00     0.138 C 
BRANCH  16  17
HETATM   17  N2  UNL     1      25.499  16.787  59.741  1.00  0.00    -0.226 N 
ATOM     18  H2  UNL     1      24.930  17.169  58.985  1.00  0.00     0.177 HD
BRANCH  17  19
HETATM   19  C5  UNL     1      24.881  16.391  60.786  1.00  0.00     0.686 A 
HETATM   20  N3  UNL     1      24.542  17.283  61.728  1.00  0.00    -0.141 N 
HETATM   21  C6  UNL     1      23.887  16.939  62.862  1.00  0.00     0.342 A 
ATOM     22  H3  UNL     1      24.787  18.262  61.583  1.00  0.00     0.189 HD
HETATM   23  O1  UNL     1      23.576  17.789  63.739  1.00  0.00    -0.246 OA
HETATM   24  N4  UNL     1      23.558  15.651  63.060  1.00  0.00    -0.260 N 
HETATM   25  C7  UNL     1      23.888  14.735  62.131  1.00  0.00     0.342 A 
ATOM     26  H4  UNL     1      23.064  15.370  63.907  1.00  0.00     0.175 HD
HETATM   27  O2  UNL     1      23.560  13.538  62.360  1.00  0.00    -0.246 OA
HETATM   28  N5  UNL     1      24.547  15.113  60.998  1.00  0.00    -0.141 N 
ATOM     29  H5  UNL     1      24.790  14.409  60.300  1.00  0.00     0.189 HD
ENDBRANCH  17  19
ENDBRANCH  16  17
ENDBRANCH   1  16
TORSDOF 8
ENDMDL
