MODEL 1
REMARK VINA RESULT: -8.118434735      0.000      0.000
REMARK  4 active torsions:
REMARK  status: ('A' for Active; 'I' for Inactive)
REMARK    1  A    between atoms: C1_2  and  C2_4 
REMARK    2  A    between atoms: C4_11  and  C5_12 
REMARK    3  A    between atoms: C5_12  and  C6_13 
REMARK    4  A    between atoms: N4_14  and  C7_16 
ROOT
HETATM    1  C6  UNL     1      27.307  17.739  60.374  1.00  0.00     0.069 C 
HETATM    2  N4  UNL     1      26.085  17.139  60.412  1.00  0.00    -0.350 N 
ATOM      3  H4  UNL     1      25.468  17.658  59.787  1.00  0.00     0.166 HD
ENDROOT
BRANCH   1   4
HETATM    4  C5  UNL     1      28.377  17.295  61.367  1.00  0.00     0.104 C 
BRANCH   4   5
HETATM    5  C4  UNL     1      28.824  18.430  62.207  1.00  0.00     0.050 A 
HETATM    6  C2  UNL     1      29.941  18.515  62.991  1.00  0.00     0.125 A 
HETATM    7  N2  UNL     1      29.896  19.723  63.614  1.00  0.00    -0.303 N 
HETATM    8  C3  UNL     1      28.796  20.379  63.238  1.00  0.00     0.325 A 
ATOM      9  H2  UNL     1      30.595  20.074  64.269  1.00  0.00     0.171 HD
HETATM   10  O2  UNL     1      28.386  21.524  63.584  1.00  0.00    -0.247 OA
HETATM   11  N3  UNL     1      28.142  19.594  62.380  1.00  0.00    -0.310 N 
ATOM     12  H3  UNL     1      27.261  19.832  61.924  1.00  0.00     0.170 HD
BRANCH   6  13
HETATM   13  C1  UNL     1      31.016  17.569  63.172  1.00  0.00     0.283 C 
HETATM   14  N1  UNL     1      31.840  17.186  62.110  1.00  0.00    -0.056 NA
HETATM   15  O1  UNL     1      31.216  17.080  64.315  1.00  0.00    -0.269 OA
ENDBRANCH   6  13
ENDBRANCH   4   5
ENDBRANCH   1   4
BRANCH   2  16
HETATM   16  C7  UNL     1      25.420  16.208  60.907  1.00  0.00     0.189 A 
HETATM   17  N5  UNL     1      25.325  14.933  60.491  1.00  0.00    -0.277 N 
HETATM   18  N6  UNL     1      24.571  14.016  61.112  1.00  0.00    -0.250 N 
ATOM     19  H5  UNL     1      25.851  14.651  59.664  1.00  0.00     0.189 HD
HETATM   20  C8  UNL     1      23.850  14.307  62.203  1.00  0.00     0.341 A 
ATOM     21  H6  UNL     1      24.544  13.066  60.743  1.00  0.00     0.192 HD
HETATM   22  O3  UNL     1      23.143  13.428  62.778  1.00  0.00    -0.245 OA
HETATM   23  N7  UNL     1      23.907  15.566  62.664  1.00  0.00    -0.271 N 
HETATM   24  C9  UNL     1      24.651  16.496  62.062  1.00  0.00     0.294 A 
ATOM     25  H7  UNL     1      23.369  15.818  63.493  1.00  0.00     0.174 HD
HETATM   26  O4  UNL     1      24.694  17.669  62.504  1.00  0.00    -0.264 OA
ENDBRANCH   2  16
TORSDOF 4
ENDMDL
MODEL 2
REMARK VINA RESULT: -8.092780595      2.194      2.210
REMARK  4 active torsions:
REMARK  status: ('A' for Active; 'I' for Inactive)
REMARK    1  A    between atoms: C1_2  and  C2_4 
REMARK    2  A    between atoms: C4_11  and  C5_12 
REMARK    3  A    between atoms: C5_12  and  C6_13 
REMARK    4  A    between atoms: N4_14  and  C7_16 
ROOT
HETATM    1  C6  UNL     1      26.974  17.441  59.672  1.00  0.00     0.069 C 
HETATM    2  N4  UNL     1      25.860  16.668  59.804  1.00  0.00    -0.350 N 
ATOM      3  H4  UNL     1      25.262  16.851  58.997  1.00  0.00     0.166 HD
ENDROOT
BRANCH   1   4
HETATM    4  C5  UNL     1      27.956  17.522  60.837  1.00  0.00     0.104 C 
BRANCH   4   5
HETATM    5  C4  UNL     1      27.317  18.132  62.026  1.00  0.00     0.050 A 
HETATM    6  C2  UNL     1      27.163  17.594  63.275  1.00  0.00     0.125 A 
HETATM    7  N2  UNL     1      26.468  18.500  64.013  1.00  0.00    -0.303 N 
HETATM    8  C3  UNL     1      26.196  19.571  63.264  1.00  0.00     0.325 A 
ATOM      9  H2  UNL     1      26.197  18.380  64.989  1.00  0.00     0.171 HD
HETATM   10  O2  UNL     1      25.574  20.628  63.571  1.00  0.00    -0.247 OA
HETATM   11  N3  UNL     1      26.712  19.350  62.054  1.00  0.00    -0.310 N 
ATOM     12  H3  UNL     1      26.660  19.997  61.268  1.00  0.00     0.170 HD
BRANCH   6  13
HETATM   13  C1  UNL     1      27.625  16.330  63.798  1.00  0.00     0.283 C 
HETATM   14  N1  UNL     1      27.120  15.115  63.327  1.00  0.00    -0.056 NA
HETATM   15  O1  UNL     1      28.507  16.326  64.697  1.00  0.00    -0.269 OA
ENDBRANCH   6  13
ENDBRANCH   4   5
ENDBRANCH   1   4
BRANCH   2  16
HETATM   16  C7  UNL     1      25.279  15.827  60.517  1.00  0.00     0.189 A 
HETATM   17  N5  UNL     1      25.480  14.500  60.579  1.00  0.00    -0.277 N 
HETATM   18  N6  UNL     1      24.786  13.693  61.394  1.00  0.00    -0.250 N 
ATOM     19  H5  UNL     1      26.192  14.087  59.977  1.00  0.00     0.189 HD
HETATM   20  C8  UNL     1      23.835  14.157  62.214  1.00  0.00     0.341 A 
ATOM     21  H6  UNL     1      24.990  12.693  61.390  1.00  0.00     0.192 HD
HETATM   22  O3  UNL     1      23.190  13.381  62.978  1.00  0.00    -0.245 OA
HETATM   23  N7  UNL     1      23.592  15.477  62.196  1.00  0.00    -0.271 N 
HETATM   24  C9  UNL     1      24.269  16.299  61.392  1.00  0.00     0.294 A 
ATOM     25  H7  UNL     1      22.872  15.859  62.809  1.00  0.00     0.174 HD
HETATM   26  O4  UNL     1      24.031  17.530  61.385  1.00  0.00    -0.264 OA
ENDBRANCH   2  16
TORSDOF 4
ENDMDL
MODEL 3
REMARK VINA RESULT: -8.017820771      2.766      5.480
REMARK  4 active torsions:
REMARK  status: ('A' for Active; 'I' for Inactive)
REMARK    1  A    between atoms: C1_2  and  C2_4 
REMARK    2  A    between atoms: C4_11  and  C5_12 
REMARK    3  A    between atoms: C5_12  and  C6_13 
REMARK    4  A    between atoms: N4_14  and  C7_16 
ROOT
HETATM    1  C6  UNL     1      28.133  17.092  63.449  1.00  0.00     0.069 C 
HETATM    2  N4  UNL     1      27.407  17.985  64.177  1.00  0.00    -0.350 N 
ATOM      3  H4  UNL     1      28.066  18.600  64.656  1.00  0.00     0.166 HD
ENDROOT
BRANCH   1   4
HETATM    4  C5  UNL     1      27.412  15.923  62.785  1.00  0.00     0.104 C 
BRANCH   4   5
HETATM    5  C4  UNL     1      26.785  16.344  61.511  1.00  0.00     0.050 A 
HETATM    6  C2  UNL     1      25.453  16.413  61.205  1.00  0.00     0.125 A 
HETATM    7  N2  UNL     1      25.366  16.796  59.903  1.00  0.00    -0.303 N 
HETATM    8  C3  UNL     1      26.593  16.966  59.404  1.00  0.00     0.325 A 
ATOM      9  H2  UNL     1      24.497  16.933  59.387  1.00  0.00     0.171 HD
HETATM   10  O2  UNL     1      26.945  17.316  58.242  1.00  0.00    -0.247 OA
HETATM   11  N3  UNL     1      27.458  16.691  60.381  1.00  0.00    -0.310 N 
ATOM     12  H3  UNL     1      28.473  16.735  60.294  1.00  0.00     0.170 HD
BRANCH   6  13
HETATM   13  C1  UNL     1      24.301  16.164  62.038  1.00  0.00     0.283 C 
HETATM   14  N1  UNL     1      23.906  14.865  62.370  1.00  0.00    -0.056 NA
HETATM   15  O1  UNL     1      23.641  17.142  62.479  1.00  0.00    -0.269 OA
ENDBRANCH   6  13
ENDBRANCH   4   5
ENDBRANCH   1   4
BRANCH   2  16
HETATM   16  C7  UNL     1      26.257  18.351  64.491  1.00  0.00     0.189 A 
HETATM   17  N5  UNL     1      25.304  17.657  65.137  1.00  0.00    -0.277 N 
HETATM   18  N6  UNL     1      24.097  18.165  65.422  1.00  0.00    -0.250 N 
ATOM     19  H5  UNL     1      25.510  16.700  65.424  1.00  0.00     0.189 HD
HETATM   20  C8  UNL     1      23.750  19.412  65.079  1.00  0.00     0.341 A 
ATOM     21  H6  UNL     1      23.420  17.582  65.914  1.00  0.00     0.192 HD
HETATM   22  O3  UNL     1      22.605  19.876  65.356  1.00  0.00    -0.245 OA
HETATM   23  N7  UNL     1      24.664  20.152  64.432  1.00  0.00    -0.271 N 
HETATM   24  C9  UNL     1      25.872  19.668  64.139  1.00  0.00     0.294 A 
ATOM     25  H7  UNL     1      24.429  21.107  64.158  1.00  0.00     0.174 HD
HETATM   26  O4  UNL     1      26.716  20.371  63.533  1.00  0.00    -0.264 OA
ENDBRANCH   2  16
TORSDOF 4
ENDMDL
MODEL 4
REMARK VINA RESULT: -7.874489494      1.902      2.510
REMARK  4 active torsions:
REMARK  status: ('A' for Active; 'I' for Inactive)
REMARK    1  A    between atoms: C1_2  and  C2_4 
REMARK    2  A    between atoms: C4_11  and  C5_12 
REMARK    3  A    between atoms: C5_12  and  C6_13 
REMARK    4  A    between atoms: N4_14  and  C7_16 
ROOT
HETATM    1  C6  UNL     1      27.487  17.736  60.085  1.00  0.00     0.069 C 
HETATM    2  N4  UNL     1      26.243  17.184  60.145  1.00  0.00    -0.350 N 
ATOM      3  H4  UNL     1      25.701  17.562  59.368  1.00  0.00     0.166 HD
ENDROOT
BRANCH   1   4
HETATM    4  C5  UNL     1      28.454  17.503  61.242  1.00  0.00     0.104 C 
BRANCH   4   5
HETATM    5  C4  UNL     1      28.215  18.475  62.334  1.00  0.00     0.050 A 
HETATM    6  C2  UNL     1      27.543  18.280  63.509  1.00  0.00     0.125 A 
HETATM    7  N2  UNL     1      27.536  19.472  64.164  1.00  0.00    -0.303 N 
HETATM    8  C3  UNL     1      28.181  20.386  63.434  1.00  0.00     0.325 A 
ATOM      9  H2  UNL     1      27.104  19.643  65.072  1.00  0.00     0.171 HD
HETATM   10  O2  UNL     1      28.396  21.606  63.684  1.00  0.00    -0.247 OA
HETATM   11  N3  UNL     1      28.596  19.781  62.320  1.00  0.00    -0.310 N 
ATOM     12  H3  UNL     1      29.120  20.231  61.570  1.00  0.00     0.170 HD
BRANCH   6  13
HETATM   13  C1  UNL     1      26.941  17.080  64.039  1.00  0.00     0.283 C 
HETATM   14  N1  UNL     1      27.712  15.969  64.391  1.00  0.00    -0.056 NA
HETATM   15  O1  UNL     1      25.692  17.038  64.191  1.00  0.00    -0.269 OA
ENDBRANCH   6  13
ENDBRANCH   4   5
ENDBRANCH   1   4
BRANCH   2  16
HETATM   16  C7  UNL     1      25.504  16.400  60.771  1.00  0.00     0.189 A 
HETATM   17  N5  UNL     1      24.470  16.690  61.581  1.00  0.00    -0.277 N 
HETATM   18  N6  UNL     1      23.743  15.751  62.202  1.00  0.00    -0.250 N 
ATOM     19  H5  UNL     1      24.228  17.670  61.729  1.00  0.00     0.189 HD
HETATM   20  C8  UNL     1      23.997  14.443  62.060  1.00  0.00     0.341 A 
ATOM     21  H6  UNL     1      22.971  16.041  62.803  1.00  0.00     0.192 HD
HETATM   22  O3  UNL     1      23.300  13.570  62.654  1.00  0.00    -0.245 OA
HETATM   23  N7  UNL     1      25.018  14.095  61.262  1.00  0.00    -0.271 N 
HETATM   24  C9  UNL     1      25.756  15.013  60.633  1.00  0.00     0.294 A 
ATOM     25  H7  UNL     1      25.236  13.107  61.134  1.00  0.00     0.174 HD
HETATM   26  O4  UNL     1      26.708  14.673  59.891  1.00  0.00    -0.264 OA
ENDBRANCH   2  16
TORSDOF 4
ENDMDL
MODEL 5
REMARK VINA RESULT: -7.858432677      1.997      3.001
REMARK  4 active torsions:
REMARK  status: ('A' for Active; 'I' for Inactive)
REMARK    1  A    between atoms: C1_2  and  C2_4 
REMARK    2  A    between atoms: C4_11  and  C5_12 
REMARK    3  A    between atoms: C5_12  and  C6_13 
REMARK    4  A    between atoms: N4_14  and  C7_16 
ROOT
HETATM    1  C6  UNL     1      27.258  17.806  59.896  1.00  0.00     0.069 C 
HETATM    2  N4  UNL     1      26.310  16.829  59.875  1.00  0.00    -0.350 N 
ATOM      3  H4  UNL     1      26.171  16.556  58.901  1.00  0.00     0.166 HD
ENDROOT
BRANCH   1   4
HETATM    4  C5  UNL     1      27.526  18.545  61.204  1.00  0.00     0.104 C 
BRANCH   4   5
HETATM    5  C4  UNL     1      28.593  17.874  61.981  1.00  0.00     0.050 A 
HETATM    6  C2  UNL     1      28.459  16.941  62.973  1.00  0.00     0.125 A 
HETATM    7  N2  UNL     1      29.711  16.662  63.425  1.00  0.00    -0.303 N 
HETATM    8  C3  UNL     1      30.603  17.387  62.746  1.00  0.00     0.325 A 
ATOM      9  H2  UNL     1      29.934  16.002  64.170  1.00  0.00     0.171 HD
HETATM   10  O2  UNL     1      31.862  17.422  62.859  1.00  0.00    -0.247 OA
HETATM   11  N3  UNL     1      29.925  18.125  61.866  1.00  0.00    -0.310 N 
ATOM     12  H3  UNL     1      30.343  18.780  61.205  1.00  0.00     0.170 HD
BRANCH   6  13
HETATM   13  C1  UNL     1      27.269  16.309  63.490  1.00  0.00     0.283 C 
HETATM   14  N1  UNL     1      26.194  17.060  63.974  1.00  0.00    -0.056 NA
HETATM   15  O1  UNL     1      27.199  15.052  63.502  1.00  0.00    -0.269 OA
ENDBRANCH   6  13
ENDBRANCH   4   5
ENDBRANCH   1   4
BRANCH   2  16
HETATM   16  C7  UNL     1      25.544  16.134  60.571  1.00  0.00     0.189 A 
HETATM   17  N5  UNL     1      24.511  16.533  61.332  1.00  0.00    -0.277 N 
HETATM   18  N6  UNL     1      23.754  15.683  62.040  1.00  0.00    -0.250 N 
ATOM     19  H5  UNL     1      24.292  17.528  61.373  1.00  0.00     0.189 HD
HETATM   20  C8  UNL     1      23.975  14.362  62.039  1.00  0.00     0.341 A 
ATOM     21  H6  UNL     1      22.984  16.053  62.598  1.00  0.00     0.192 HD
HETATM   22  O3  UNL     1      23.250  13.573  62.714  1.00  0.00    -0.245 OA
HETATM   23  N7  UNL     1      24.995  13.906  61.296  1.00  0.00    -0.271 N 
HETATM   24  C9  UNL     1      25.762  14.734  60.583  1.00  0.00     0.294 A 
ATOM     25  H7  UNL     1      25.189  12.905  61.275  1.00  0.00     0.174 HD
HETATM   26  O4  UNL     1      26.713  14.294  59.892  1.00  0.00    -0.264 OA
ENDBRANCH   2  16
TORSDOF 4
ENDMDL
