MODEL 1
REMARK VINA RESULT: -7.696720317      0.000      0.000
REMARK  6 active torsions:
REMARK  status: ('A' for Active; 'I' for Inactive)
REMARK    1  A    between atoms: N3_4  and  C2_6 
REMARK    2  A    between atoms: C2_6  and  C3_7 
REMARK    3  A    between atoms: C3_7  and  C4_8 
REMARK    4  A    between atoms: C4_8  and  C5_9 
REMARK    5  A    between atoms: C9_19  and  C10_20 
REMARK    6  A    between atoms: C10_20  and  N6_21 
ROOT
HETATM    1  C5  UNL     1      28.241  15.872  61.897  1.00  0.00     0.176 C 
HETATM    2  N4  UNL     1      27.234  15.023  62.527  1.00  0.00    -0.346 N 
ATOM      3  H4  UNL     1      27.351  14.743  63.501  1.00  0.00     0.163 HD
HETATM    4  C6  UNL     1      26.102  14.584  61.810  1.00  0.00     0.236 C 
HETATM    5  O1  UNL     1      25.534  13.529  62.176  1.00  0.00    -0.272 OA
HETATM    6  C7  UNL     1      25.590  15.333  60.661  1.00  0.00     0.225 C 
HETATM    7  N5  UNL     1      24.797  16.488  61.032  1.00  0.00    -0.350 N 
ATOM      8  H5  UNL     1      24.298  16.949  60.271  1.00  0.00     0.163 HD
HETATM    9  C8  UNL     1      24.632  17.048  62.298  1.00  0.00     0.242 C 
HETATM   10  O2  UNL     1      23.426  17.218  62.708  1.00  0.00    -0.271 OA
HETATM   11  C9  UNL     1      25.695  17.478  63.240  1.00  0.00     0.194 C 
HETATM   12  N9  UNL     1      26.884  17.951  62.598  1.00  0.00    -0.344 N 
ATOM     13  H9  UNL     1      27.159  18.910  62.809  1.00  0.00     0.163 HD
HETATM   14  C12 UNL     1      27.716  17.250  61.712  1.00  0.00     0.241 C 
HETATM   15  O3  UNL     1      28.056  17.853  60.646  1.00  0.00    -0.271 OA
ENDROOT
BRANCH   1  16
HETATM   16  C4  UNL     1      29.487  15.947  62.733  1.00  0.00     0.036 C 
BRANCH  16  17
HETATM   17  C3  UNL     1      30.522  16.864  62.146  1.00  0.00     0.022 C 
BRANCH  17  18
HETATM   18  C2  UNL     1      30.906  18.007  63.042  1.00  0.00     0.122 C 
BRANCH  18  19
HETATM   19  N3  UNL     1      30.320  19.252  62.578  1.00  0.00    -0.367 N 
HETATM   20  C1  UNL     1      29.469  19.918  63.284  1.00  0.00     0.196 C 
HETATM   21  N1  UNL     1      28.917  21.127  62.804  1.00  0.00    -0.067 NA
HETATM   22  N2  UNL     1      29.107  19.391  64.554  1.00  0.00    -0.067 NA
ATOM     23  H3  UNL     1      30.591  19.613  61.663  1.00  0.00     0.161 HD
ENDBRANCH  18  19
ENDBRANCH  17  18
ENDBRANCH  16  17
ENDBRANCH   1  16
BRANCH  11  24
HETATM   24  C10 UNL     1      25.130  18.611  64.118  1.00  0.00     0.156 C 
BRANCH  24  25
HETATM   25  N6  UNL     1      24.632  18.109  65.359  1.00  0.00    -0.364 N 
HETATM   26  C11 UNL     1      23.571  18.656  65.858  1.00  0.00     0.197 C 
HETATM   27  N7  UNL     1      22.893  19.731  65.217  1.00  0.00    -0.067 NA
HETATM   28  N8  UNL     1      23.022  18.201  67.100  1.00  0.00    -0.067 NA
ATOM     29  H6  UNL     1      25.100  17.340  65.839  1.00  0.00     0.161 HD
ENDBRANCH  24  25
ENDBRANCH  11  24
TORSDOF 6
ENDMDL
MODEL 2
REMARK VINA RESULT: -7.676613001      1.430      1.816
REMARK  6 active torsions:
REMARK  status: ('A' for Active; 'I' for Inactive)
REMARK    1  A    between atoms: N3_4  and  C2_6 
REMARK    2  A    between atoms: C2_6  and  C3_7 
REMARK    3  A    between atoms: C3_7  and  C4_8 
REMARK    4  A    between atoms: C4_8  and  C5_9 
REMARK    5  A    between atoms: C9_19  and  C10_20 
REMARK    6  A    between atoms: C10_20  and  N6_21 
ROOT
HETATM    1  C5  UNL     1      27.410  16.143  62.018  1.00  0.00     0.176 C 
HETATM    2  N4  UNL     1      26.419  15.344  62.734  1.00  0.00    -0.346 N 
ATOM      3  H4  UNL     1      26.651  14.955  63.648  1.00  0.00     0.163 HD
HETATM    4  C6  UNL     1      25.145  15.101  62.180  1.00  0.00     0.236 C 
HETATM    5  O1  UNL     1      24.519  14.080  62.546  1.00  0.00    -0.272 OA
HETATM    6  C7  UNL     1      24.554  16.013  61.199  1.00  0.00     0.225 C 
HETATM    7  N5  UNL     1      23.972  17.201  61.792  1.00  0.00    -0.350 N 
ATOM      8  H5  UNL     1      23.420  17.787  61.166  1.00  0.00     0.163 HD
HETATM    9  C8  UNL     1      24.074  17.643  63.110  1.00  0.00     0.242 C 
HETATM   10  O2  UNL     1      22.976  17.895  63.728  1.00  0.00    -0.271 OA
HETATM   11  C9  UNL     1      25.315  17.861  63.896  1.00  0.00     0.194 C 
HETATM   12  N9  UNL     1      26.437  18.270  63.107  1.00  0.00    -0.344 N 
ATOM     13  H9  UNL     1      26.854  19.168  63.350  1.00  0.00     0.163 HD
HETATM   14  C12 UNL     1      27.032  17.580  62.040  1.00  0.00     0.241 C 
HETATM   15  O3  UNL     1      27.271  18.250  60.987  1.00  0.00    -0.271 OA
ENDROOT
BRANCH   1  16
HETATM   16  C4  UNL     1      28.771  16.002  62.640  1.00  0.00     0.036 C 
BRANCH  16  17
HETATM   17  C3  UNL     1      29.834  16.738  61.875  1.00  0.00     0.022 C 
BRANCH  17  18
HETATM   18  C2  UNL     1      30.595  17.740  62.694  1.00  0.00     0.122 C 
BRANCH  18  19
HETATM   19  N3  UNL     1      30.249  19.097  62.309  1.00  0.00    -0.367 N 
HETATM   20  C1  UNL     1      29.596  19.889  63.091  1.00  0.00     0.196 C 
HETATM   21  N1  UNL     1      29.275  21.205  62.688  1.00  0.00    -0.067 NA
HETATM   22  N2  UNL     1      29.211  19.391  64.366  1.00  0.00    -0.067 NA
ATOM     23  H3  UNL     1      30.533  19.435  61.390  1.00  0.00     0.161 HD
ENDBRANCH  18  19
ENDBRANCH  17  18
ENDBRANCH  16  17
ENDBRANCH   1  16
BRANCH  11  24
HETATM   24  C10 UNL     1      25.033  18.951  64.947  1.00  0.00     0.156 C 
BRANCH  24  25
HETATM   25  N6  UNL     1      26.081  19.921  64.984  1.00  0.00    -0.364 N 
HETATM   26  C11 UNL     1      25.847  21.093  64.490  1.00  0.00     0.197 C 
HETATM   27  N7  UNL     1      24.592  21.443  63.915  1.00  0.00    -0.067 NA
HETATM   28  N8  UNL     1      26.855  22.110  64.495  1.00  0.00    -0.067 NA
ATOM     29  H6  UNL     1      26.989  19.696  65.391  1.00  0.00     0.161 HD
ENDBRANCH  24  25
ENDBRANCH  11  24
TORSDOF 6
ENDMDL
MODEL 3
REMARK VINA RESULT: -7.455335264      2.162      4.933
REMARK  6 active torsions:
REMARK  status: ('A' for Active; 'I' for Inactive)
REMARK    1  A    between atoms: N3_4  and  C2_6 
REMARK    2  A    between atoms: C2_6  and  C3_7 
REMARK    3  A    between atoms: C3_7  and  C4_8 
REMARK    4  A    between atoms: C4_8  and  C5_9 
REMARK    5  A    between atoms: C9_19  and  C10_20 
REMARK    6  A    between atoms: C10_20  and  N6_21 
ROOT
HETATM    1  C5  UNL     1      28.319  19.122  64.579  1.00  0.00     0.176 C 
HETATM    2  N4  UNL     1      28.567  17.689  64.711  1.00  0.00    -0.346 N 
ATOM      3  H4  UNL     1      28.065  17.155  65.420  1.00  0.00     0.163 HD
HETATM    4  C6  UNL     1      29.490  17.032  63.872  1.00  0.00     0.236 C 
HETATM    5  O1  UNL     1      30.027  15.978  64.283  1.00  0.00    -0.272 OA
HETATM    6  C7  UNL     1      29.824  17.558  62.546  1.00  0.00     0.225 C 
HETATM    7  N5  UNL     1      28.828  17.257  61.538  1.00  0.00    -0.350 N 
ATOM      8  H5  UNL     1      29.089  17.470  60.575  1.00  0.00     0.163 HD
HETATM    9  C8  UNL     1      27.557  16.712  61.719  1.00  0.00     0.242 C 
HETATM   10  O2  UNL     1      27.264  15.670  61.026  1.00  0.00    -0.271 OA
HETATM   11  C9  UNL     1      26.488  17.197  62.627  1.00  0.00     0.194 C 
HETATM   12  N9  UNL     1      26.495  18.615  62.826  1.00  0.00    -0.344 N 
ATOM     13  H9  UNL     1      25.646  19.111  62.556  1.00  0.00     0.163 HD
HETATM   14  C12 UNL     1      27.531  19.402  63.350  1.00  0.00     0.241 C 
HETATM   15  O3  UNL     1      27.827  20.459  62.710  1.00  0.00    -0.271 OA
ENDROOT
BRANCH   1  16
HETATM   16  C4  UNL     1      27.555  19.651  65.760  1.00  0.00     0.036 C 
BRANCH  16  17
HETATM   17  C3  UNL     1      26.805  18.574  66.493  1.00  0.00     0.022 C 
BRANCH  17  18
HETATM   18  C2  UNL     1      25.353  18.884  66.716  1.00  0.00     0.122 C 
BRANCH  18  19
HETATM   19  N3  UNL     1      24.516  18.155  65.780  1.00  0.00    -0.367 N 
HETATM   20  C1  UNL     1      23.667  18.747  65.009  1.00  0.00     0.196 C 
HETATM   21  N1  UNL     1      22.867  18.009  64.107  1.00  0.00    -0.067 NA
HETATM   22  N2  UNL     1      23.567  20.163  65.100  1.00  0.00    -0.067 NA
ATOM     23  H3  UNL     1      24.601  17.140  65.730  1.00  0.00     0.161 HD
ENDBRANCH  18  19
ENDBRANCH  17  18
ENDBRANCH  16  17
ENDBRANCH   1  16
BRANCH  11  24
HETATM   24  C10 UNL     1      25.128  16.795  62.026  1.00  0.00     0.156 C 
BRANCH  24  25
HETATM   25  N6  UNL     1      24.580  15.658  62.695  1.00  0.00    -0.364 N 
HETATM   26  C11 UNL     1      23.933  14.786  61.991  1.00  0.00     0.197 C 
HETATM   27  N7  UNL     1      23.753  14.924  60.585  1.00  0.00    -0.067 NA
HETATM   28  N8  UNL     1      23.358  13.626  62.600  1.00  0.00    -0.067 NA
ATOM     29  H6  UNL     1      24.695  15.536  63.702  1.00  0.00     0.161 HD
ENDBRANCH  24  25
ENDBRANCH  11  24
TORSDOF 6
ENDMDL
MODEL 4
REMARK VINA RESULT: -7.341879233      2.191      4.906
REMARK  6 active torsions:
REMARK  status: ('A' for Active; 'I' for Inactive)
REMARK    1  A    between atoms: N3_4  and  C2_6 
REMARK    2  A    between atoms: C2_6  and  C3_7 
REMARK    3  A    between atoms: C3_7  and  C4_8 
REMARK    4  A    between atoms: C4_8  and  C5_9 
REMARK    5  A    between atoms: C9_19  and  C10_20 
REMARK    6  A    between atoms: C10_20  and  N6_21 
ROOT
HETATM    1  C5  UNL     1      28.439  17.942  61.884  1.00  0.00     0.176 C 
HETATM    2  N4  UNL     1      28.429  19.353  62.261  1.00  0.00    -0.346 N 
ATOM      3  H4  UNL     1      27.673  19.955  61.935  1.00  0.00     0.163 HD
HETATM    4  C6  UNL     1      29.450  19.896  63.068  1.00  0.00     0.236 C 
HETATM    5  O1  UNL     1      29.687  21.123  62.987  1.00  0.00    -0.272 OA
HETATM    6  C7  UNL     1      30.222  19.057  63.987  1.00  0.00     0.225 C 
HETATM    7  N5  UNL     1      29.525  18.759  65.222  1.00  0.00    -0.350 N 
ATOM      8  H5  UNL     1      30.079  18.308  65.949  1.00  0.00     0.163 HD
HETATM    9  C8  UNL     1      28.191  19.012  65.540  1.00  0.00     0.242 C 
HETATM   10  O2  UNL     1      27.962  19.662  66.624  1.00  0.00    -0.271 OA
HETATM   11  C9  UNL     1      26.988  18.613  64.766  1.00  0.00     0.194 C 
HETATM   12  N9  UNL     1      27.142  17.387  64.044  1.00  0.00    -0.344 N 
ATOM     13  H9  UNL     1      26.487  16.641  64.278  1.00  0.00     0.163 HD
HETATM   14  C12 UNL     1      28.087  17.090  63.050  1.00  0.00     0.241 C 
HETATM   15  O3  UNL     1      28.704  15.985  63.158  1.00  0.00    -0.271 OA
ENDROOT
BRANCH   1  16
HETATM   16  C4  UNL     1      27.453  17.668  60.783  1.00  0.00     0.036 C 
BRANCH  16  17
HETATM   17  C3  UNL     1      27.296  16.200  60.501  1.00  0.00     0.022 C 
BRANCH  17  18
HETATM   18  C2  UNL     1      25.868  15.741  60.430  1.00  0.00     0.122 C 
BRANCH  18  19
HETATM   19  N3  UNL     1      24.984  16.686  61.090  1.00  0.00    -0.367 N 
HETATM   20  C1  UNL     1      24.119  16.317  61.974  1.00  0.00     0.196 C 
HETATM   21  N1  UNL     1      23.272  17.260  62.599  1.00  0.00    -0.067 NA
HETATM   22  N2  UNL     1      24.048  14.933  62.293  1.00  0.00    -0.067 NA
ATOM     23  H3  UNL     1      25.049  17.674  60.847  1.00  0.00     0.161 HD
ENDBRANCH  18  19
ENDBRANCH  17  18
ENDBRANCH  16  17
ENDBRANCH   1  16
BRANCH  11  24
HETATM   24  C10 UNL     1      25.814  18.455  65.752  1.00  0.00     0.156 C 
BRANCH  24  25
HETATM   25  N6  UNL     1      24.557  18.616  65.093  1.00  0.00    -0.364 N 
HETATM   26  C11 UNL     1      23.791  19.590  65.467  1.00  0.00     0.197 C 
HETATM   27  N7  UNL     1      24.158  20.495  66.502  1.00  0.00    -0.067 NA
HETATM   28  N8  UNL     1      22.517  19.805  64.848  1.00  0.00    -0.067 NA
ATOM     29  H6  UNL     1      24.270  17.980  64.348  1.00  0.00     0.161 HD
ENDBRANCH  24  25
ENDBRANCH  11  24
TORSDOF 6
ENDMDL
MODEL 5
REMARK VINA RESULT: -7.338764476      1.621      1.981
REMARK  6 active torsions:
REMARK  status: ('A' for Active; 'I' for Inactive)
REMARK    1  A    between atoms: N3_4  and  C2_6 
REMARK    2  A    between atoms: C2_6  and  C3_7 
REMARK    3  A    between atoms: C3_7  and  C4_8 
REMARK    4  A    between atoms: C4_8  and  C5_9 
REMARK    5  A    between atoms: C9_19  and  C10_20 
REMARK    6  A    between atoms: C10_20  and  N6_21 
ROOT
HETATM    1  C5  UNL     1      28.319  17.813  61.977  1.00  0.00     0.176 C 
HETATM    2  N4  UNL     1      27.933  16.410  62.100  1.00  0.00    -0.346 N 
ATOM      3  H4  UNL     1      28.090  15.921  62.981  1.00  0.00     0.163 HD
HETATM    4  C6  UNL     1      27.345  15.722  61.019  1.00  0.00     0.236 C 
HETATM    5  O1  UNL     1      27.460  14.475  60.971  1.00  0.00    -0.272 OA
HETATM    6  C7  UNL     1      26.615  16.433  59.968  1.00  0.00     0.225 C 
HETATM    7  N5  UNL     1      25.266  16.802  60.351  1.00  0.00    -0.350 N 
ATOM      8  H5  UNL     1      24.674  17.162  59.603  1.00  0.00     0.163 HD
HETATM    9  C8  UNL     1      24.679  16.726  61.613  1.00  0.00     0.242 C 
HETATM   10  O2  UNL     1      23.563  16.094  61.701  1.00  0.00    -0.271 OA
HETATM   11  C9  UNL     1      25.193  17.296  62.884  1.00  0.00     0.194 C 
HETATM   12  N9  UNL     1      25.946  18.502  62.717  1.00  0.00    -0.344 N 
ATOM     13  H9  UNL     1      25.591  19.325  63.202  1.00  0.00     0.163 HD
HETATM   14  C12 UNL     1      27.116  18.685  61.964  1.00  0.00     0.241 C 
HETATM   15  O3  UNL     1      27.150  19.695  61.194  1.00  0.00    -0.271 OA
ENDROOT
BRANCH   1  16
HETATM   16  C4  UNL     1      29.197  18.236  63.121  1.00  0.00     0.036 C 
BRANCH  16  17
HETATM   17  C3  UNL     1      29.772  19.611  62.931  1.00  0.00     0.022 C 
BRANCH  17  18
HETATM   18  C2  UNL     1      29.558  20.530  64.099  1.00  0.00     0.122 C 
BRANCH  18  19
HETATM   19  N3  UNL     1      28.369  21.343  63.911  1.00  0.00    -0.367 N 
HETATM   20  C1  UNL     1      27.262  21.097  64.527  1.00  0.00     0.196 C 
HETATM   21  N1  UNL     1      26.122  21.908  64.324  1.00  0.00    -0.067 NA
HETATM   22  N2  UNL     1      27.231  19.985  65.413  1.00  0.00    -0.067 NA
ATOM     23  H3  UNL     1      28.411  22.135  63.271  1.00  0.00     0.161 HD
ENDBRANCH  18  19
ENDBRANCH  17  18
ENDBRANCH  16  17
ENDBRANCH   1  16
BRANCH  11  24
HETATM   24  C10 UNL     1      23.990  17.594  63.798  1.00  0.00     0.156 C 
BRANCH  24  25
HETATM   25  N6  UNL     1      24.410  18.132  65.053  1.00  0.00    -0.364 N 
HETATM   26  C11 UNL     1      23.741  19.121  65.549  1.00  0.00     0.197 C 
HETATM   27  N7  UNL     1      22.611  19.684  64.891  1.00  0.00    -0.067 NA
HETATM   28  N8  UNL     1      24.111  19.707  66.802  1.00  0.00    -0.067 NA
ATOM     29  H6  UNL     1      25.217  17.746  65.544  1.00  0.00     0.161 HD
ENDBRANCH  24  25
ENDBRANCH  11  24
TORSDOF 6
ENDMDL
