MODEL 1
REMARK VINA RESULT: -6.890782176      0.000      0.000
REMARK  9 active torsions:
REMARK  status: ('A' for Active; 'I' for Inactive)
REMARK    1  A    between atoms: N1_1  and  C1_5 
REMARK    2  A    between atoms: C1_5  and  C2_6 
REMARK    3  A    between atoms: C2_6  and  N2_7 
REMARK    4  A    between atoms: N2_7  and  C3_9 
REMARK    5  A    between atoms: C4_12  and  N4_13 
REMARK       I    between atoms: N4_13  and  C5_15 
REMARK    6  A    between atoms: N6_17  and  C6_19 
REMARK    7  A    between atoms: C6_19  and  C7_20 
REMARK    8  A    between atoms: C7_20  and  N7_21 
REMARK    9  A    between atoms: N7_21  and  N8_23 
ROOT
HETATM    1  C3  UNL     1      24.176  17.415  63.119  1.00  0.00     0.695 C 
HETATM    2  N3  UNL     1      25.252  18.050  62.599  1.00  0.00    -0.022 N 
ATOM      3  H3  UNL     1      25.648  17.596  61.776  1.00  0.00     0.203 HD
HETATM    4  C4  UNL     1      25.888  19.163  62.969  1.00  0.00     0.702 C 
HETATM    5  N11 UNL     1      25.737  19.838  64.121  1.00  0.00    -0.151 N 
ATOM      6  H11 UNL     1      26.498  20.480  64.346  1.00  0.00     0.188 HD
HETATM    7  C9  UNL     1      24.728  19.799  65.037  1.00  0.00     0.328 C 
HETATM    8  O1  UNL     1      24.721  20.677  65.938  1.00  0.00    -0.261 OA
HETATM    9  C10 UNL     1      23.723  18.856  65.028  1.00  0.00     0.328 C 
HETATM   10  O2  UNL     1      23.000  18.844  66.045  1.00  0.00    -0.261 OA
HETATM   11  N12 UNL     1      23.398  17.940  64.083  1.00  0.00    -0.151 N 
ATOM     12  H12 UNL     1      22.435  17.603  64.106  1.00  0.00     0.188 HD
ENDROOT
BRANCH   4  13
HETATM   13  N4  UNL     1      26.729  19.606  62.096  1.00  0.00    -0.163 N 
HETATM   14  C5  UNL     1      28.069  19.800  62.530  1.00  0.00     0.202 C 
HETATM   15  N5  UNL     1      28.404  20.957  63.284  1.00  0.00    -0.063 NA
HETATM   16  N6  UNL     1      28.933  18.897  62.212  1.00  0.00    -0.362 N 
ATOM     17  H6  UNL     1      28.620  18.092  61.669  1.00  0.00     0.162 HD
ATOM     18  H4  UNL     1      26.445  19.808  61.138  1.00  0.00     0.187 HD
BRANCH  16  19
HETATM   19  C6  UNL     1      30.327  18.976  62.591  1.00  0.00     0.143 C 
BRANCH  19  20
HETATM   20  C7  UNL     1      30.823  17.574  62.845  1.00  0.00     0.159 C 
BRANCH  20  21
HETATM   21  N7  UNL     1      29.980  16.680  62.047  1.00  0.00    -0.333 N 
ATOM     22  H7  UNL     1      30.069  16.633  61.032  1.00  0.00     0.180 HD
BRANCH  21  23
HETATM   23  N8  UNL     1      29.056  15.897  62.731  1.00  0.00    -0.280 N 
HETATM   24  C8  UNL     1      27.862  15.798  62.279  1.00  0.00     0.215 C 
HETATM   25  N9  UNL     1      27.507  16.486  61.097  1.00  0.00    -0.065 NA
HETATM   26  N10 UNL     1      26.913  14.998  62.975  1.00  0.00    -0.065 NA
ATOM     27  H8  UNL     1      29.326  15.407  63.583  1.00  0.00     0.189 HD
ENDBRANCH  21  23
ENDBRANCH  20  21
ENDBRANCH  19  20
ENDBRANCH  16  19
ENDBRANCH   4  13
BRANCH   1  28
HETATM   28  N2  UNL     1      23.944  16.272  62.625  1.00  0.00    -0.224 N 
ATOM     29  H2  UNL     1      23.886  15.513  63.304  1.00  0.00     0.177 HD
BRANCH  28  30
HETATM   30  C2  UNL     1      23.753  15.883  61.271  1.00  0.00     0.165 C 
BRANCH  30  31
HETATM   31  C1  UNL     1      24.088  14.437  60.982  1.00  0.00     0.249 C 
BRANCH  31  32
HETATM   32  N1  UNL     1      25.310  14.264  60.244  1.00  0.00    -0.078 N 
ATOM     33  H13 UNL     1      25.361  14.928  59.471  1.00  0.00     0.274 HD
ATOM     34  H12 UNL     1      26.110  14.580  60.793  1.00  0.00     0.274 HD
ATOM     35  H11 UNL     1      25.455  13.311  59.911  1.00  0.00     0.274 HD
ENDBRANCH  31  32
ENDBRANCH  30  31
ENDBRANCH  28  30
ENDBRANCH   1  28
TORSDOF 9
ENDMDL
MODEL 2
REMARK VINA RESULT: -6.759276822      2.560      5.195
REMARK  9 active torsions:
REMARK  status: ('A' for Active; 'I' for Inactive)
REMARK    1  A    between atoms: N1_1  and  C1_5 
REMARK    2  A    between atoms: C1_5  and  C2_6 
REMARK    3  A    between atoms: C2_6  and  N2_7 
REMARK    4  A    between atoms: N2_7  and  C3_9 
REMARK    5  A    between atoms: C4_12  and  N4_13 
REMARK       I    between atoms: N4_13  and  C5_15 
REMARK    6  A    between atoms: N6_17  and  C6_19 
REMARK    7  A    between atoms: C6_19  and  C7_20 
REMARK    8  A    between atoms: C7_20  and  N7_21 
REMARK    9  A    between atoms: N7_21  and  N8_23 
ROOT
HETATM    1  C3  UNL     1      25.317  18.693  66.292  1.00  0.00     0.695 C 
HETATM    2  N3  UNL     1      24.533  18.023  65.415  1.00  0.00    -0.022 N 
ATOM      3  H3  UNL     1      23.873  17.379  65.851  1.00  0.00     0.203 HD
HETATM    4  C4  UNL     1      24.468  18.055  64.083  1.00  0.00     0.702 C 
HETATM    5  N11 UNL     1      25.345  18.626  63.241  1.00  0.00    -0.151 N 
ATOM      6  H11 UNL     1      25.285  18.305  62.275  1.00  0.00     0.188 HD
HETATM    7  C9  UNL     1      26.302  19.568  63.476  1.00  0.00     0.328 C 
HETATM    8  O1  UNL     1      26.866  20.091  62.480  1.00  0.00    -0.261 OA
HETATM    9  C10 UNL     1      26.683  19.974  64.737  1.00  0.00     0.328 C 
HETATM   10  O2  UNL     1      27.703  20.691  64.776  1.00  0.00    -0.261 OA
HETATM   11  N12 UNL     1      26.118  19.715  65.942  1.00  0.00    -0.151 N 
ATOM     12  H12 UNL     1      26.328  20.386  66.682  1.00  0.00     0.188 HD
ENDROOT
BRANCH   4  13
HETATM   13  N4  UNL     1      23.433  17.461  63.592  1.00  0.00    -0.163 N 
HETATM   14  C5  UNL     1      23.654  16.562  62.512  1.00  0.00     0.202 C 
HETATM   15  N5  UNL     1      23.853  17.072  61.201  1.00  0.00    -0.063 NA
HETATM   16  N6  UNL     1      23.665  15.301  62.782  1.00  0.00    -0.362 N 
ATOM     17  H6  UNL     1      23.516  15.008  63.748  1.00  0.00     0.162 HD
ATOM     18  H4  UNL     1      22.497  17.630  63.960  1.00  0.00     0.187 HD
BRANCH  16  19
HETATM   19  C6  UNL     1      23.880  14.284  61.775  1.00  0.00     0.143 C 
BRANCH  19  20
HETATM   20  C7  UNL     1      25.244  13.681  62.003  1.00  0.00     0.159 C 
BRANCH  20  21
HETATM   21  N7  UNL     1      25.943  13.725  60.717  1.00  0.00    -0.333 N 
ATOM     22  H7  UNL     1      26.447  12.913  60.359  1.00  0.00     0.180 HD
BRANCH  21  23
HETATM   23  N8  UNL     1      25.891  14.918  60.004  1.00  0.00    -0.280 N 
HETATM   24  C8  UNL     1      26.900  15.706  60.025  1.00  0.00     0.215 C 
HETATM   25  N9  UNL     1      28.045  15.349  60.773  1.00  0.00    -0.065 NA
HETATM   26  N10 UNL     1      26.851  16.927  59.297  1.00  0.00    -0.065 NA
ATOM     27  H8  UNL     1      25.058  15.162  59.470  1.00  0.00     0.189 HD
ENDBRANCH  21  23
ENDBRANCH  20  21
ENDBRANCH  19  20
ENDBRANCH  16  19
ENDBRANCH   4  13
BRANCH   1  28
HETATM   28  N2  UNL     1      25.244  18.285  67.489  1.00  0.00    -0.224 N 
ATOM     29  H2  UNL     1      26.018  17.694  67.792  1.00  0.00     0.177 HD
BRANCH  28  30
HETATM   30  C2  UNL     1      24.248  18.522  68.476  1.00  0.00     0.165 C 
BRANCH  30  31
HETATM   31  C1  UNL     1      23.655  17.269  69.080  1.00  0.00     0.249 C 
BRANCH  31  32
HETATM   32  N1  UNL     1      22.849  16.511  68.161  1.00  0.00    -0.078 N 
ATOM     33  H13 UNL     1      22.580  17.084  67.361  1.00  0.00     0.274 HD
ATOM     34  H12 UNL     1      23.412  15.806  67.685  1.00  0.00     0.274 HD
ATOM     35  H11 UNL     1      22.027  16.086  68.592  1.00  0.00     0.274 HD
ENDBRANCH  31  32
ENDBRANCH  30  31
ENDBRANCH  28  30
ENDBRANCH   1  28
TORSDOF 9
ENDMDL
MODEL 3
REMARK VINA RESULT: -6.694485423      2.958      6.118
REMARK  9 active torsions:
REMARK  status: ('A' for Active; 'I' for Inactive)
REMARK    1  A    between atoms: N1_1  and  C1_5 
REMARK    2  A    between atoms: C1_5  and  C2_6 
REMARK    3  A    between atoms: C2_6  and  N2_7 
REMARK    4  A    between atoms: N2_7  and  C3_9 
REMARK    5  A    between atoms: C4_12  and  N4_13 
REMARK       I    between atoms: N4_13  and  C5_15 
REMARK    6  A    between atoms: N6_17  and  C6_19 
REMARK    7  A    between atoms: C6_19  and  C7_20 
REMARK    8  A    between atoms: C7_20  and  N7_21 
REMARK    9  A    between atoms: N7_21  and  N8_23 
ROOT
HETATM    1  C3  UNL     1      28.710  19.940  63.497  1.00  0.00     0.695 C 
HETATM    2  N3  UNL     1      27.825  19.103  64.087  1.00  0.00    -0.022 N 
ATOM      3  H3  UNL     1      27.137  19.570  64.679  1.00  0.00     0.203 HD
HETATM    4  C4  UNL     1      27.691  17.777  64.036  1.00  0.00     0.702 C 
HETATM    5  N11 UNL     1      28.567  16.892  63.532  1.00  0.00    -0.151 N 
ATOM      6  H11 UNL     1      28.429  15.928  63.836  1.00  0.00     0.188 HD
HETATM    7  C9  UNL     1      29.613  17.080  62.677  1.00  0.00     0.328 C 
HETATM    8  O1  UNL     1      30.164  16.059  62.193  1.00  0.00    -0.261 OA
HETATM    9  C10 UNL     1      30.094  18.321  62.318  1.00  0.00     0.328 C 
HETATM   10  O2  UNL     1      31.172  18.309  61.691  1.00  0.00    -0.261 OA
HETATM   11  N12 UNL     1      29.574  19.554  62.542  1.00  0.00    -0.151 N 
ATOM     12  H12 UNL     1      29.880  20.285  61.899  1.00  0.00     0.188 HD
ENDROOT
BRANCH   4  13
HETATM   13  N4  UNL     1      26.585  17.338  64.534  1.00  0.00    -0.163 N 
HETATM   14  C5  UNL     1      25.393  17.620  63.812  1.00  0.00     0.202 C 
HETATM   15  N5  UNL     1      24.802  18.909  63.906  1.00  0.00    -0.063 NA
HETATM   16  N6  UNL     1      24.897  16.674  63.090  1.00  0.00    -0.362 N 
ATOM     17  H6  UNL     1      25.377  15.774  63.070  1.00  0.00     0.162 HD
ATOM     18  H4  UNL     1      26.565  16.813  65.408  1.00  0.00     0.187 HD
BRANCH  16  19
HETATM   19  C6  UNL     1      23.689  16.832  62.308  1.00  0.00     0.143 C 
BRANCH  19  20
HETATM   20  C7  UNL     1      23.938  16.244  60.941  1.00  0.00     0.159 C 
BRANCH  20  21
HETATM   21  N7  UNL     1      24.484  14.902  61.154  1.00  0.00    -0.333 N 
ATOM     22  H7  UNL     1      24.057  14.254  61.817  1.00  0.00     0.180 HD
BRANCH  21  23
HETATM   23  N8  UNL     1      25.608  14.547  60.415  1.00  0.00    -0.280 N 
HETATM   24  C8  UNL     1      26.729  14.393  61.014  1.00  0.00     0.215 C 
HETATM   25  N9  UNL     1      26.803  14.588  62.411  1.00  0.00    -0.065 NA
HETATM   26  N10 UNL     1      27.881  14.029  60.262  1.00  0.00    -0.065 NA
ATOM     27  H8  UNL     1      25.539  14.410  59.407  1.00  0.00     0.189 HD
ENDBRANCH  21  23
ENDBRANCH  20  21
ENDBRANCH  19  20
ENDBRANCH  16  19
ENDBRANCH   4  13
BRANCH   1  28
HETATM   28  N2  UNL     1      28.666  21.137  63.910  1.00  0.00    -0.224 N 
ATOM     29  H2  UNL     1      28.509  21.838  63.186  1.00  0.00     0.177 HD
BRANCH  28  30
HETATM   30  C2  UNL     1      28.801  21.653  65.228  1.00  0.00     0.165 C 
BRANCH  30  31
HETATM   31  C1  UNL     1      27.524  22.216  65.813  1.00  0.00     0.249 C 
BRANCH  31  32
HETATM   32  N1  UNL     1      26.823  23.101  64.923  1.00  0.00    -0.078 N 
ATOM     33  H13 UNL     1      27.221  24.040  64.960  1.00  0.00     0.274 HD
ATOM     34  H12 UNL     1      27.024  22.868  63.950  1.00  0.00     0.274 HD
ATOM     35  H11 UNL     1      25.816  23.130  65.085  1.00  0.00     0.274 HD
ENDBRANCH  31  32
ENDBRANCH  30  31
ENDBRANCH  28  30
ENDBRANCH   1  28
TORSDOF 9
ENDMDL
MODEL 4
REMARK VINA RESULT: -6.687640268      2.817      6.317
REMARK  9 active torsions:
REMARK  status: ('A' for Active; 'I' for Inactive)
REMARK    1  A    between atoms: N1_1  and  C1_5 
REMARK    2  A    between atoms: C1_5  and  C2_6 
REMARK    3  A    between atoms: C2_6  and  N2_7 
REMARK    4  A    between atoms: N2_7  and  C3_9 
REMARK    5  A    between atoms: C4_12  and  N4_13 
REMARK       I    between atoms: N4_13  and  C5_15 
REMARK    6  A    between atoms: N6_17  and  C6_19 
REMARK    7  A    between atoms: C6_19  and  C7_20 
REMARK    8  A    between atoms: C7_20  and  N7_21 
REMARK    9  A    between atoms: N7_21  and  N8_23 
ROOT
HETATM    1  C3  UNL     1      28.592  19.883  63.241  1.00  0.00     0.695 C 
HETATM    2  N3  UNL     1      27.890  19.287  62.249  1.00  0.00    -0.022 N 
ATOM      3  H3  UNL     1      26.994  19.731  62.045  1.00  0.00     0.203 HD
HETATM    4  C4  UNL     1      28.159  18.223  61.490  1.00  0.00     0.702 C 
HETATM    5  N11 UNL     1      29.136  17.320  61.676  1.00  0.00    -0.151 N 
ATOM      6  H11 UNL     1      29.008  16.439  61.177  1.00  0.00     0.188 HD
HETATM    7  C9  UNL     1      30.272  17.397  62.426  1.00  0.00     0.328 C 
HETATM    8  O1  UNL     1      31.133  16.492  62.278  1.00  0.00    -0.261 OA
HETATM    9  C10 UNL     1      30.524  18.406  63.331  1.00  0.00     0.328 C 
HETATM   10  O2  UNL     1      31.511  18.217  64.071  1.00  0.00    -0.261 OA
HETATM   11  N12 UNL     1      29.866  19.572  63.539  1.00  0.00    -0.151 N 
ATOM     12  H12 UNL     1      30.411  20.314  63.981  1.00  0.00     0.188 HD
ENDROOT
BRANCH   4  13
HETATM   13  N4  UNL     1      27.370  18.085  60.478  1.00  0.00    -0.163 N 
HETATM   14  C5  UNL     1      26.579  16.904  60.431  1.00  0.00     0.202 C 
HETATM   15  N5  UNL     1      27.165  15.680  60.008  1.00  0.00    -0.063 NA
HETATM   16  N6  UNL     1      25.342  17.002  60.784  1.00  0.00    -0.362 N 
ATOM     17  H6  UNL     1      24.991  17.914  61.077  1.00  0.00     0.162 HD
ATOM     18  H4  UNL     1      27.317  18.790  59.744  1.00  0.00     0.187 HD
BRANCH  16  19
HETATM   19  C6  UNL     1      24.433  15.877  60.780  1.00  0.00     0.143 C 
BRANCH  19  20
HETATM   20  C7  UNL     1      23.789  15.793  62.142  1.00  0.00     0.159 C 
BRANCH  20  21
HETATM   21  N7  UNL     1      23.359  17.149  62.489  1.00  0.00    -0.333 N 
ATOM     22  H7  UNL     1      23.120  17.831  61.768  1.00  0.00     0.180 HD
BRANCH  21  23
HETATM   23  N8  UNL     1      23.289  17.471  63.840  1.00  0.00    -0.280 N 
HETATM   24  C8  UNL     1      24.171  18.250  64.346  1.00  0.00     0.215 C 
HETATM   25  N9  UNL     1      25.196  18.766  63.523  1.00  0.00    -0.065 NA
HETATM   26  N10 UNL     1      24.102  18.580  65.728  1.00  0.00    -0.065 NA
ATOM     27  H8  UNL     1      22.544  17.089  64.423  1.00  0.00     0.189 HD
ENDBRANCH  21  23
ENDBRANCH  20  21
ENDBRANCH  19  20
ENDBRANCH  16  19
ENDBRANCH   4  13
BRANCH   1  28
HETATM   28  N2  UNL     1      27.956  20.772  63.881  1.00  0.00    -0.224 N 
ATOM     29  H2  UNL     1      27.699  21.595  63.336  1.00  0.00     0.177 HD
BRANCH  28  30
HETATM   30  C2  UNL     1      27.546  20.801  65.242  1.00  0.00     0.165 C 
BRANCH  30  31
HETATM   31  C1  UNL     1      26.463  21.812  65.548  1.00  0.00     0.249 C 
BRANCH  31  32
HETATM   32  N1  UNL     1      26.703  23.107  64.970  1.00  0.00    -0.078 N 
ATOM     33  H13 UNL     1      26.052  23.796  65.349  1.00  0.00     0.274 HD
ATOM     34  H12 UNL     1      27.582  23.497  65.311  1.00  0.00     0.274 HD
ATOM     35  H11 UNL     1      26.679  23.111  63.950  1.00  0.00     0.274 HD
ENDBRANCH  31  32
ENDBRANCH  30  31
ENDBRANCH  28  30
ENDBRANCH   1  28
TORSDOF 9
ENDMDL
MODEL 5
REMARK VINA RESULT: -6.641823899      2.099      4.272
REMARK  9 active torsions:
REMARK  status: ('A' for Active; 'I' for Inactive)
REMARK    1  A    between atoms: N1_1  and  C1_5 
REMARK    2  A    between atoms: C1_5  and  C2_6 
REMARK    3  A    between atoms: C2_6  and  N2_7 
REMARK    4  A    between atoms: N2_7  and  C3_9 
REMARK    5  A    between atoms: C4_12  and  N4_13 
REMARK       I    between atoms: N4_13  and  C5_15 
REMARK    6  A    between atoms: N6_17  and  C6_19 
REMARK    7  A    between atoms: C6_19  and  C7_20 
REMARK    8  A    between atoms: C7_20  and  N7_21 
REMARK    9  A    between atoms: N7_21  and  N8_23 
ROOT
HETATM    1  C3  UNL     1      25.525  20.606  64.156  1.00  0.00     0.695 C 
HETATM    2  N3  UNL     1      25.984  19.844  63.136  1.00  0.00    -0.022 N 
ATOM      3  H3  UNL     1      25.261  19.306  62.657  1.00  0.00     0.203 HD
HETATM    4  C4  UNL     1      27.211  19.671  62.644  1.00  0.00     0.702 C 
HETATM    5  N11 UNL     1      28.371  20.063  63.198  1.00  0.00    -0.151 N 
ATOM      6  H11 UNL     1      29.202  19.598  62.832  1.00  0.00     0.188 HD
HETATM    7  C9  UNL     1      28.611  20.986  64.172  1.00  0.00     0.328 C 
HETATM    8  O1  UNL     1      29.805  21.321  64.380  1.00  0.00    -0.261 OA
HETATM    9  C10 UNL     1      27.621  21.566  64.936  1.00  0.00     0.328 C 
HETATM   10  O2  UNL     1      28.027  22.234  65.909  1.00  0.00    -0.261 OA
HETATM   11  N12 UNL     1      26.273  21.525  64.793  1.00  0.00    -0.151 N 
ATOM     12  H12 UNL     1      25.758  22.293  65.225  1.00  0.00     0.188 HD
ENDROOT
BRANCH   4  13
HETATM   13  N4  UNL     1      27.243  19.055  61.510  1.00  0.00    -0.163 N 
HETATM   14  C5  UNL     1      27.911  17.799  61.474  1.00  0.00     0.202 C 
HETATM   15  N5  UNL     1      29.330  17.759  61.416  1.00  0.00    -0.063 NA
HETATM   16  N6  UNL     1      27.181  16.737  61.498  1.00  0.00    -0.362 N 
ATOM     17  H6  UNL     1      26.167  16.843  61.541  1.00  0.00     0.162 HD
ATOM     18  H4  UNL     1      26.809  19.451  60.677  1.00  0.00     0.187 HD
BRANCH  16  19
HETATM   19  C6  UNL     1      27.736  15.401  61.465  1.00  0.00     0.143 C 
BRANCH  19  20
HETATM   20  C7  UNL     1      27.253  14.725  60.206  1.00  0.00     0.159 C 
BRANCH  20  21
HETATM   21  N7  UNL     1      25.804  14.931  60.148  1.00  0.00    -0.333 N 
ATOM     22  H7  UNL     1      25.397  15.681  59.589  1.00  0.00     0.180 HD
BRANCH  21  23
HETATM   23  N8  UNL     1      25.006  14.062  60.886  1.00  0.00    -0.280 N 
HETATM   24  C8  UNL     1      24.178  14.541  61.737  1.00  0.00     0.215 C 
HETATM   25  N9  UNL     1      24.091  15.940  61.910  1.00  0.00    -0.065 NA
HETATM   26  N10 UNL     1      23.360  13.656  62.493  1.00  0.00    -0.065 NA
ATOM     27  H8  UNL     1      25.081  13.054  60.750  1.00  0.00     0.189 HD
ENDBRANCH  21  23
ENDBRANCH  20  21
ENDBRANCH  19  20
ENDBRANCH  16  19
ENDBRANCH   4  13
BRANCH   1  28
HETATM   28  N2  UNL     1      24.317  20.394  64.476  1.00  0.00    -0.224 N 
ATOM     29  H2  UNL     1      23.626  20.842  63.873  1.00  0.00     0.177 HD
BRANCH  28  30
HETATM   30  C2  UNL     1      23.776  19.628  65.544  1.00  0.00     0.165 C 
BRANCH  30  31
HETATM   31  C1  UNL     1      23.723  18.139  65.282  1.00  0.00     0.249 C 
BRANCH  31  32
HETATM   32  N1  UNL     1      23.150  17.798  64.008  1.00  0.00    -0.078 N 
ATOM     33  H13 UNL     1      22.183  18.120  63.950  1.00  0.00     0.274 HD
ATOM     34  H12 UNL     1      23.562  18.361  63.264  1.00  0.00     0.274 HD
ATOM     35  H11 UNL     1      23.213  16.804  63.785  1.00  0.00     0.274 HD
ENDBRANCH  31  32
ENDBRANCH  30  31
ENDBRANCH  28  30
ENDBRANCH   1  28
TORSDOF 9
ENDMDL
