MODEL 1
REMARK VINA RESULT: -7.684405202      0.000      0.000
REMARK  6 active torsions:
REMARK  status: ('A' for Active; 'I' for Inactive)
REMARK       I    between atoms: N5_14  and  C4_16 
REMARK       I    between atoms: C4_16  and  N6_18 
REMARK    1  A    between atoms: N6_18  and  C5_20 
REMARK    2  A    between atoms: C5_20  and  C6_21 
REMARK       I    between atoms: C6_21  and  N7_23 
REMARK    3  A    between atoms: N7_23  and  C7_24 
REMARK    4  A    between atoms: C7_24  and  C8_25 
REMARK       I    between atoms: C8_25  and  N8_27 
REMARK    5  A    between atoms: N8_27  and  C9_29 
REMARK    6  A    between atoms: C9_29  and  C10_30 
ROOT
HETATM    1  N1  UNL     1      25.063  17.478  62.404  1.00  0.00    -0.382 N 
ATOM      2  H11 UNL     1      25.902  18.050  62.302  1.00  0.00     0.157 HD
ATOM      3  H12 UNL     1      24.153  17.890  62.611  1.00  0.00     0.157 HD
HETATM    4  C1  UNL     1      25.142  16.210  62.286  1.00  0.00     0.149 A 
HETATM    5  N2  UNL     1      24.018  15.445  62.423  1.00  0.00    -0.291 N 
ATOM      6  H2  UNL     1      23.121  15.884  62.632  1.00  0.00     0.172 HD
HETATM    7  C2  UNL     1      24.097  14.125  62.284  1.00  0.00     0.340 A 
HETATM    8  O1  UNL     1      23.082  13.410  62.404  1.00  0.00    -0.245 OA
HETATM    9  N3  UNL     1      25.299  13.554  62.006  1.00  0.00    -0.250 N 
ATOM     10  H3  UNL     1      25.355  12.541  61.900  1.00  0.00     0.192 HD
HETATM   11  N4  UNL     1      26.381  14.266  61.873  1.00  0.00    -0.278 N 
ATOM     12  H4  UNL     1      27.258  13.789  61.664  1.00  0.00     0.189 HD
HETATM   13  C3  UNL     1      26.391  15.646  62.002  1.00  0.00     0.168 A 
HETATM   14  N5  UNL     1      27.445  16.240  61.883  1.00  0.00    -0.291 N 
ATOM     15  H5  UNL     1      28.101  15.487  61.678  1.00  0.00     0.172 HD
HETATM   16  C4  UNL     1      28.215  17.297  61.869  1.00  0.00     0.322 C 
HETATM   17  O2  UNL     1      28.617  17.810  60.754  1.00  0.00    -0.247 OA
HETATM   18  N6  UNL     1      28.660  17.943  63.077  1.00  0.00    -0.333 N 
ATOM     19  H6  UNL     1      28.367  17.595  63.990  1.00  0.00     0.164 HD
ENDROOT
BRANCH  18  20
HETATM   20  C5  UNL     1      29.515  19.073  62.975  1.00  0.00     0.243 C 
BRANCH  20  21
HETATM   21  C6  UNL     1      28.800  20.331  63.484  1.00  0.00     0.309 C 
HETATM   22  O3  UNL     1      28.837  21.339  62.765  1.00  0.00    -0.255 OA
HETATM   23  N7  UNL     1      28.189  20.197  64.703  1.00  0.00    -0.377 NA
BRANCH  23  24
HETATM   24  C7  UNL     1      27.594  20.065  65.890  1.00  0.00     0.260 C 
BRANCH  24  25
HETATM   25  C8  UNL     1      26.409  19.127  65.803  1.00  0.00     0.270 C 
HETATM   26  O4  UNL     1      26.553  18.092  65.178  1.00  0.00    -0.266 OA
HETATM   27  N8  UNL     1      25.213  19.503  66.443  1.00  0.00    -0.347 N 
ATOM     28  H8  UNL     1      25.120  20.356  66.994  1.00  0.00     0.163 HD
BRANCH  27  29
HETATM   29  C9  UNL     1      24.096  18.541  66.242  1.00  0.00     0.222 C 
BRANCH  29  30
HETATM   30  C10 UNL     1      23.322  19.104  65.005  1.00  0.00     0.248 C 
HETATM   31  N9  UNL     1      22.773  18.144  64.147  1.00  0.00    -0.061 NA
HETATM   32  O5  UNL     1      23.284  20.312  64.928  1.00  0.00    -0.275 OA
ENDBRANCH  29  30
ENDBRANCH  27  29
ENDBRANCH  24  25
ENDBRANCH  23  24
ENDBRANCH  20  21
ENDBRANCH  18  20
TORSDOF 6
ENDMDL
MODEL 2
REMARK VINA RESULT: -7.405775435      1.756      2.076
REMARK  6 active torsions:
REMARK  status: ('A' for Active; 'I' for Inactive)
REMARK       I    between atoms: N5_14  and  C4_16 
REMARK       I    between atoms: C4_16  and  N6_18 
REMARK    1  A    between atoms: N6_18  and  C5_20 
REMARK    2  A    between atoms: C5_20  and  C6_21 
REMARK       I    between atoms: C6_21  and  N7_23 
REMARK    3  A    between atoms: N7_23  and  C7_24 
REMARK    4  A    between atoms: C7_24  and  C8_25 
REMARK       I    between atoms: C8_25  and  N8_27 
REMARK    5  A    between atoms: N8_27  and  C9_29 
REMARK    6  A    between atoms: C9_29  and  C10_30 
ROOT
HETATM    1  N1  UNL     1      26.653  17.476  60.093  1.00  0.00    -0.382 N 
ATOM      2  H11 UNL     1      27.425  18.023  60.475  1.00  0.00     0.157 HD
ATOM      3  H12 UNL     1      26.374  17.549  59.114  1.00  0.00     0.157 HD
HETATM    4  C1  UNL     1      26.000  16.685  60.852  1.00  0.00     0.149 A 
HETATM    5  N2  UNL     1      24.966  15.952  60.339  1.00  0.00    -0.291 N 
ATOM      6  H2  UNL     1      24.709  16.047  59.357  1.00  0.00     0.172 HD
HETATM    7  C2  UNL     1      24.297  15.116  61.126  1.00  0.00     0.340 A 
HETATM    8  O1  UNL     1      23.351  14.437  60.677  1.00  0.00    -0.245 OA
HETATM    9  N3  UNL     1      24.651  15.001  62.434  1.00  0.00    -0.250 N 
ATOM     10  H3  UNL     1      24.135  14.357  63.034  1.00  0.00     0.192 HD
HETATM   11  N4  UNL     1      25.633  15.691  62.940  1.00  0.00    -0.278 N 
ATOM     12  H4  UNL     1      25.859  15.568  63.927  1.00  0.00     0.189 HD
HETATM   13  C3  UNL     1      26.383  16.586  62.194  1.00  0.00     0.168 A 
HETATM   14  N5  UNL     1      27.271  17.209  62.743  1.00  0.00    -0.291 N 
ATOM     15  H5  UNL     1      27.234  16.852  63.697  1.00  0.00     0.172 HD
HETATM   16  C4  UNL     1      28.247  18.076  62.803  1.00  0.00     0.322 C 
HETATM   17  O2  UNL     1      29.480  17.690  62.817  1.00  0.00    -0.247 OA
HETATM   18  N6  UNL     1      28.014  19.496  62.862  1.00  0.00    -0.333 N 
ATOM     19  H6  UNL     1      27.064  19.868  62.841  1.00  0.00     0.164 HD
ENDROOT
BRANCH  18  20
HETATM   20  C5  UNL     1      29.130  20.372  62.950  1.00  0.00     0.243 C 
BRANCH  20  21
HETATM   21  C6  UNL     1      29.144  21.085  64.308  1.00  0.00     0.309 C 
HETATM   22  O3  UNL     1      30.174  20.994  64.991  1.00  0.00    -0.255 OA
HETATM   23  N7  UNL     1      27.991  21.756  64.621  1.00  0.00    -0.377 NA
BRANCH  23  24
HETATM   24  C7  UNL     1      26.869  22.410  64.926  1.00  0.00     0.260 C 
BRANCH  24  25
HETATM   25  C8  UNL     1      25.655  21.527  64.727  1.00  0.00     0.270 C 
HETATM   26  O4  UNL     1      25.009  21.676  63.706  1.00  0.00    -0.266 OA
HETATM   27  N8  UNL     1      25.341  20.588  65.729  1.00  0.00    -0.347 N 
ATOM     28  H8  UNL     1      25.915  20.450  66.562  1.00  0.00     0.163 HD
BRANCH  27  29
HETATM   29  C9  UNL     1      24.098  19.818  65.463  1.00  0.00     0.222 C 
BRANCH  29  30
HETATM   30  C10 UNL     1      24.601  18.489  64.810  1.00  0.00     0.248 C 
HETATM   31  N9  UNL     1      23.759  17.934  63.840  1.00  0.00    -0.061 NA
HETATM   32  O5  UNL     1      25.668  18.086  65.220  1.00  0.00    -0.275 OA
ENDBRANCH  29  30
ENDBRANCH  27  29
ENDBRANCH  24  25
ENDBRANCH  23  24
ENDBRANCH  20  21
ENDBRANCH  18  20
TORSDOF 6
ENDMDL
MODEL 3
REMARK VINA RESULT: -7.359667322      1.823      2.221
REMARK  6 active torsions:
REMARK  status: ('A' for Active; 'I' for Inactive)
REMARK       I    between atoms: N5_14  and  C4_16 
REMARK       I    between atoms: C4_16  and  N6_18 
REMARK    1  A    between atoms: N6_18  and  C5_20 
REMARK    2  A    between atoms: C5_20  and  C6_21 
REMARK       I    between atoms: C6_21  and  N7_23 
REMARK    3  A    between atoms: N7_23  and  C7_24 
REMARK    4  A    between atoms: C7_24  and  C8_25 
REMARK       I    between atoms: C8_25  and  N8_27 
REMARK    5  A    between atoms: N8_27  and  C9_29 
REMARK    6  A    between atoms: C9_29  and  C10_30 
ROOT
HETATM    1  N1  UNL     1      26.089  16.435  63.720  1.00  0.00    -0.382 N 
ATOM      2  H11 UNL     1      26.748  17.215  63.718  1.00  0.00     0.157 HD
ATOM      3  H12 UNL     1      25.902  15.891  64.562  1.00  0.00     0.157 HD
HETATM    4  C1  UNL     1      25.486  16.112  62.643  1.00  0.00     0.149 A 
HETATM    5  N2  UNL     1      24.604  15.068  62.647  1.00  0.00    -0.291 N 
ATOM      6  H2  UNL     1      24.437  14.541  63.504  1.00  0.00     0.172 HD
HETATM    7  C2  UNL     1      23.963  14.742  61.529  1.00  0.00     0.340 A 
HETATM    8  O1  UNL     1      23.153  13.793  61.512  1.00  0.00    -0.245 OA
HETATM    9  N3  UNL     1      24.196  15.453  60.394  1.00  0.00    -0.250 N 
ATOM     10  H3  UNL     1      23.702  15.200  59.538  1.00  0.00     0.192 HD
HETATM   11  N4  UNL     1      25.034  16.451  60.371  1.00  0.00    -0.278 N 
ATOM     12  H4  UNL     1      25.172  16.952  59.493  1.00  0.00     0.189 HD
HETATM   13  C3  UNL     1      25.744  16.859  61.488  1.00  0.00     0.168 A 
HETATM   14  N5  UNL     1      26.523  17.786  61.383  1.00  0.00    -0.291 N 
ATOM     15  H5  UNL     1      26.416  18.055  60.405  1.00  0.00     0.172 HD
HETATM   16  C4  UNL     1      27.420  18.635  61.812  1.00  0.00     0.322 C 
HETATM   17  O2  UNL     1      27.103  19.859  62.075  1.00  0.00    -0.247 OA
HETATM   18  N6  UNL     1      28.797  18.266  62.012  1.00  0.00    -0.333 N 
ATOM     19  H6  UNL     1      29.110  17.311  61.836  1.00  0.00     0.164 HD
ENDROOT
BRANCH  18  20
HETATM   20  C5  UNL     1      29.715  19.255  62.459  1.00  0.00     0.243 C 
BRANCH  20  21
HETATM   21  C6  UNL     1      29.853  19.205  63.986  1.00  0.00     0.309 C 
HETATM   22  O3  UNL     1      30.378  18.196  64.478  1.00  0.00    -0.255 OA
HETATM   23  N7  UNL     1      29.371  20.302  64.648  1.00  0.00    -0.377 NA
BRANCH  23  24
HETATM   24  C7  UNL     1      28.901  21.372  65.292  1.00  0.00     0.260 C 
BRANCH  24  25
HETATM   25  C8  UNL     1      27.450  21.624  64.940  1.00  0.00     0.270 C 
HETATM   26  O4  UNL     1      27.145  22.744  64.572  1.00  0.00    -0.266 OA
HETATM   27  N8  UNL     1      26.540  20.557  65.060  1.00  0.00    -0.347 N 
ATOM     28  H8  UNL     1      26.818  19.615  65.334  1.00  0.00     0.163 HD
BRANCH  27  29
HETATM   29  C9  UNL     1      25.134  20.929  64.750  1.00  0.00     0.222 C 
BRANCH  29  30
HETATM   30  C10 UNL     1      24.311  19.643  65.091  1.00  0.00     0.248 C 
HETATM   31  N9  UNL     1      22.920  19.776  65.014  1.00  0.00    -0.061 NA
HETATM   32  O5  UNL     1      24.973  18.673  65.386  1.00  0.00    -0.275 OA
ENDBRANCH  29  30
ENDBRANCH  27  29
ENDBRANCH  24  25
ENDBRANCH  23  24
ENDBRANCH  20  21
ENDBRANCH  18  20
TORSDOF 6
ENDMDL
MODEL 4
REMARK VINA RESULT: -7.293657467      2.135      4.082
REMARK  6 active torsions:
REMARK  status: ('A' for Active; 'I' for Inactive)
REMARK       I    between atoms: N5_14  and  C4_16 
REMARK       I    between atoms: C4_16  and  N6_18 
REMARK    1  A    between atoms: N6_18  and  C5_20 
REMARK    2  A    between atoms: C5_20  and  C6_21 
REMARK       I    between atoms: C6_21  and  N7_23 
REMARK    3  A    between atoms: N7_23  and  C7_24 
REMARK    4  A    between atoms: C7_24  and  C8_25 
REMARK       I    between atoms: C8_25  and  N8_27 
REMARK    5  A    between atoms: N8_27  and  C9_29 
REMARK    6  A    between atoms: C9_29  and  C10_30 
ROOT
HETATM    1  N1  UNL     1      23.872  17.584  64.112  1.00  0.00    -0.382 N 
ATOM      2  H11 UNL     1      24.283  18.433  64.501  1.00  0.00     0.157 HD
ATOM      3  H12 UNL     1      23.151  17.059  64.607  1.00  0.00     0.157 HD
HETATM    4  C1  UNL     1      24.271  17.148  62.981  1.00  0.00     0.149 A 
HETATM    5  N2  UNL     1      23.719  16.011  62.460  1.00  0.00    -0.291 N 
ATOM      6  H2  UNL     1      23.001  15.506  62.978  1.00  0.00     0.172 HD
HETATM    7  C2  UNL     1      24.123  15.566  61.274  1.00  0.00     0.340 A 
HETATM    8  O1  UNL     1      23.631  14.531  60.781  1.00  0.00    -0.245 OA
HETATM    9  N3  UNL     1      25.082  16.250  60.595  1.00  0.00    -0.250 N 
ATOM     10  H3  UNL     1      25.388  15.904  59.685  1.00  0.00     0.192 HD
HETATM   11  N4  UNL     1      25.619  17.335  61.076  1.00  0.00    -0.278 N 
ATOM     12  H4  UNL     1      26.335  17.811  60.526  1.00  0.00     0.189 HD
HETATM   13  C3  UNL     1      25.260  17.869  62.302  1.00  0.00     0.168 A 
HETATM   14  N5  UNL     1      25.821  18.875  62.693  1.00  0.00    -0.291 N 
ATOM     15  H5  UNL     1      26.455  19.087  61.923  1.00  0.00     0.172 HD
HETATM   16  C4  UNL     1      26.073  19.838  63.539  1.00  0.00     0.322 C 
HETATM   17  O2  UNL     1      25.609  21.028  63.348  1.00  0.00    -0.247 OA
HETATM   18  N6  UNL     1      26.875  19.638  64.719  1.00  0.00    -0.333 N 
ATOM     19  H6  UNL     1      27.260  18.719  64.935  1.00  0.00     0.164 HD
ENDROOT
BRANCH  18  20
HETATM   20  C5  UNL     1      27.121  20.744  65.576  1.00  0.00     0.243 C 
BRANCH  20  21
HETATM   21  C6  UNL     1      28.320  21.556  65.070  1.00  0.00     0.309 C 
HETATM   22  O3  UNL     1      28.542  22.648  65.613  1.00  0.00    -0.255 OA
HETATM   23  N7  UNL     1      29.027  20.972  64.052  1.00  0.00    -0.377 NA
BRANCH  23  24
HETATM   24  C7  UNL     1      29.715  20.402  63.061  1.00  0.00     0.260 C 
BRANCH  24  25
HETATM   25  C8  UNL     1      29.804  18.903  63.253  1.00  0.00     0.270 C 
HETATM   26  O4  UNL     1      29.908  18.484  64.391  1.00  0.00    -0.266 OA
HETATM   27  N8  UNL     1      29.763  18.080  62.110  1.00  0.00    -0.347 N 
ATOM     28  H8  UNL     1      29.637  18.445  61.166  1.00  0.00     0.163 HD
BRANCH  27  29
HETATM   29  C9  UNL     1      29.920  16.632  62.407  1.00  0.00     0.222 C 
BRANCH  29  30
HETATM   30  C10 UNL     1      28.479  16.048  62.243  1.00  0.00     0.248 C 
HETATM   31  N9  UNL     1      27.715  15.985  63.415  1.00  0.00    -0.061 NA
HETATM   32  O5  UNL     1      28.184  15.713  61.117  1.00  0.00    -0.275 OA
ENDBRANCH  29  30
ENDBRANCH  27  29
ENDBRANCH  24  25
ENDBRANCH  23  24
ENDBRANCH  20  21
ENDBRANCH  18  20
TORSDOF 6
ENDMDL
MODEL 5
REMARK VINA RESULT: -7.281745720      1.754      1.962
REMARK  6 active torsions:
REMARK  status: ('A' for Active; 'I' for Inactive)
REMARK       I    between atoms: N5_14  and  C4_16 
REMARK       I    between atoms: C4_16  and  N6_18 
REMARK    1  A    between atoms: N6_18  and  C5_20 
REMARK    2  A    between atoms: C5_20  and  C6_21 
REMARK       I    between atoms: C6_21  and  N7_23 
REMARK    3  A    between atoms: N7_23  and  C7_24 
REMARK    4  A    between atoms: C7_24  and  C8_25 
REMARK       I    between atoms: C8_25  and  N8_27 
REMARK    5  A    between atoms: N8_27  and  C9_29 
REMARK    6  A    between atoms: C9_29  and  C10_30 
ROOT
HETATM    1  N1  UNL     1      26.784  17.470  60.142  1.00  0.00    -0.382 N 
ATOM      2  H11 UNL     1      27.549  18.003  60.556  1.00  0.00     0.157 HD
ATOM      3  H12 UNL     1      26.577  17.512  59.144  1.00  0.00     0.157 HD
HETATM    4  C1  UNL     1      26.048  16.737  60.883  1.00  0.00     0.149 A 
HETATM    5  N2  UNL     1      25.023  16.024  60.327  1.00  0.00    -0.291 N 
ATOM      6  H2  UNL     1      24.839  16.086  59.326  1.00  0.00     0.172 HD
HETATM    7  C2  UNL     1      24.266  15.248  61.096  1.00  0.00     0.340 A 
HETATM    8  O1  UNL     1      23.327  14.587  60.608  1.00  0.00    -0.245 OA
HETATM    9  N3  UNL     1      24.524  15.175  62.429  1.00  0.00    -0.250 N 
ATOM     10  H3  UNL     1      23.941  14.577  63.016  1.00  0.00     0.192 HD
HETATM   11  N4  UNL     1      25.495  15.847  62.977  1.00  0.00    -0.278 N 
ATOM     12  H4  UNL     1      25.646  15.757  63.982  1.00  0.00     0.189 HD
HETATM   13  C3  UNL     1      26.332  16.680  62.252  1.00  0.00     0.168 A 
HETATM   14  N5  UNL     1      27.205  17.292  62.838  1.00  0.00    -0.291 N 
ATOM     15  H5  UNL     1      27.086  16.977  63.800  1.00  0.00     0.172 HD
HETATM   16  C4  UNL     1      28.209  18.123  62.933  1.00  0.00     0.322 C 
HETATM   17  O2  UNL     1      29.420  17.691  63.050  1.00  0.00    -0.247 OA
HETATM   18  N6  UNL     1      28.031  19.552  62.919  1.00  0.00    -0.333 N 
ATOM     19  H6  UNL     1      27.101  19.958  62.816  1.00  0.00     0.164 HD
ENDROOT
BRANCH  18  20
HETATM   20  C5  UNL     1      29.173  20.387  63.053  1.00  0.00     0.243 C 
BRANCH  20  21
HETATM   21  C6  UNL     1      29.106  21.178  64.365  1.00  0.00     0.309 C 
HETATM   22  O3  UNL     1      30.137  21.234  65.051  1.00  0.00    -0.255 OA
HETATM   23  N7  UNL     1      27.890  21.745  64.639  1.00  0.00    -0.377 NA
BRANCH  23  24
HETATM   24  C7  UNL     1      26.705  22.298  64.904  1.00  0.00     0.260 C 
BRANCH  24  25
HETATM   25  C8  UNL     1      25.771  21.296  65.549  1.00  0.00     0.270 C 
HETATM   26  O4  UNL     1      25.195  21.633  66.567  1.00  0.00    -0.266 OA
HETATM   27  N8  UNL     1      25.622  20.035  64.939  1.00  0.00    -0.347 N 
ATOM     28  H8  UNL     1      26.082  19.780  64.065  1.00  0.00     0.163 HD
BRANCH  27  29
HETATM   29  C9  UNL     1      24.731  19.107  65.687  1.00  0.00     0.222 C 
BRANCH  29  30
HETATM   30  C10 UNL     1      23.457  18.990  64.788  1.00  0.00     0.248 C 
HETATM   31  N9  UNL     1      23.465  17.940  63.862  1.00  0.00    -0.061 NA
HETATM   32  O5  UNL     1      22.603  19.824  64.993  1.00  0.00    -0.275 OA
ENDBRANCH  29  30
ENDBRANCH  27  29
ENDBRANCH  24  25
ENDBRANCH  23  24
ENDBRANCH  20  21
ENDBRANCH  18  20
TORSDOF 6
ENDMDL
