MODEL 1
REMARK VINA RESULT: -7.330518979      0.000      0.000
REMARK  9 active torsions:
REMARK  status: ('A' for Active; 'I' for Inactive)
REMARK    1  A    between atoms: C4_7  and  N3_8 
REMARK    2  A    between atoms: N3_8  and  C5_10 
REMARK    3  A    between atoms: C5_10  and  C6_11 
REMARK    4  A    between atoms: C6_11  and  C7_12 
REMARK    5  A    between atoms: C7_12  and  N4_13 
REMARK       I    between atoms: C8_15  and  N6_17 
REMARK    6  A    between atoms: N6_17  and  C9_19 
REMARK    7  A    between atoms: C9_19  and  C10_20 
REMARK    8  A    between atoms: C13_24  and  O1_25 
REMARK    9  A    between atoms: C14_29  and  N9_30 
ROOT
HETATM    1  N4  UNL     1      24.744  17.787  62.446  1.00  0.00    -0.365 N 
ATOM      2  H4  UNL     1      24.306  18.405  61.762  1.00  0.00     0.162 HD
HETATM    3  C8  UNL     1      25.644  18.256  63.225  1.00  0.00     0.184 C 
HETATM    4  N5  UNL     1      26.294  17.454  64.199  1.00  0.00    -0.064 NA
HETATM    5  N6  UNL     1      26.062  19.639  63.168  1.00  0.00    -0.360 N 
ATOM      6  H6  UNL     1      26.384  20.078  62.305  1.00  0.00     0.162 HD
ENDROOT
BRANCH   1   7
HETATM    7  C7  UNL     1      24.336  16.411  62.513  1.00  0.00     0.123 C 
BRANCH   7   8
HETATM    8  C6  UNL     1      24.239  15.783  61.128  1.00  0.00     0.039 C 
BRANCH   8   9
HETATM    9  C5  UNL     1      25.447  14.911  60.850  1.00  0.00     0.123 C 
BRANCH   9  10
HETATM   10  N3  UNL     1      26.330  15.557  59.931  1.00  0.00    -0.375 N 
ATOM     11  H3  UNL     1      26.326  15.270  58.952  1.00  0.00     0.161 HD
BRANCH  10  12
HETATM   12  C4  UNL     1      27.130  16.489  60.306  1.00  0.00     0.116 A 
HETATM   13  N2  UNL     1      27.109  17.721  59.805  1.00  0.00    -0.350 N 
HETATM   14  C3  UNL     1      27.996  18.649  60.263  1.00  0.00     0.107 A 
ATOM     15  H2  UNL     1      26.434  17.970  59.083  1.00  0.00     0.166 HD
HETATM   16  C2  UNL     1      28.904  18.299  61.240  1.00  0.00     0.107 A 
HETATM   17  N1  UNL     1      28.924  17.047  61.748  1.00  0.00    -0.366 N 
HETATM   18  C1  UNL     1      29.866  16.648  62.776  1.00  0.00     0.155 C 
HETATM   19  C15 UNL     1      28.056  16.136  61.301  1.00  0.00     0.138 A 
ENDBRANCH  10  12
ENDBRANCH   9  10
ENDBRANCH   8   9
ENDBRANCH   7   8
ENDBRANCH   1   7
BRANCH   5  20
HETATM   20  C9  UNL     1      25.991  20.349  64.410  1.00  0.00     0.166 C 
BRANCH  20  21
HETATM   21  C10 UNL     1      27.224  20.970  64.882  1.00  0.00     0.019 A 
HETATM   22  C11 UNL     1      28.424  20.348  64.968  1.00  0.00     0.106 A 
HETATM   23  N7  UNL     1      29.511  21.015  65.419  1.00  0.00    -0.327 N 
HETATM   24  C12 UNL     1      30.759  20.307  65.491  1.00  0.00     0.159 C 
HETATM   25  C13 UNL     1      29.381  22.303  65.778  1.00  0.00     0.224 A 
HETATM   26  N8  UNL     1      28.209  22.950  65.706  1.00  0.00    -0.308 N 
HETATM   27  C14 UNL     1      27.117  22.324  65.265  1.00  0.00     0.111 A 
ATOM     28  H8  UNL     1      28.152  23.928  65.989  1.00  0.00     0.171 HD
BRANCH  25  29
HETATM   29  O1  UNL     1      30.480  23.002  66.242  1.00  0.00    -0.332 OA
ATOM     30  H1  UNL     1      30.942  23.597  65.662  1.00  0.00     0.221 HD
ENDBRANCH  25  29
BRANCH  27  31
HETATM   31  N9  UNL     1      25.988  22.946  65.195  1.00  0.00    -0.385 N 
ATOM     32  H92 UNL     1      25.454  23.147  66.041  1.00  0.00     0.157 HD
ATOM     33  H91 UNL     1      25.610  23.247  64.297  1.00  0.00     0.157 HD
ENDBRANCH  27  31
ENDBRANCH  20  21
ENDBRANCH   5  20
TORSDOF 9
ENDMDL
MODEL 2
REMARK VINA RESULT: -6.970742276      1.846      2.457
REMARK  9 active torsions:
REMARK  status: ('A' for Active; 'I' for Inactive)
REMARK    1  A    between atoms: C4_7  and  N3_8 
REMARK    2  A    between atoms: N3_8  and  C5_10 
REMARK    3  A    between atoms: C5_10  and  C6_11 
REMARK    4  A    between atoms: C6_11  and  C7_12 
REMARK    5  A    between atoms: C7_12  and  N4_13 
REMARK       I    between atoms: C8_15  and  N6_17 
REMARK    6  A    between atoms: N6_17  and  C9_19 
REMARK    7  A    between atoms: C9_19  and  C10_20 
REMARK    8  A    between atoms: C13_24  and  O1_25 
REMARK    9  A    between atoms: C14_29  and  N9_30 
ROOT
HETATM    1  N4  UNL     1      24.007  17.842  64.586  1.00  0.00    -0.365 N 
ATOM      2  H4  UNL     1      24.787  17.236  64.844  1.00  0.00     0.162 HD
HETATM    3  C8  UNL     1      23.792  18.906  65.262  1.00  0.00     0.184 C 
HETATM    4  N5  UNL     1      22.726  19.792  64.958  1.00  0.00    -0.064 NA
HETATM    5  N6  UNL     1      24.622  19.281  66.384  1.00  0.00    -0.360 N 
ATOM      6  H6  UNL     1      24.798  18.652  67.168  1.00  0.00     0.162 HD
ENDROOT
BRANCH   1   7
HETATM    7  C7  UNL     1      23.176  17.480  63.471  1.00  0.00     0.123 C 
BRANCH   7   8
HETATM    8  C6  UNL     1      23.793  16.356  62.648  1.00  0.00     0.039 C 
BRANCH   8   9
HETATM    9  C5  UNL     1      23.504  16.552  61.173  1.00  0.00     0.123 C 
BRANCH   9  10
HETATM   10  N3  UNL     1      24.722  16.699  60.439  1.00  0.00    -0.375 N 
ATOM     11  H3  UNL     1      24.819  17.477  59.787  1.00  0.00     0.161 HD
BRANCH  10  12
HETATM   12  C4  UNL     1      25.697  15.875  60.579  1.00  0.00     0.116 A 
HETATM   13  N2  UNL     1      25.634  14.594  60.227  1.00  0.00    -0.350 N 
HETATM   14  C3  UNL     1      26.719  13.790  60.412  1.00  0.00     0.107 A 
ATOM     15  H2  UNL     1      24.779  14.215  59.821  1.00  0.00     0.166 HD
HETATM   16  C2  UNL     1      27.870  14.316  60.962  1.00  0.00     0.107 A 
HETATM   17  N1  UNL     1      27.932  15.618  61.319  1.00  0.00    -0.366 N 
HETATM   18  C1  UNL     1      29.127  16.199  61.900  1.00  0.00     0.155 C 
HETATM   19  C15 UNL     1      26.871  16.406  61.140  1.00  0.00     0.138 A 
ENDBRANCH  10  12
ENDBRANCH   9  10
ENDBRANCH   8   9
ENDBRANCH   7   8
ENDBRANCH   1   7
BRANCH   5  20
HETATM   20  C9  UNL     1      25.179  20.599  66.317  1.00  0.00     0.166 C 
BRANCH  20  21
HETATM   21  C10 UNL     1      26.508  20.719  65.726  1.00  0.00     0.019 A 
HETATM   22  C11 UNL     1      27.371  19.692  65.538  1.00  0.00     0.106 A 
HETATM   23  N7  UNL     1      28.583  19.909  64.980  1.00  0.00    -0.327 N 
HETATM   24  C12 UNL     1      29.460  18.784  64.805  1.00  0.00     0.159 C 
HETATM   25  C13 UNL     1      28.916  21.158  64.614  1.00  0.00     0.224 A 
HETATM   26  N8  UNL     1      28.087  22.198  64.784  1.00  0.00    -0.308 N 
HETATM   27  C14 UNL     1      26.884  22.020  65.331  1.00  0.00     0.111 A 
ATOM     28  H8  UNL     1      28.379  23.131  64.494  1.00  0.00     0.171 HD
BRANCH  25  29
HETATM   29  O1  UNL     1      30.152  21.401  64.041  1.00  0.00    -0.332 OA
ATOM     30  H1  UNL     1      30.450  22.295  63.921  1.00  0.00     0.221 HD
ENDBRANCH  25  29
BRANCH  27  31
HETATM   31  N9  UNL     1      26.085  23.021  65.496  1.00  0.00    -0.385 N 
ATOM     32  H92 UNL     1      26.016  23.751  64.786  1.00  0.00     0.157 HD
ATOM     33  H91 UNL     1      25.511  23.101  66.335  1.00  0.00     0.157 HD
ENDBRANCH  27  31
ENDBRANCH  20  21
ENDBRANCH   5  20
TORSDOF 9
ENDMDL
MODEL 3
REMARK VINA RESULT: -6.859461598      0.808      1.415
REMARK  9 active torsions:
REMARK  status: ('A' for Active; 'I' for Inactive)
REMARK    1  A    between atoms: C4_7  and  N3_8 
REMARK    2  A    between atoms: N3_8  and  C5_10 
REMARK    3  A    between atoms: C5_10  and  C6_11 
REMARK    4  A    between atoms: C6_11  and  C7_12 
REMARK    5  A    between atoms: C7_12  and  N4_13 
REMARK       I    between atoms: C8_15  and  N6_17 
REMARK    6  A    between atoms: N6_17  and  C9_19 
REMARK    7  A    between atoms: C9_19  and  C10_20 
REMARK    8  A    between atoms: C13_24  and  O1_25 
REMARK    9  A    between atoms: C14_29  and  N9_30 
ROOT
HETATM    1  N4  UNL     1      24.298  17.478  62.345  1.00  0.00    -0.365 N 
ATOM      2  H4  UNL     1      23.782  18.119  61.741  1.00  0.00     0.162 HD
HETATM    3  C8  UNL     1      25.292  17.918  63.018  1.00  0.00     0.184 C 
HETATM    4  N5  UNL     1      26.052  17.082  63.877  1.00  0.00    -0.064 NA
HETATM    5  N6  UNL     1      25.711  19.300  62.952  1.00  0.00    -0.360 N 
ATOM      6  H6  UNL     1      25.925  19.764  62.070  1.00  0.00     0.162 HD
ENDROOT
BRANCH   1   7
HETATM    7  C7  UNL     1      23.890  16.102  62.419  1.00  0.00     0.123 C 
BRANCH   7   8
HETATM    8  C6  UNL     1      23.984  15.411  61.065  1.00  0.00     0.039 C 
BRANCH   8   9
HETATM    9  C5  UNL     1      25.233  14.556  60.986  1.00  0.00     0.123 C 
BRANCH   9  10
HETATM   10  N3  UNL     1      26.221  15.187  60.167  1.00  0.00    -0.375 N 
ATOM     11  H3  UNL     1      26.187  15.055  59.156  1.00  0.00     0.161 HD
BRANCH  10  12
HETATM   12  C4  UNL     1      27.149  15.916  60.672  1.00  0.00     0.116 A 
HETATM   13  N2  UNL     1      28.039  15.467  61.553  1.00  0.00    -0.350 N 
HETATM   14  C3  UNL     1      28.993  16.312  62.037  1.00  0.00     0.107 A 
ATOM     15  H2  UNL     1      28.009  14.497  61.863  1.00  0.00     0.166 HD
HETATM   16  C2  UNL     1      29.023  17.622  61.607  1.00  0.00     0.107 A 
HETATM   17  N1  UNL     1      28.118  18.077  60.713  1.00  0.00    -0.366 N 
HETATM   18  C1  UNL     1      28.123  19.449  60.243  1.00  0.00     0.155 C 
HETATM   19  C15 UNL     1      27.183  17.251  60.238  1.00  0.00     0.138 A 
ENDBRANCH  10  12
ENDBRANCH   9  10
ENDBRANCH   8   9
ENDBRANCH   7   8
ENDBRANCH   1   7
BRANCH   5  20
HETATM   20  C9  UNL     1      25.803  19.969  64.215  1.00  0.00     0.166 C 
BRANCH  20  21
HETATM   21  C10 UNL     1      27.113  20.495  64.584  1.00  0.00     0.019 A 
HETATM   22  C11 UNL     1      28.258  19.772  64.623  1.00  0.00     0.106 A 
HETATM   23  N7  UNL     1      29.425  20.355  64.979  1.00  0.00    -0.327 N 
HETATM   24  C12 UNL     1      30.609  19.542  65.005  1.00  0.00     0.159 C 
HETATM   25  C13 UNL     1      29.430  21.662  65.292  1.00  0.00     0.224 A 
HETATM   26  N8  UNL     1      28.317  22.408  65.264  1.00  0.00    -0.308 N 
HETATM   27  C14 UNL     1      27.149  21.866  64.917  1.00  0.00     0.111 A 
ATOM     28  H8  UNL     1      28.363  23.397  65.510  1.00  0.00     0.171 HD
BRANCH  25  29
HETATM   29  O1  UNL     1      30.614  22.277  65.659  1.00  0.00    -0.332 OA
ATOM     30  H1  UNL     1      30.859  23.105  65.262  1.00  0.00     0.221 HD
ENDBRANCH  25  29
BRANCH  27  31
HETATM   31  N9  UNL     1      26.076  22.583  64.890  1.00  0.00    -0.385 N 
ATOM     32  H92 UNL     1      26.034  23.471  65.391  1.00  0.00     0.157 HD
ATOM     33  H91 UNL     1      25.254  22.278  64.369  1.00  0.00     0.157 HD
ENDBRANCH  27  31
ENDBRANCH  20  21
ENDBRANCH   5  20
TORSDOF 9
ENDMDL
MODEL 4
REMARK VINA RESULT: -6.852731608      2.931      7.423
REMARK  9 active torsions:
REMARK  status: ('A' for Active; 'I' for Inactive)
REMARK    1  A    between atoms: C4_7  and  N3_8 
REMARK    2  A    between atoms: N3_8  and  C5_10 
REMARK    3  A    between atoms: C5_10  and  C6_11 
REMARK    4  A    between atoms: C6_11  and  C7_12 
REMARK    5  A    between atoms: C7_12  and  N4_13 
REMARK       I    between atoms: C8_15  and  N6_17 
REMARK    6  A    between atoms: N6_17  and  C9_19 
REMARK    7  A    between atoms: C9_19  and  C10_20 
REMARK    8  A    between atoms: C13_24  and  O1_25 
REMARK    9  A    between atoms: C14_29  and  N9_30 
ROOT
HETATM    1  N4  UNL     1      29.087  19.094  60.820  1.00  0.00    -0.365 N 
ATOM      2  H4  UNL     1      29.156  19.419  59.856  1.00  0.00     0.162 HD
HETATM    3  C8  UNL     1      28.114  18.334  61.155  1.00  0.00     0.184 C 
HETATM    4  N5  UNL     1      27.957  17.846  62.478  1.00  0.00    -0.064 NA
HETATM    5  N6  UNL     1      27.105  17.918  60.207  1.00  0.00    -0.360 N 
ATOM      6  H6  UNL     1      26.574  18.585  59.647  1.00  0.00     0.162 HD
ENDROOT
BRANCH   1   7
HETATM    7  C7  UNL     1      30.084  19.499  61.771  1.00  0.00     0.123 C 
BRANCH   7   8
HETATM    8  C6  UNL     1      29.808  20.894  62.321  1.00  0.00     0.039 C 
BRANCH   8   9
HETATM    9  C5  UNL     1      29.583  20.844  63.818  1.00  0.00     0.123 C 
BRANCH   9  10
HETATM   10  N3  UNL     1      28.475  21.670  64.186  1.00  0.00    -0.375 N 
ATOM     11  H3  UNL     1      28.558  22.682  64.096  1.00  0.00     0.161 HD
BRANCH  10  12
HETATM   12  C4  UNL     1      27.379  21.169  64.627  1.00  0.00     0.116 A 
HETATM   13  N2  UNL     1      26.685  20.234  63.982  1.00  0.00    -0.350 N 
HETATM   14  C3  UNL     1      25.530  19.758  64.525  1.00  0.00     0.107 A 
ATOM     15  H2  UNL     1      27.017  19.876  63.087  1.00  0.00     0.166 HD
HETATM   16  C2  UNL     1      25.093  20.251  65.737  1.00  0.00     0.107 A 
HETATM   17  N1  UNL     1      25.798  21.201  66.391  1.00  0.00    -0.366 N 
HETATM   18  C1  UNL     1      25.365  21.739  67.666  1.00  0.00     0.155 C 
HETATM   19  C15 UNL     1      26.930  21.669  65.860  1.00  0.00     0.138 A 
ENDBRANCH  10  12
ENDBRANCH   9  10
ENDBRANCH   8   9
ENDBRANCH   7   8
ENDBRANCH   1   7
BRANCH   5  20
HETATM   20  C9  UNL     1      26.906  16.503  60.110  1.00  0.00     0.166 C 
BRANCH  20  21
HETATM   21  C10 UNL     1      25.829  15.936  60.915  1.00  0.00     0.019 A 
HETATM   22  C11 UNL     1      24.983  16.650  61.696  1.00  0.00     0.106 A 
HETATM   23  N7  UNL     1      24.014  16.028  62.405  1.00  0.00    -0.327 N 
HETATM   24  C12 UNL     1      23.146  16.833  63.218  1.00  0.00     0.159 C 
HETATM   25  C13 UNL     1      23.904  14.692  62.321  1.00  0.00     0.224 A 
HETATM   26  N8  UNL     1      24.724  13.954  61.559  1.00  0.00    -0.308 N 
HETATM   27  C14 UNL     1      25.690  14.534  60.846  1.00  0.00     0.111 A 
ATOM     28  H8  UNL     1      24.607  12.941  61.524  1.00  0.00     0.171 HD
BRANCH  25  29
HETATM   29  O1  UNL     1      22.920  14.036  63.039  1.00  0.00    -0.332 OA
ATOM     30  H1  UNL     1      22.007  14.151  62.803  1.00  0.00     0.221 HD
ENDBRANCH  25  29
BRANCH  27  31
HETATM   31  N9  UNL     1      26.478  13.824  60.111  1.00  0.00    -0.385 N 
ATOM     32  H92 UNL     1      26.696  12.860  60.366  1.00  0.00     0.157 HD
ATOM     33  H91 UNL     1      26.898  14.211  59.266  1.00  0.00     0.157 HD
ENDBRANCH  27  31
ENDBRANCH  20  21
ENDBRANCH   5  20
TORSDOF 9
ENDMDL
MODEL 5
REMARK VINA RESULT: -6.821142562      1.922      5.625
REMARK  9 active torsions:
REMARK  status: ('A' for Active; 'I' for Inactive)
REMARK    1  A    between atoms: C4_7  and  N3_8 
REMARK    2  A    between atoms: N3_8  and  C5_10 
REMARK    3  A    between atoms: C5_10  and  C6_11 
REMARK    4  A    between atoms: C6_11  and  C7_12 
REMARK    5  A    between atoms: C7_12  and  N4_13 
REMARK       I    between atoms: C8_15  and  N6_17 
REMARK    6  A    between atoms: N6_17  and  C9_19 
REMARK    7  A    between atoms: C9_19  and  C10_20 
REMARK    8  A    between atoms: C13_24  and  O1_25 
REMARK    9  A    between atoms: C14_29  and  N9_30 
ROOT
HETATM    1  N4  UNL     1      24.099  15.472  61.458  1.00  0.00    -0.365 N 
ATOM      2  H4  UNL     1      23.625  15.887  60.655  1.00  0.00     0.162 HD
HETATM    3  C8  UNL     1      25.102  14.704  61.263  1.00  0.00     0.184 C 
HETATM    4  N5  UNL     1      25.807  14.095  62.333  1.00  0.00    -0.064 NA
HETATM    5  N6  UNL     1      25.590  14.402  59.936  1.00  0.00    -0.360 N 
ATOM      6  H6  UNL     1      24.986  14.030  59.203  1.00  0.00     0.162 HD
ENDROOT
BRANCH   1   7
HETATM    7  C7  UNL     1      23.624  15.765  62.781  1.00  0.00     0.123 C 
BRANCH   7   8
HETATM    8  C6  UNL     1      23.792  17.239  63.129  1.00  0.00     0.039 C 
BRANCH   8   9
HETATM    9  C5  UNL     1      25.240  17.551  63.453  1.00  0.00     0.123 C 
BRANCH   9  10
HETATM   10  N3  UNL     1      25.633  18.786  62.851  1.00  0.00    -0.375 N 
ATOM     11  H3  UNL     1      25.640  18.864  61.834  1.00  0.00     0.161 HD
BRANCH  10  12
HETATM   12  C4  UNL     1      25.980  19.800  63.558  1.00  0.00     0.116 A 
HETATM   13  N2  UNL     1      25.127  20.734  63.971  1.00  0.00    -0.350 N 
HETATM   14  C3  UNL     1      25.582  21.778  64.720  1.00  0.00     0.107 A 
ATOM     15  H2  UNL     1      24.139  20.670  63.729  1.00  0.00     0.166 HD
HETATM   16  C2  UNL     1      26.922  21.853  65.040  1.00  0.00     0.107 A 
HETATM   17  N1  UNL     1      27.787  20.903  64.620  1.00  0.00    -0.366 N 
HETATM   18  C1  UNL     1      29.200  20.955  64.940  1.00  0.00     0.155 C 
HETATM   19  C15 UNL     1      27.343  19.881  63.886  1.00  0.00     0.138 A 
ENDBRANCH  10  12
ENDBRANCH   9  10
ENDBRANCH   8   9
ENDBRANCH   7   8
ENDBRANCH   1   7
BRANCH   5  20
HETATM   20  C9  UNL     1      26.982  14.665  59.724  1.00  0.00     0.166 C 
BRANCH  20  21
HETATM   21  C10 UNL     1      27.452  16.009  60.043  1.00  0.00     0.019 A 
HETATM   22  C11 UNL     1      28.238  16.327  61.099  1.00  0.00     0.106 A 
HETATM   23  N7  UNL     1      28.621  17.608  61.308  1.00  0.00    -0.327 N 
HETATM   24  C12 UNL     1      29.453  17.889  62.444  1.00  0.00     0.159 C 
HETATM   25  C13 UNL     1      28.210  18.557  60.451  1.00  0.00     0.224 A 
HETATM   26  N8  UNL     1      27.432  18.278  59.395  1.00  0.00    -0.308 N 
HETATM   27  C14 UNL     1      27.036  17.026  59.159  1.00  0.00     0.111 A 
ATOM     28  H8  UNL     1      27.140  19.028  58.769  1.00  0.00     0.171 HD
BRANCH  25  29
HETATM   29  O1  UNL     1      28.590  19.872  60.647  1.00  0.00    -0.332 OA
ATOM     30  H1  UNL     1      29.435  20.067  61.036  1.00  0.00     0.221 HD
ENDBRANCH  25  29
BRANCH  27  31
HETATM   31  N9  UNL     1      26.287  16.757  58.142  1.00  0.00    -0.385 N 
ATOM     32  H92 UNL     1      26.613  16.122  57.413  1.00  0.00     0.157 HD
ATOM     33  H91 UNL     1      25.361  17.173  58.049  1.00  0.00     0.157 HD
ENDBRANCH  27  31
ENDBRANCH  20  21
ENDBRANCH   5  20
TORSDOF 9
ENDMDL
