MODEL 1
REMARK VINA RESULT: -6.537147049      0.000      0.000
REMARK  10 active torsions:
REMARK  status: ('A' for Active; 'I' for Inactive)
REMARK    1  A    between atoms: C1_2  and  C2_3 
REMARK    2  A    between atoms: C2_3  and  C3_4 
REMARK    3  A    between atoms: C2_3  and  N3_13 
REMARK    4  A    between atoms: C3_4  and  C4_5 
REMARK    5  A    between atoms: N3_13  and  C7_15 
REMARK    6  A    between atoms: C7_15  and  C8_16 
REMARK    7  A    between atoms: C7_15  and  C10_20 
REMARK    8  A    between atoms: C8_16  and  C9_17 
REMARK    9  A    between atoms: C9_17  and  O3_18 
REMARK   10  A    between atoms: C13_23  and  C14_24 
ROOT
HETATM    1  C7  UNL     1      26.749  16.905  60.748  1.00  0.00     0.034 C 
ENDROOT
BRANCH   1   2
HETATM    2  N3  UNL     1      25.566  17.296  61.429  1.00  0.00    -0.380 N 
ATOM      3  H3  UNL     1      25.015  18.052  61.022  1.00  0.00     0.160 HD
BRANCH   2   4
HETATM    4  C2  UNL     1      25.085  16.704  62.652  1.00  0.00     0.148 C 
BRANCH   4   5
HETATM    5  C1  UNL     1      23.865  15.897  62.359  1.00  0.00     0.256 C 
HETATM    6  O1  UNL     1      23.914  14.676  62.369  1.00  0.00    -0.305 OA
ENDBRANCH   4   5
BRANCH   4   7
HETATM    7  C3  UNL     1      24.846  17.725  63.711  1.00  0.00     0.090 C 
BRANCH   7   8
HETATM    8  C4  UNL     1      25.962  18.673  63.923  1.00  0.00     0.031 A 
HETATM    9  C5  UNL     1      27.103  18.294  64.647  1.00  0.00     0.118 A 
HETATM   10  N1  UNL     1      27.920  19.354  64.695  1.00  0.00    -0.317 N 
HETATM   11  C6  UNL     1      27.364  20.381  64.045  1.00  0.00     0.324 A 
ATOM     12  H1  UNL     1      28.829  19.374  65.157  1.00  0.00     0.170 HD
HETATM   13  O2  UNL     1      27.791  21.551  63.853  1.00  0.00    -0.247 OA
HETATM   14  N2  UNL     1      26.160  19.937  63.581  1.00  0.00    -0.311 N 
ATOM     15  H2  UNL     1      25.502  20.502  63.044  1.00  0.00     0.170 HD
ENDBRANCH   7   8
ENDBRANCH   4   7
ENDBRANCH   2   4
ENDBRANCH   1   2
BRANCH   1  16
HETATM   16  C8  UNL     1      26.772  15.959  59.615  1.00  0.00     0.085 C 
BRANCH  16  17
HETATM   17  C9  UNL     1      26.801  14.517  59.958  1.00  0.00     0.170 C 
BRANCH  17  18
HETATM   18  O3  UNL     1      25.520  13.963  60.032  1.00  0.00    -0.400 OA
ATOM     19  H3  UNL     1      25.341  13.369  59.313  1.00  0.00     0.209 HD
ENDBRANCH  17  18
ENDBRANCH  16  17
ENDBRANCH   1  16
BRANCH   1  20
HETATM   20  C10 UNL     1      27.889  17.448  61.120  1.00  0.00     0.055 A 
HETATM   21  C11 UNL     1      28.357  18.709  60.876  1.00  0.00     0.034 A 
HETATM   22  C12 UNL     1      29.606  18.866  61.458  1.00  0.00     0.032 A 
HETATM   23  C13 UNL     1      29.883  17.659  62.063  1.00  0.00     0.038 A 
HETATM   24  N5  UNL     1      28.844  16.847  61.841  1.00  0.00    -0.354 N 
ATOM     25  H5  UNL     1      28.786  15.886  62.179  1.00  0.00     0.166 HD
BRANCH  23  26
HETATM   26  C14 UNL     1      30.967  17.341  62.743  1.00  0.00    -0.003 C 
HETATM   27  C15 UNL     1      31.281  16.988  64.164  1.00  0.00     0.270 C 
HETATM   28  N4  UNL     1      32.617  17.533  63.924  1.00  0.00    -0.068 N 
HETATM   29  C16 UNL     1      32.420  17.156  62.518  1.00  0.00     0.270 C 
ATOM     30  H42 UNL     1      32.859  18.487  64.192  1.00  0.00     0.277 HD
ATOM     31  H41 UNL     1      33.427  17.212  64.455  1.00  0.00     0.277 HD
ENDBRANCH  23  26
ENDBRANCH   1  20
TORSDOF 10
ENDMDL
MODEL 2
REMARK VINA RESULT: -6.456213273      2.010      4.343
REMARK  10 active torsions:
REMARK  status: ('A' for Active; 'I' for Inactive)
REMARK    1  A    between atoms: C1_2  and  C2_3 
REMARK    2  A    between atoms: C2_3  and  C3_4 
REMARK    3  A    between atoms: C2_3  and  N3_13 
REMARK    4  A    between atoms: C3_4  and  C4_5 
REMARK    5  A    between atoms: N3_13  and  C7_15 
REMARK    6  A    between atoms: C7_15  and  C8_16 
REMARK    7  A    between atoms: C7_15  and  C10_20 
REMARK    8  A    between atoms: C8_16  and  C9_17 
REMARK    9  A    between atoms: C9_17  and  O3_18 
REMARK   10  A    between atoms: C13_23  and  C14_24 
ROOT
HETATM    1  C7  UNL     1      25.264  16.515  62.818  1.00  0.00     0.034 C 
ENDROOT
BRANCH   1   2
HETATM    2  N3  UNL     1      26.469  15.778  62.682  1.00  0.00    -0.380 N 
ATOM      3  H3  UNL     1      26.790  15.245  63.490  1.00  0.00     0.160 HD
BRANCH   2   4
HETATM    4  C2  UNL     1      27.273  15.726  61.486  1.00  0.00     0.148 C 
BRANCH   4   5
HETATM    5  C1  UNL     1      27.373  14.311  61.025  1.00  0.00     0.256 C 
HETATM    6  O1  UNL     1      26.668  13.907  60.111  1.00  0.00    -0.305 OA
ENDBRANCH   4   5
BRANCH   4   7
HETATM    7  C3  UNL     1      28.611  16.351  61.685  1.00  0.00     0.090 C 
BRANCH   7   8
HETATM    8  C4  UNL     1      28.652  17.815  61.469  1.00  0.00     0.031 A 
HETATM    9  C5  UNL     1      27.983  18.403  60.385  1.00  0.00     0.118 A 
HETATM   10  N1  UNL     1      28.218  19.720  60.433  1.00  0.00    -0.317 N 
HETATM   11  C6  UNL     1      28.997  20.001  61.482  1.00  0.00     0.324 A 
ATOM     12  H1  UNL     1      27.858  20.405  59.769  1.00  0.00     0.170 HD
HETATM   13  O2  UNL     1      29.451  21.104  61.889  1.00  0.00    -0.247 OA
HETATM   14  N2  UNL     1      29.251  18.811  62.103  1.00  0.00    -0.311 N 
ATOM     15  H2  UNL     1      29.823  18.705  62.940  1.00  0.00     0.170 HD
ENDBRANCH   7   8
ENDBRANCH   4   7
ENDBRANCH   2   4
ENDBRANCH   1   2
BRANCH   1  16
HETATM   16  C8  UNL     1      23.983  16.120  62.198  1.00  0.00     0.085 C 
BRANCH  16  17
HETATM   17  C9  UNL     1      23.773  14.669  61.983  1.00  0.00     0.170 C 
BRANCH  17  18
HETATM   18  O3  UNL     1      23.755  14.330  60.627  1.00  0.00    -0.400 OA
ATOM     19  H3  UNL     1      24.499  14.685  60.155  1.00  0.00     0.209 HD
ENDBRANCH  17  18
ENDBRANCH  16  17
ENDBRANCH   1  16
BRANCH   1  20
HETATM   20  C10 UNL     1      25.275  17.592  63.575  1.00  0.00     0.055 A 
HETATM   21  C11 UNL     1      24.303  18.057  64.416  1.00  0.00     0.034 A 
HETATM   22  C12 UNL     1      24.733  19.227  65.026  1.00  0.00     0.032 A 
HETATM   23  C13 UNL     1      25.996  19.458  64.527  1.00  0.00     0.038 A 
HETATM   24  N5  UNL     1      26.281  18.470  63.672  1.00  0.00    -0.354 N 
ATOM     25  H5  UNL     1      27.158  18.394  63.157  1.00  0.00     0.166 HD
BRANCH  23  26
HETATM   26  C14 UNL     1      26.797  20.463  64.824  1.00  0.00    -0.003 C 
HETATM   27  C15 UNL     1      26.671  21.953  64.904  1.00  0.00     0.270 C 
HETATM   28  N4  UNL     1      28.097  22.015  64.587  1.00  0.00    -0.068 N 
HETATM   29  C16 UNL     1      28.205  20.695  65.226  1.00  0.00     0.270 C 
ATOM     30  H42 UNL     1      28.425  22.175  63.635  1.00  0.00     0.277 HD
ATOM     31  H41 UNL     1      28.676  22.800  64.885  1.00  0.00     0.277 HD
ENDBRANCH  23  26
ENDBRANCH   1  20
TORSDOF 10
ENDMDL
MODEL 3
REMARK VINA RESULT: -6.422014271      2.568      2.968
REMARK  10 active torsions:
REMARK  status: ('A' for Active; 'I' for Inactive)
REMARK    1  A    between atoms: C1_2  and  C2_3 
REMARK    2  A    between atoms: C2_3  and  C3_4 
REMARK    3  A    between atoms: C2_3  and  N3_13 
REMARK    4  A    between atoms: C3_4  and  C4_5 
REMARK    5  A    between atoms: N3_13  and  C7_15 
REMARK    6  A    between atoms: C7_15  and  C8_16 
REMARK    7  A    between atoms: C7_15  and  C10_20 
REMARK    8  A    between atoms: C8_16  and  C9_17 
REMARK    9  A    between atoms: C9_17  and  O3_18 
REMARK   10  A    between atoms: C13_23  and  C14_24 
ROOT
HETATM    1  C7  UNL     1      26.573  15.854  60.316  1.00  0.00     0.034 C 
ENDROOT
BRANCH   1   2
HETATM    2  N3  UNL     1      25.160  15.791  60.426  1.00  0.00    -0.380 N 
ATOM      3  H3  UNL     1      24.614  15.886  59.570  1.00  0.00     0.160 HD
BRANCH   2   4
HETATM    4  C2  UNL     1      24.437  15.602  61.660  1.00  0.00     0.148 C 
BRANCH   4   5
HETATM    5  C1  UNL     1      23.646  14.340  61.575  1.00  0.00     0.256 C 
HETATM    6  O1  UNL     1      23.343  13.730  62.590  1.00  0.00    -0.305 OA
ENDBRANCH   4   5
BRANCH   4   7
HETATM    7  C3  UNL     1      23.588  16.780  61.996  1.00  0.00     0.090 C 
BRANCH   7   8
HETATM    8  C4  UNL     1      23.851  17.377  63.323  1.00  0.00     0.031 A 
HETATM    9  C5  UNL     1      25.146  17.392  63.865  1.00  0.00     0.118 A 
HETATM   10  N1  UNL     1      25.071  17.967  65.071  1.00  0.00    -0.317 N 
HETATM   11  C6  UNL     1      23.807  18.317  65.327  1.00  0.00     0.324 A 
ATOM     12  H1  UNL     1      25.860  18.116  65.700  1.00  0.00     0.170 HD
HETATM   13  O2  UNL     1      23.305  18.878  66.337  1.00  0.00    -0.247 OA
HETATM   14  N2  UNL     1      23.076  17.942  64.236  1.00  0.00    -0.311 N 
ATOM     15  H2  UNL     1      22.070  18.078  64.139  1.00  0.00     0.170 HD
ENDBRANCH   7   8
ENDBRANCH   4   7
ENDBRANCH   2   4
ENDBRANCH   1   2
BRANCH   1  16
HETATM   16  C8  UNL     1      27.430  14.686  60.032  1.00  0.00     0.085 C 
BRANCH  16  17
HETATM   17  C9  UNL     1      27.758  13.812  61.183  1.00  0.00     0.170 C 
BRANCH  17  18
HETATM   18  O3  UNL     1      27.444  14.406  62.409  1.00  0.00    -0.400 OA
ATOM     19  H3  UNL     1      26.696  13.997  62.828  1.00  0.00     0.209 HD
ENDBRANCH  17  18
ENDBRANCH  16  17
ENDBRANCH   1  16
BRANCH   1  20
HETATM   20  C10 UNL     1      27.154  17.030  60.431  1.00  0.00     0.055 A 
HETATM   21  C11 UNL     1      27.469  17.930  59.452  1.00  0.00     0.034 A 
HETATM   22  C12 UNL     1      28.069  19.046  60.016  1.00  0.00     0.032 A 
HETATM   23  C13 UNL     1      28.110  18.795  61.370  1.00  0.00     0.038 A 
HETATM   24  N5  UNL     1      27.560  17.593  61.576  1.00  0.00    -0.354 N 
ATOM     25  H5  UNL     1      27.461  17.159  62.494  1.00  0.00     0.166 HD
BRANCH  23  26
HETATM   26  C14 UNL     1      28.597  19.581  62.310  1.00  0.00    -0.003 C 
HETATM   27  C15 UNL     1      28.189  19.983  63.694  1.00  0.00     0.270 C 
HETATM   28  N4  UNL     1      28.903  21.238  63.457  1.00  0.00    -0.068 N 
HETATM   29  C16 UNL     1      29.758  20.474  62.538  1.00  0.00     0.270 C 
ATOM     30  H42 UNL     1      28.415  22.081  63.156  1.00  0.00     0.277 HD
ATOM     31  H41 UNL     1      29.297  21.780  64.226  1.00  0.00     0.277 HD
ENDBRANCH  23  26
ENDBRANCH   1  20
TORSDOF 10
ENDMDL
MODEL 4
REMARK VINA RESULT: -6.410807764      2.476      6.493
REMARK  10 active torsions:
REMARK  status: ('A' for Active; 'I' for Inactive)
REMARK    1  A    between atoms: C1_2  and  C2_3 
REMARK    2  A    between atoms: C2_3  and  C3_4 
REMARK    3  A    between atoms: C2_3  and  N3_13 
REMARK    4  A    between atoms: C3_4  and  C4_5 
REMARK    5  A    between atoms: N3_13  and  C7_15 
REMARK    6  A    between atoms: C7_15  and  C8_16 
REMARK    7  A    between atoms: C7_15  and  C10_20 
REMARK    8  A    between atoms: C8_16  and  C9_17 
REMARK    9  A    between atoms: C9_17  and  O3_18 
REMARK   10  A    between atoms: C13_23  and  C14_24 
ROOT
HETATM    1  C7  UNL     1      26.587  20.411  63.897  1.00  0.00     0.034 C 
ENDROOT
BRANCH   1   2
HETATM    2  N3  UNL     1      27.756  20.868  63.237  1.00  0.00    -0.380 N 
ATOM      3  H3  UNL     1      27.722  21.789  62.799  1.00  0.00     0.160 HD
BRANCH   2   4
HETATM    4  C2  UNL     1      28.990  20.128  63.138  1.00  0.00     0.148 C 
BRANCH   4   5
HETATM    5  C1  UNL     1      30.050  20.838  63.911  1.00  0.00     0.256 C 
HETATM    6  O1  UNL     1      29.752  21.728  64.695  1.00  0.00    -0.305 OA
ENDBRANCH   4   5
BRANCH   4   7
HETATM    7  C3  UNL     1      29.387  19.891  61.722  1.00  0.00     0.090 C 
BRANCH   7   8
HETATM    8  C4  UNL     1      28.647  18.804  61.042  1.00  0.00     0.031 A 
HETATM    9  C5  UNL     1      28.708  17.484  61.515  1.00  0.00     0.118 A 
HETATM   10  N1  UNL     1      27.968  16.728  60.695  1.00  0.00    -0.317 N 
HETATM   11  C6  UNL     1      27.443  17.490  59.730  1.00  0.00     0.324 A 
ATOM     12  H1  UNL     1      27.827  15.723  60.791  1.00  0.00     0.170 HD
HETATM   13  O2  UNL     1      26.694  17.181  58.765  1.00  0.00    -0.247 OA
HETATM   14  N2  UNL     1      27.877  18.763  59.966  1.00  0.00    -0.311 N 
ATOM     15  H2  UNL     1      27.640  19.571  59.391  1.00  0.00     0.170 HD
ENDBRANCH   7   8
ENDBRANCH   4   7
ENDBRANCH   2   4
ENDBRANCH   1   2
BRANCH   1  16
HETATM   16  C8  UNL     1      25.696  21.281  64.691  1.00  0.00     0.085 C 
BRANCH  16  17
HETATM   17  C9  UNL     1      26.340  22.402  65.416  1.00  0.00     0.170 C 
BRANCH  17  18
HETATM   18  O3  UNL     1      26.745  23.427  64.557  1.00  0.00    -0.400 OA
ATOM     19  H3  UNL     1      27.047  23.099  63.718  1.00  0.00     0.209 HD
ENDBRANCH  17  18
ENDBRANCH  16  17
ENDBRANCH   1  16
BRANCH   1  20
HETATM   20  C10 UNL     1      26.250  19.145  63.762  1.00  0.00     0.055 A 
HETATM   21  C11 UNL     1      26.616  18.075  64.531  1.00  0.00     0.034 A 
HETATM   22  C12 UNL     1      26.027  16.921  64.036  1.00  0.00     0.032 A 
HETATM   23  C13 UNL     1      25.293  17.323  62.941  1.00  0.00     0.038 A 
HETATM   24  N5  UNL     1      25.450  18.645  62.812  1.00  0.00    -0.354 N 
ATOM     25  H5  UNL     1      25.014  19.204  62.079  1.00  0.00     0.166 HD
BRANCH  23  26
HETATM   26  C14 UNL     1      24.561  16.562  62.152  1.00  0.00    -0.003 C 
HETATM   27  C15 UNL     1      24.085  15.143  62.164  1.00  0.00     0.270 C 
HETATM   28  N4  UNL     1      24.066  15.217  60.703  1.00  0.00    -0.068 N 
HETATM   29  C16 UNL     1      23.825  16.657  60.868  1.00  0.00     0.270 C 
ATOM     30  H42 UNL     1      24.842  14.867  60.141  1.00  0.00     0.277 HD
ATOM     31  H41 UNL     1      23.442  14.631  60.147  1.00  0.00     0.277 HD
ENDBRANCH  23  26
ENDBRANCH   1  20
TORSDOF 10
ENDMDL
MODEL 5
REMARK VINA RESULT: -6.390724057      2.560      5.679
REMARK  10 active torsions:
REMARK  status: ('A' for Active; 'I' for Inactive)
REMARK    1  A    between atoms: C1_2  and  C2_3 
REMARK    2  A    between atoms: C2_3  and  C3_4 
REMARK    3  A    between atoms: C2_3  and  N3_13 
REMARK    4  A    between atoms: C3_4  and  C4_5 
REMARK    5  A    between atoms: N3_13  and  C7_15 
REMARK    6  A    between atoms: C7_15  and  C8_16 
REMARK    7  A    between atoms: C7_15  and  C10_20 
REMARK    8  A    between atoms: C8_16  and  C9_17 
REMARK    9  A    between atoms: C9_17  and  O3_18 
REMARK   10  A    between atoms: C13_23  and  C14_24 
ROOT
HETATM    1  C7  UNL     1      26.250  19.229  64.217  1.00  0.00     0.034 C 
ENDROOT
BRANCH   1   2
HETATM    2  N3  UNL     1      26.940  20.447  63.984  1.00  0.00    -0.380 N 
ATOM      3  H3  UNL     1      26.803  20.902  63.082  1.00  0.00     0.160 HD
BRANCH   2   4
HETATM    4  C2  UNL     1      27.821  21.088  64.929  1.00  0.00     0.148 C 
BRANCH   4   5
HETATM    5  C1  UNL     1      27.232  22.397  65.336  1.00  0.00     0.256 C 
HETATM    6  O1  UNL     1      27.050  23.278  64.507  1.00  0.00    -0.305 OA
ENDBRANCH   4   5
BRANCH   4   7
HETATM    7  C3  UNL     1      29.204  21.233  64.394  1.00  0.00     0.090 C 
BRANCH   7   8
HETATM    8  C4  UNL     1      29.562  20.271  63.328  1.00  0.00     0.031 A 
HETATM    9  C5  UNL     1      29.518  20.643  61.975  1.00  0.00     0.118 A 
HETATM   10  N1  UNL     1      29.865  19.572  61.252  1.00  0.00    -0.317 N 
HETATM   11  C6  UNL     1      30.127  18.544  62.064  1.00  0.00     0.324 A 
ATOM     12  H1  UNL     1      29.922  19.545  60.234  1.00  0.00     0.170 HD
HETATM   13  O2  UNL     1      30.484  17.365  61.799  1.00  0.00    -0.247 OA
HETATM   14  N2  UNL     1      29.932  19.000  63.337  1.00  0.00    -0.311 N 
ATOM     15  H2  UNL     1      30.054  18.437  64.178  1.00  0.00     0.170 HD
ENDBRANCH   7   8
ENDBRANCH   4   7
ENDBRANCH   2   4
ENDBRANCH   1   2
BRANCH   1  16
HETATM   16  C8  UNL     1      25.266  19.034  65.300  1.00  0.00     0.085 C 
BRANCH  16  17
HETATM   17  C9  UNL     1      23.998  19.793  65.185  1.00  0.00     0.170 C 
BRANCH  17  18
HETATM   18  O3  UNL     1      24.127  20.925  64.375  1.00  0.00    -0.400 OA
ATOM     19  H3  UNL     1      23.749  20.797  63.513  1.00  0.00     0.209 HD
ENDBRANCH  17  18
ENDBRANCH  16  17
ENDBRANCH   1  16
BRANCH   1  20
HETATM   20  C10 UNL     1      26.467  18.223  63.394  1.00  0.00     0.055 A 
HETATM   21  C11 UNL     1      26.651  16.901  63.688  1.00  0.00     0.034 A 
HETATM   22  C12 UNL     1      26.842  16.184  62.517  1.00  0.00     0.032 A 
HETATM   23  C13 UNL     1      26.771  17.112  61.502  1.00  0.00     0.038 A 
HETATM   24  N5  UNL     1      26.548  18.307  62.061  1.00  0.00    -0.354 N 
ATOM     25  H5  UNL     1      26.451  19.176  61.535  1.00  0.00     0.166 HD
BRANCH  23  26
HETATM   26  C14 UNL     1      26.895  16.888  60.208  1.00  0.00    -0.003 C 
HETATM   27  C15 UNL     1      27.356  17.673  59.020  1.00  0.00     0.270 C 
HETATM   28  N4  UNL     1      26.456  16.844  58.218  1.00  0.00    -0.068 N 
HETATM   29  C16 UNL     1      26.664  15.799  59.230  1.00  0.00     0.270 C 
ATOM     30  H42 UNL     1      25.522  17.163  57.964  1.00  0.00     0.277 HD
ATOM     31  H41 UNL     1      26.631  16.671  57.228  1.00  0.00     0.277 HD
ENDBRANCH  23  26
ENDBRANCH   1  20
TORSDOF 10
ENDMDL
