MODEL 1
REMARK VINA RESULT: -7.052339458      0.000      0.000
REMARK  5 active torsions:
REMARK  status: ('A' for Active; 'I' for Inactive)
REMARK    1  A    between atoms: N1_4  and  C4_5 
REMARK    2  A    between atoms: C4_5  and  C5_6 
REMARK    3  A    between atoms: C5_6  and  N2_7 
REMARK       I    between atoms: N2_7  and  C6_9 
REMARK    4  A    between atoms: C6_9  and  C7_11 
REMARK    5  A    between atoms: C7_11  and  N3_12 
ROOT
HETATM    1  C1  UNL     1      27.923  14.408  60.114  1.00  0.00     0.021 C 
HETATM    2  C2  UNL     1      27.624  15.816  60.659  1.00  0.00     0.100 C 
HETATM    3  C3  UNL     1      27.689  15.763  62.124  1.00  0.00     0.253 C 
HETATM    4  N1  UNL     1      26.871  16.604  62.898  1.00  0.00    -0.039 N 
HETATM    5  C12 UNL     1      26.679  17.931  62.377  1.00  0.00     0.468 C 
HETATM    6  N5  UNL     1      25.330  18.089  61.944  1.00  0.00    -0.043 N 
ATOM      7  H51 UNL     1      25.258  18.275  60.943  1.00  0.00     0.279 HD
ATOM      8  H52 UNL     1      24.910  18.958  62.277  1.00  0.00     0.279 HD
HETATM    9  C13 UNL     1      24.588  16.931  62.344  1.00  0.00     0.231 C 
HETATM   10  C14 UNL     1      24.057  16.260  61.076  1.00  0.00     0.157 C 
HETATM   11  N6  UNL     1      25.042  16.435  60.068  1.00  0.00    -0.359 N 
ATOM     12  H6  UNL     1      24.631  16.734  59.184  1.00  0.00     0.162 HD
HETATM   13  C15 UNL     1      26.452  16.301  59.977  1.00  0.00     0.223 C 
HETATM   14  O2  UNL     1      26.800  16.814  58.845  1.00  0.00    -0.273 OA
HETATM   15  C16 UNL     1      25.545  15.963  62.944  1.00  0.00     0.274 C 
ENDROOT
BRANCH   4  16
HETATM   16  C4  UNL     1      27.316  16.654  64.272  1.00  0.00     0.259 C 
BRANCH  16  17
HETATM   17  C5  UNL     1      27.174  17.955  64.972  1.00  0.00     0.150 C 
BRANCH  17  18
HETATM   18  N2  UNL     1      25.985  17.937  65.785  1.00  0.00    -0.358 N 
HETATM   19  C6  UNL     1      24.830  18.730  65.582  1.00  0.00     0.246 C 
HETATM   20  O1  UNL     1      24.725  19.562  64.638  1.00  0.00    -0.272 OA
ATOM     21  H2  UNL     1      25.974  17.294  66.577  1.00  0.00     0.162 HD
BRANCH  19  22
HETATM   22  C7  UNL     1      23.671  18.612  66.494  1.00  0.00     0.374 C 
BRANCH  22  23
HETATM   23  N3  UNL     1      24.054  18.440  67.849  1.00  0.00     0.100 N 
HETATM   24  C8  UNL     1      23.425  17.330  68.470  1.00  0.00     0.300 C 
HETATM   25  C9  UNL     1      22.214  17.705  69.302  1.00  0.00     0.262 C 
HETATM   26  N4  UNL     1      22.379  18.904  70.067  1.00  0.00    -0.072 N 
HETATM   27  C10 UNL     1      22.714  19.975  69.130  1.00  0.00     0.262 C 
ATOM     28  H42 UNL     1      21.568  19.120  70.648  1.00  0.00     0.277 HD
ATOM     29  H41 UNL     1      23.059  18.806  70.821  1.00  0.00     0.277 HD
HETATM   30  C11 UNL     1      24.086  19.653  68.601  1.00  0.00     0.300 C 
ENDBRANCH  22  23
ENDBRANCH  19  22
ENDBRANCH  17  18
ENDBRANCH  16  17
ENDBRANCH   4  16
TORSDOF 5
ENDMDL
MODEL 2
REMARK VINA RESULT: -6.838577117      3.862      4.574
REMARK  5 active torsions:
REMARK  status: ('A' for Active; 'I' for Inactive)
REMARK    1  A    between atoms: N1_4  and  C4_5 
REMARK    2  A    between atoms: C4_5  and  C5_6 
REMARK    3  A    between atoms: C5_6  and  N2_7 
REMARK       I    between atoms: N2_7  and  C6_9 
REMARK    4  A    between atoms: C6_9  and  C7_11 
REMARK    5  A    between atoms: C7_11  and  N3_12 
ROOT
HETATM    1  C1  UNL     1      27.653  14.192  59.949  1.00  0.00     0.021 C 
HETATM    2  C2  UNL     1      27.549  15.615  60.527  1.00  0.00     0.100 C 
HETATM    3  C3  UNL     1      27.714  15.530  61.982  1.00  0.00     0.253 C 
HETATM    4  N1  UNL     1      27.050  16.441  62.822  1.00  0.00    -0.039 N 
HETATM    5  C12 UNL     1      26.966  17.790  62.328  1.00  0.00     0.468 C 
HETATM    6  N5  UNL     1      25.614  18.100  61.997  1.00  0.00    -0.043 N 
ATOM      7  H51 UNL     1      25.491  18.309  61.006  1.00  0.00     0.279 HD
ATOM      8  H52 UNL     1      25.317  19.003  62.367  1.00  0.00     0.279 HD
HETATM    9  C13 UNL     1      24.782  17.022  62.440  1.00  0.00     0.231 C 
HETATM   10  C14 UNL     1      24.091  16.433  61.208  1.00  0.00     0.157 C 
HETATM   11  N6  UNL     1      25.014  16.518  60.132  1.00  0.00    -0.359 N 
ATOM     12  H6  UNL     1      24.575  16.875  59.283  1.00  0.00     0.162 HD
HETATM   13  C15 UNL     1      26.390  16.235  59.936  1.00  0.00     0.223 C 
HETATM   14  O2  UNL     1      26.709  16.725  58.787  1.00  0.00    -0.273 OA
HETATM   15  C16 UNL     1      25.669  15.946  62.959  1.00  0.00     0.274 C 
ENDROOT
BRANCH   4  16
HETATM   16  C4  UNL     1      27.596  16.421  64.159  1.00  0.00     0.259 C 
BRANCH  16  17
HETATM   17  C5  UNL     1      29.030  16.773  64.301  1.00  0.00     0.150 C 
BRANCH  17  18
HETATM   18  N2  UNL     1      29.161  17.920  65.163  1.00  0.00    -0.358 N 
HETATM   19  C6  UNL     1      30.287  18.776  65.238  1.00  0.00     0.246 C 
HETATM   20  O1  UNL     1      31.323  18.612  64.535  1.00  0.00    -0.272 OA
ATOM     21  H2  UNL     1      28.373  18.135  65.773  1.00  0.00     0.162 HD
BRANCH  19  22
HETATM   22  C7  UNL     1      30.291  19.926  66.169  1.00  0.00     0.374 C 
BRANCH  22  23
HETATM   23  N3  UNL     1      30.209  21.174  65.500  1.00  0.00     0.100 N 
HETATM   24  C8  UNL     1      30.389  22.283  66.366  1.00  0.00     0.300 C 
HETATM   25  C9  UNL     1      29.090  22.920  66.817  1.00  0.00     0.262 C 
HETATM   26  N4  UNL     1      28.099  23.020  65.789  1.00  0.00    -0.072 N 
HETATM   27  C10 UNL     1      27.864  21.669  65.279  1.00  0.00     0.262 C 
ATOM     28  H42 UNL     1      27.245  23.483  66.101  1.00  0.00     0.277 HD
ATOM     29  H41 UNL     1      28.349  23.684  65.056  1.00  0.00     0.277 HD
HETATM   30  C11 UNL     1      29.128  21.264  64.571  1.00  0.00     0.300 C 
ENDBRANCH  22  23
ENDBRANCH  19  22
ENDBRANCH  17  18
ENDBRANCH  16  17
ENDBRANCH   4  16
TORSDOF 5
ENDMDL
MODEL 3
REMARK VINA RESULT: -6.799774943      3.535      4.671
REMARK  5 active torsions:
REMARK  status: ('A' for Active; 'I' for Inactive)
REMARK    1  A    between atoms: N1_4  and  C4_5 
REMARK    2  A    between atoms: C4_5  and  C5_6 
REMARK    3  A    between atoms: C5_6  and  N2_7 
REMARK       I    between atoms: N2_7  and  C6_9 
REMARK    4  A    between atoms: C6_9  and  C7_11 
REMARK    5  A    between atoms: C7_11  and  N3_12 
ROOT
HETATM    1  C1  UNL     1      24.793  13.840  62.197  1.00  0.00     0.021 C 
HETATM    2  C2  UNL     1      25.382  15.164  61.678  1.00  0.00     0.100 C 
HETATM    3  C3  UNL     1      26.749  15.291  62.196  1.00  0.00     0.253 C 
HETATM    4  N1  UNL     1      27.282  16.561  62.476  1.00  0.00    -0.039 N 
HETATM    5  C12 UNL     1      26.916  17.603  61.554  1.00  0.00     0.468 C 
HETATM    6  N5  UNL     1      26.050  18.535  62.199  1.00  0.00    -0.043 N 
ATOM      7  H51 UNL     1      25.127  18.577  61.766  1.00  0.00     0.279 HD
ATOM      8  H52 UNL     1      26.325  19.504  62.035  1.00  0.00     0.279 HD
HETATM    9  C13 UNL     1      25.991  18.208  63.592  1.00  0.00     0.231 C 
HETATM   10  C14 UNL     1      24.537  17.869  63.927  1.00  0.00     0.157 C 
HETATM   11  N6  UNL     1      23.988  17.218  62.792  1.00  0.00    -0.359 N 
ATOM     12  H6  UNL     1      23.065  17.581  62.554  1.00  0.00     0.162 HD
HETATM   13  C15 UNL     1      24.395  16.189  61.902  1.00  0.00     0.223 C 
HETATM   14  O2  UNL     1      23.548  16.185  60.929  1.00  0.00    -0.273 OA
HETATM   15  C16 UNL     1      26.756  16.949  63.797  1.00  0.00     0.274 C 
ENDROOT
BRANCH   4  16
HETATM   16  C4  UNL     1      28.717  16.506  62.640  1.00  0.00     0.259 C 
BRANCH  16  17
HETATM   17  C5  UNL     1      29.504  17.585  61.992  1.00  0.00     0.150 C 
BRANCH  17  18
HETATM   18  N2  UNL     1      29.797  18.613  62.958  1.00  0.00    -0.358 N 
HETATM   19  C6  UNL     1      29.419  19.974  62.860  1.00  0.00     0.246 C 
HETATM   20  O1  UNL     1      28.769  20.438  61.882  1.00  0.00    -0.272 OA
ATOM     21  H2  UNL     1      30.323  18.335  63.787  1.00  0.00     0.162 HD
BRANCH  19  22
HETATM   22  C7  UNL     1      29.784  20.931  63.929  1.00  0.00     0.374 C 
BRANCH  22  23
HETATM   23  N3  UNL     1      29.021  20.750  65.110  1.00  0.00     0.100 N 
HETATM   24  C8  UNL     1      27.653  21.091  64.948  1.00  0.00     0.300 C 
HETATM   25  C9  UNL     1      27.309  22.481  65.446  1.00  0.00     0.262 C 
HETATM   26  N4  UNL     1      27.954  22.839  66.673  1.00  0.00    -0.072 N 
HETATM   27  C10 UNL     1      29.395  22.707  66.462  1.00  0.00     0.262 C 
ATOM     28  H42 UNL     1      27.683  23.763  67.010  1.00  0.00     0.277 HD
ATOM     29  H41 UNL     1      27.617  22.302  67.472  1.00  0.00     0.277 HD
HETATM   30  C11 UNL     1      29.659  21.235  66.292  1.00  0.00     0.300 C 
ENDBRANCH  22  23
ENDBRANCH  19  22
ENDBRANCH  17  18
ENDBRANCH  16  17
ENDBRANCH   4  16
TORSDOF 5
ENDMDL
MODEL 4
REMARK VINA RESULT: -6.753986432      4.245      6.328
REMARK  5 active torsions:
REMARK  status: ('A' for Active; 'I' for Inactive)
REMARK    1  A    between atoms: N1_4  and  C4_5 
REMARK    2  A    between atoms: C4_5  and  C5_6 
REMARK    3  A    between atoms: C5_6  and  N2_7 
REMARK       I    between atoms: N2_7  and  C6_9 
REMARK    4  A    between atoms: C6_9  and  C7_11 
REMARK    5  A    between atoms: C7_11  and  N3_12 
ROOT
HETATM    1  C1  UNL     1      32.018  17.515  62.451  1.00  0.00     0.021 C 
HETATM    2  C2  UNL     1      30.563  17.716  62.911  1.00  0.00     0.100 C 
HETATM    3  C3  UNL     1      29.822  18.352  61.816  1.00  0.00     0.253 C 
HETATM    4  N1  UNL     1      28.761  19.230  62.098  1.00  0.00    -0.039 N 
HETATM    5  C12 UNL     1      27.935  18.862  63.217  1.00  0.00     0.468 C 
HETATM    6  N5  UNL     1      28.133  19.785  64.287  1.00  0.00    -0.043 N 
ATOM      7  H51 UNL     1      28.516  19.341  65.122  1.00  0.00     0.279 HD
ATOM      8  H52 UNL     1      27.254  20.110  64.692  1.00  0.00     0.279 HD
HETATM    9  C13 UNL     1      28.950  20.860  63.810  1.00  0.00     0.231 C 
HETATM   10  C14 UNL     1      30.232  20.874  64.646  1.00  0.00     0.157 C 
HETATM   11  N6  UNL     1      30.549  19.523  64.944  1.00  0.00    -0.359 N 
ATOM     12  H6  UNL     1      30.799  19.400  65.925  1.00  0.00     0.162 HD
HETATM   13  C15 UNL     1      30.606  18.300  64.227  1.00  0.00     0.223 C 
HETATM   14  O2  UNL     1      30.753  17.364  65.103  1.00  0.00    -0.273 OA
HETATM   15  C16 UNL     1      29.375  20.529  62.424  1.00  0.00     0.274 C 
ENDROOT
BRANCH   4  16
HETATM   16  C4  UNL     1      27.952  19.474  60.926  1.00  0.00     0.259 C 
BRANCH  16  17
HETATM   17  C5  UNL     1      28.046  18.479  59.830  1.00  0.00     0.150 C 
BRANCH  17  18
HETATM   18  N2  UNL     1      27.038  17.466  60.012  1.00  0.00    -0.358 N 
HETATM   19  C6  UNL     1      27.270  16.131  60.426  1.00  0.00     0.246 C 
HETATM   20  O1  UNL     1      28.421  15.681  60.682  1.00  0.00    -0.272 OA
ATOM     21  H2  UNL     1      26.072  17.733  59.827  1.00  0.00     0.162 HD
BRANCH  19  22
HETATM   22  C7  UNL     1      26.139  15.188  60.577  1.00  0.00     0.374 C 
BRANCH  22  23
HETATM   23  N3  UNL     1      25.801  14.948  61.933  1.00  0.00     0.100 N 
HETATM   24  C8  UNL     1      25.099  13.731  62.126  1.00  0.00     0.300 C 
HETATM   25  C9  UNL     1      23.596  13.906  62.224  1.00  0.00     0.262 C 
HETATM   26  N4  UNL     1      23.189  15.049  62.984  1.00  0.00    -0.072 N 
HETATM   27  C10 UNL     1      23.807  16.223  62.368  1.00  0.00     0.262 C 
ATOM     28  H42 UNL     1      22.175  15.131  63.069  1.00  0.00     0.277 HD
ATOM     29  H41 UNL     1      23.399  14.963  63.978  1.00  0.00     0.277 HD
HETATM   30  C11 UNL     1      25.286  16.093  62.613  1.00  0.00     0.300 C 
ENDBRANCH  22  23
ENDBRANCH  19  22
ENDBRANCH  17  18
ENDBRANCH  16  17
ENDBRANCH   4  16
TORSDOF 5
ENDMDL
MODEL 5
REMARK VINA RESULT: -6.677663437      3.842      4.702
REMARK  5 active torsions:
REMARK  status: ('A' for Active; 'I' for Inactive)
REMARK    1  A    between atoms: N1_4  and  C4_5 
REMARK    2  A    between atoms: C4_5  and  C5_6 
REMARK    3  A    between atoms: C5_6  and  N2_7 
REMARK       I    between atoms: N2_7  and  C6_9 
REMARK    4  A    between atoms: C6_9  and  C7_11 
REMARK    5  A    between atoms: C7_11  and  N3_12 
ROOT
HETATM    1  C1  UNL     1      27.757  14.429  59.986  1.00  0.00     0.021 C 
HETATM    2  C2  UNL     1      27.545  15.841  60.560  1.00  0.00     0.100 C 
HETATM    3  C3  UNL     1      27.775  15.785  62.008  1.00  0.00     0.253 C 
HETATM    4  N1  UNL     1      27.062  16.639  62.869  1.00  0.00    -0.039 N 
HETATM    5  C12 UNL     1      26.834  17.970  62.371  1.00  0.00     0.468 C 
HETATM    6  N5  UNL     1      25.447  18.150  62.093  1.00  0.00    -0.043 N 
ATOM      7  H51 UNL     1      25.266  18.337  61.106  1.00  0.00     0.279 HD
ATOM      8  H52 UNL     1      25.082  19.025  62.470  1.00  0.00     0.279 HD
HETATM    9  C13 UNL     1      24.737  17.004  62.575  1.00  0.00     0.231 C 
HETATM   10  C14 UNL     1      24.056  16.342  61.376  1.00  0.00     0.157 C 
HETATM   11  N6  UNL     1      24.923  16.502  60.263  1.00  0.00    -0.359 N 
ATOM     12  H6  UNL     1      24.419  16.808  59.431  1.00  0.00     0.162 HD
HETATM   13  C15 UNL     1      26.311  16.345  60.013  1.00  0.00     0.223 C 
HETATM   14  O2  UNL     1      26.537  16.852  58.849  1.00  0.00    -0.273 OA
HETATM   15  C16 UNL     1      25.740  16.020  63.064  1.00  0.00     0.274 C 
ENDROOT
BRANCH   4  16
HETATM   16  C4  UNL     1      27.661  16.682  64.183  1.00  0.00     0.259 C 
BRANCH  16  17
HETATM   17  C5  UNL     1      29.125  16.912  64.243  1.00  0.00     0.150 C 
BRANCH  17  18
HETATM   18  N2  UNL     1      29.383  18.259  64.684  1.00  0.00    -0.358 N 
HETATM   19  C6  UNL     1      29.869  19.316  63.877  1.00  0.00     0.246 C 
HETATM   20  O1  UNL     1      30.136  19.178  62.650  1.00  0.00    -0.272 OA
ATOM     21  H2  UNL     1      29.199  18.470  65.664  1.00  0.00     0.162 HD
BRANCH  19  22
HETATM   22  C7  UNL     1      30.090  20.660  64.457  1.00  0.00     0.374 C 
BRANCH  22  23
HETATM   23  N3  UNL     1      29.831  20.705  65.851  1.00  0.00     0.100 N 
HETATM   24  C8  UNL     1      28.730  21.533  66.187  1.00  0.00     0.300 C 
HETATM   25  C9  UNL     1      29.131  22.921  66.647  1.00  0.00     0.262 C 
HETATM   26  N4  UNL     1      30.281  22.945  67.501  1.00  0.00    -0.072 N 
HETATM   27  C10 UNL     1      31.376  22.304  66.774  1.00  0.00     0.262 C 
ATOM     28  H42 UNL     1      30.514  23.882  67.829  1.00  0.00     0.277 HD
ATOM     29  H41 UNL     1      30.108  22.524  68.414  1.00  0.00     0.277 HD
HETATM   30  C11 UNL     1      31.003  20.850  66.654  1.00  0.00     0.300 C 
ENDBRANCH  22  23
ENDBRANCH  19  22
ENDBRANCH  17  18
ENDBRANCH  16  17
ENDBRANCH   4  16
TORSDOF 5
ENDMDL
