MODEL 1
REMARK VINA RESULT: -8.443955027      0.000      0.000
REMARK  5 active torsions:
REMARK  status: ('A' for Active; 'I' for Inactive)
REMARK    1  A    between atoms: O1_2  and  C2_3 
REMARK    2  A    between atoms: C4_5  and  N1_6 
REMARK    3  A    between atoms: N1_6  and  C5_8 
REMARK    4  A    between atoms: C8_11  and  C9_12 
REMARK    5  A    between atoms: C9_12  and  N2_13 
ROOT
HETATM    1  C5  UNL     1      96.583  61.350  20.866  1.00  0.00     0.149 A 
HETATM    2  C6  UNL     1      96.714  61.746  22.173  1.00  0.00     0.059 A 
HETATM    3  C7  UNL     1      96.621  63.122  22.133  1.00  0.00     0.043 A 
HETATM    4  C8  UNL     1      96.438  63.511  20.823  1.00  0.00     0.093 A 
HETATM    5  O2  UNL     1      96.428  62.395  20.134  1.00  0.00    -0.292 OA
ENDROOT
BRANCH   4   6
HETATM    6  C9  UNL     1      96.289  64.899  20.323  1.00  0.00     0.128 C 
BRANCH   6   7
HETATM    7  N2  UNL     1      97.463  65.571  19.969  1.00  0.00    -0.358 N 
HETATM    8  C10 UNL     1      98.066  65.127  18.775  1.00  0.00     0.064 C 
HETATM    9  C11 UNL     1      97.294  65.477  17.523  1.00  0.00     0.044 C 
HETATM   10  C12 UNL     1      97.097  66.940  17.313  1.00  0.00     0.005 C 
HETATM   11  C13 UNL     1      96.223  67.610  18.304  1.00  0.00     0.003 C 
HETATM   12  C14 UNL     1      96.757  67.911  19.628  1.00  0.00     0.031 C 
HETATM   13  C15 UNL     1      97.617  66.922  20.319  1.00  0.00     0.036 C 
HETATM   14  C16 UNL     1      97.401  67.132  21.819  1.00  0.00     0.031 C 
HETATM   15  C20 UNL     1      99.077  67.334  20.112  1.00  0.00     0.031 C 
HETATM   16  C17 UNL     1      98.394  66.453  22.684  1.00  0.00     0.002 C 
HETATM   17  C18 UNL     1      99.817  66.906  22.370  1.00  0.00     0.000 C 
HETATM   18  C19 UNL     1     100.027  66.501  20.903  1.00  0.00     0.002 C 
ENDBRANCH   6   7
ENDBRANCH   4   6
BRANCH   1  19
HETATM   19  N1  UNL     1      96.619  59.977  20.439  1.00  0.00    -0.330 N 
ATOM     20  H1  UNL     1      96.754  59.224  21.114  1.00  0.00     0.168 HD
BRANCH  19  21
HETATM   21  C4  UNL     1      96.475  59.714  19.160  1.00  0.00     0.096 A 
HETATM   22  C3  UNL     1      97.284  58.939  18.374  1.00  0.00     0.095 A 
HETATM   23  C2  UNL     1      96.937  58.812  17.086  1.00  0.00     0.150 A 
HETATM   24  N3  UNL     1      95.838  59.448  16.674  1.00  0.00    -0.305 N 
HETATM   25  S1  UNL     1      95.278  60.221  18.056  1.00  0.00     0.006 SA
ATOM     26  H3  UNL     1      95.432  59.461  15.738  1.00  0.00     0.176 HD
BRANCH  23  27
HETATM   27  O1  UNL     1      97.695  58.035  16.168  1.00  0.00    -0.340 OA
HETATM   28  C1  UNL     1      97.857  56.651  16.299  1.00  0.00     0.211 C 
ENDBRANCH  23  27
ENDBRANCH  19  21
ENDBRANCH   1  19
TORSDOF 5
ENDMDL
MODEL 2
REMARK VINA RESULT: -8.442353390      4.362      7.644
REMARK  5 active torsions:
REMARK  status: ('A' for Active; 'I' for Inactive)
REMARK    1  A    between atoms: O1_2  and  C2_3 
REMARK    2  A    between atoms: C4_5  and  N1_6 
REMARK    3  A    between atoms: N1_6  and  C5_8 
REMARK    4  A    between atoms: C8_11  and  C9_12 
REMARK    5  A    between atoms: C9_12  and  N2_13 
ROOT
HETATM    1  C5  UNL     1      97.316  67.398  19.465  1.00  0.00     0.149 A 
HETATM    2  C6  UNL     1      97.674  67.826  18.213  1.00  0.00     0.059 A 
HETATM    3  C7  UNL     1      96.577  67.556  17.423  1.00  0.00     0.043 A 
HETATM    4  C8  UNL     1      95.601  66.981  18.209  1.00  0.00     0.093 A 
HETATM    5  O2  UNL     1      96.123  66.923  19.411  1.00  0.00    -0.292 OA
ENDROOT
BRANCH   4   6
HETATM    6  C9  UNL     1      94.259  66.532  17.769  1.00  0.00     0.128 C 
BRANCH   6   7
HETATM    7  N2  UNL     1      94.174  65.945  16.503  1.00  0.00    -0.358 N 
HETATM    8  C10 UNL     1      94.659  64.624  16.425  1.00  0.00     0.064 C 
HETATM    9  C11 UNL     1      93.799  63.604  17.136  1.00  0.00     0.044 C 
HETATM   10  C12 UNL     1      92.403  63.513  16.619  1.00  0.00     0.005 C 
HETATM   11  C13 UNL     1      91.562  64.711  16.852  1.00  0.00     0.003 C 
HETATM   12  C14 UNL     1      91.756  65.886  16.009  1.00  0.00     0.031 C 
HETATM   13  C15 UNL     1      93.127  66.311  15.642  1.00  0.00     0.036 C 
HETATM   14  C16 UNL     1      93.074  67.828  15.450  1.00  0.00     0.031 C 
HETATM   15  C20 UNL     1      93.426  65.788  14.234  1.00  0.00     0.031 C 
HETATM   16  C17 UNL     1      94.266  68.405  14.784  1.00  0.00     0.002 C 
HETATM   17  C18 UNL     1      94.494  67.789  13.407  1.00  0.00     0.000 C 
HETATM   18  C19 UNL     1      94.719  66.297  13.694  1.00  0.00     0.002 C 
ENDBRANCH   6   7
ENDBRANCH   4   6
BRANCH   1  19
HETATM   19  N1  UNL     1      98.173  67.490  20.618  1.00  0.00    -0.330 N 
ATOM     20  H1  UNL     1      98.865  68.234  20.696  1.00  0.00     0.168 HD
BRANCH  19  21
HETATM   21  C4  UNL     1      98.042  66.592  21.568  1.00  0.00     0.096 A 
HETATM   22  C3  UNL     1      98.502  66.670  22.856  1.00  0.00     0.095 A 
HETATM   23  C2  UNL     1      98.249  65.625  23.654  1.00  0.00     0.150 A 
HETATM   24  N3  UNL     1      97.575  64.596  23.135  1.00  0.00    -0.305 N 
HETATM   25  S1  UNL     1      97.285  65.063  21.548  1.00  0.00     0.006 SA
ATOM     26  H3  UNL     1      97.299  63.728  23.596  1.00  0.00     0.176 HD
BRANCH  23  27
HETATM   27  O1  UNL     1      98.673  65.585  25.011  1.00  0.00    -0.340 OA
HETATM   28  C1  UNL     1      99.442  66.599  25.595  1.00  0.00     0.211 C 
ENDBRANCH  23  27
ENDBRANCH  19  21
ENDBRANCH   1  19
TORSDOF 5
ENDMDL
MODEL 3
REMARK VINA RESULT: -8.342830095      4.724      8.120
REMARK  5 active torsions:
REMARK  status: ('A' for Active; 'I' for Inactive)
REMARK    1  A    between atoms: O1_2  and  C2_3 
REMARK    2  A    between atoms: C4_5  and  N1_6 
REMARK    3  A    between atoms: N1_6  and  C5_8 
REMARK    4  A    between atoms: C8_11  and  C9_12 
REMARK    5  A    between atoms: C9_12  and  N2_13 
ROOT
HETATM    1  C5  UNL     1      97.169  67.729  17.954  1.00  0.00     0.149 A 
HETATM    2  C6  UNL     1      97.872  67.378  16.830  1.00  0.00     0.059 A 
HETATM    3  C7  UNL     1      96.927  67.326  15.827  1.00  0.00     0.043 A 
HETATM    4  C8  UNL     1      95.698  67.643  16.365  1.00  0.00     0.093 A 
HETATM    5  O2  UNL     1      95.931  67.869  17.637  1.00  0.00    -0.292 OA
ENDROOT
BRANCH   4   6
HETATM    6  C9  UNL     1      94.404  67.708  15.645  1.00  0.00     0.128 C 
BRANCH   6   7
HETATM    7  N2  UNL     1      93.723  66.501  15.463  1.00  0.00    -0.358 N 
HETATM    8  C10 UNL     1      93.671  65.669  16.600  1.00  0.00     0.064 C 
HETATM    9  C11 UNL     1      92.788  66.191  17.711  1.00  0.00     0.044 C 
HETATM   10  C12 UNL     1      91.359  66.371  17.323  1.00  0.00     0.005 C 
HETATM   11  C13 UNL     1      91.104  67.433  16.322  1.00  0.00     0.003 C 
HETATM   12  C14 UNL     1      91.410  67.172  14.920  1.00  0.00     0.031 C 
HETATM   13  C15 UNL     1      92.649  66.444  14.560  1.00  0.00     0.036 C 
HETATM   14  C16 UNL     1      93.063  66.951  13.177  1.00  0.00     0.031 C 
HETATM   15  C20 UNL     1      92.283  64.980  14.303  1.00  0.00     0.031 C 
HETATM   16  C17 UNL     1      94.101  66.131  12.507  1.00  0.00     0.002 C 
HETATM   17  C18 UNL     1      93.650  64.684  12.336  1.00  0.00     0.000 C 
HETATM   18  C19 UNL     1      93.427  64.185  13.772  1.00  0.00     0.002 C 
ENDBRANCH   6   7
ENDBRANCH   4   6
BRANCH   1  19
HETATM   19  N1  UNL     1      97.767  67.901  19.251  1.00  0.00    -0.330 N 
ATOM     20  H1  UNL     1      98.289  68.747  19.477  1.00  0.00     0.168 HD
BRANCH  19  21
HETATM   21  C4  UNL     1      97.626  66.942  20.138  1.00  0.00     0.096 A 
HETATM   22  C3  UNL     1      98.033  66.951  21.445  1.00  0.00     0.095 A 
HETATM   23  C2  UNL     1      97.780  65.852  22.167  1.00  0.00     0.150 A 
HETATM   24  N3  UNL     1      97.154  64.841  21.560  1.00  0.00    -0.305 N 
HETATM   25  S1  UNL     1      96.912  65.400  19.994  1.00  0.00     0.006 SA
ATOM     26  H3  UNL     1      96.885  63.940  21.954  1.00  0.00     0.176 HD
BRANCH  23  27
HETATM   27  O1  UNL     1      98.153  65.738  23.534  1.00  0.00    -0.340 OA
HETATM   28  C1  UNL     1      98.482  66.845  24.325  1.00  0.00     0.211 C 
ENDBRANCH  23  27
ENDBRANCH  19  21
ENDBRANCH   1  19
TORSDOF 5
ENDMDL
MODEL 4
REMARK VINA RESULT: -8.339348757      3.536      8.971
REMARK  5 active torsions:
REMARK  status: ('A' for Active; 'I' for Inactive)
REMARK    1  A    between atoms: O1_2  and  C2_3 
REMARK    2  A    between atoms: C4_5  and  N1_6 
REMARK    3  A    between atoms: N1_6  and  C5_8 
REMARK    4  A    between atoms: C8_11  and  C9_12 
REMARK    5  A    between atoms: C9_12  and  N2_13 
ROOT
HETATM    1  C5  UNL     1      96.674  60.999  18.382  1.00  0.00     0.149 A 
HETATM    2  C6  UNL     1      97.461  60.589  17.337  1.00  0.00     0.059 A 
HETATM    3  C7  UNL     1      97.479  59.213  17.432  1.00  0.00     0.043 A 
HETATM    4  C8  UNL     1      96.714  58.837  18.516  1.00  0.00     0.093 A 
HETATM    5  O2  UNL     1      96.272  59.962  19.026  1.00  0.00    -0.292 OA
ENDROOT
BRANCH   4   6
HETATM    6  C9  UNL     1      96.460  57.455  18.986  1.00  0.00     0.128 C 
BRANCH   6   7
HETATM    7  N2  UNL     1      97.566  56.732  19.444  1.00  0.00    -0.358 N 
HETATM    8  C10 UNL     1      98.208  57.278  20.574  1.00  0.00     0.064 C 
HETATM    9  C11 UNL     1      97.406  57.178  21.851  1.00  0.00     0.044 C 
HETATM   10  C12 UNL     1      97.073  55.783  22.258  1.00  0.00     0.005 C 
HETATM   11  C13 UNL     1      96.140  55.066  21.357  1.00  0.00     0.003 C 
HETATM   12  C14 UNL     1      96.643  54.537  20.094  1.00  0.00     0.031 C 
HETATM   13  C15 UNL     1      97.592  55.337  19.285  1.00  0.00     0.036 C 
HETATM   14  C16 UNL     1      97.358  54.943  17.825  1.00  0.00     0.031 C 
HETATM   15  C20 UNL     1      99.007  54.824  19.566  1.00  0.00     0.031 C 
HETATM   16  C17 UNL     1      98.411  55.401  16.888  1.00  0.00     0.002 C 
HETATM   17  C18 UNL     1      99.784  54.865  17.280  1.00  0.00     0.000 C 
HETATM   18  C19 UNL     1     100.031  55.448  18.680  1.00  0.00     0.002 C 
ENDBRANCH   6   7
ENDBRANCH   4   6
BRANCH   1  19
HETATM   19  N1  UNL     1      96.378  62.378  18.667  1.00  0.00    -0.330 N 
ATOM     20  H1  UNL     1      96.085  63.013  17.925  1.00  0.00     0.168 HD
BRANCH  19  21
HETATM   21  C4  UNL     1      96.495  62.801  19.906  1.00  0.00     0.096 A 
HETATM   22  C3  UNL     1      96.516  62.043  21.045  1.00  0.00     0.095 A 
HETATM   23  C2  UNL     1      96.645  62.697  22.206  1.00  0.00     0.150 A 
HETATM   24  N3  UNL     1      96.742  64.028  22.162  1.00  0.00    -0.305 N 
HETATM   25  S1  UNL     1      96.657  64.383  20.522  1.00  0.00     0.006 SA
ATOM     26  H3  UNL     1      96.845  64.677  22.942  1.00  0.00     0.176 HD
BRANCH  23  27
HETATM   27  O1  UNL     1      96.680  62.024  23.459  1.00  0.00    -0.340 OA
HETATM   28  C1  UNL     1      96.656  60.628  23.570  1.00  0.00     0.211 C 
ENDBRANCH  23  27
ENDBRANCH  19  21
ENDBRANCH   1  19
TORSDOF 5
ENDMDL
MODEL 5
REMARK VINA RESULT: -8.318321721      4.448      7.796
REMARK  5 active torsions:
REMARK  status: ('A' for Active; 'I' for Inactive)
REMARK    1  A    between atoms: O1_2  and  C2_3 
REMARK    2  A    between atoms: C4_5  and  N1_6 
REMARK    3  A    between atoms: N1_6  and  C5_8 
REMARK    4  A    between atoms: C8_11  and  C9_12 
REMARK    5  A    between atoms: C9_12  and  N2_13 
ROOT
HETATM    1  C5  UNL     1      96.242  65.279  19.308  1.00  0.00     0.149 A 
HETATM    2  C6  UNL     1      95.546  66.459  19.359  1.00  0.00     0.059 A 
HETATM    3  C7  UNL     1      94.908  66.542  18.139  1.00  0.00     0.043 A 
HETATM    4  C8  UNL     1      95.232  65.426  17.397  1.00  0.00     0.093 A 
HETATM    5  O2  UNL     1      96.031  64.726  18.167  1.00  0.00    -0.292 OA
ENDROOT
BRANCH   4   6
HETATM    6  C9  UNL     1      94.766  65.106  16.027  1.00  0.00     0.128 C 
BRANCH   6   7
HETATM    7  N2  UNL     1      93.836  65.981  15.457  1.00  0.00    -0.358 N 
HETATM    8  C10 UNL     1      94.393  67.029  14.697  1.00  0.00     0.064 C 
HETATM    9  C11 UNL     1      95.020  66.586  13.394  1.00  0.00     0.044 C 
HETATM   10  C12 UNL     1      94.075  65.915  12.457  1.00  0.00     0.005 C 
HETATM   11  C13 UNL     1      93.559  64.602  12.910  1.00  0.00     0.003 C 
HETATM   12  C14 UNL     1      92.514  64.566  13.927  1.00  0.00     0.031 C 
HETATM   13  C15 UNL     1      92.574  65.495  15.079  1.00  0.00     0.036 C 
HETATM   14  C16 UNL     1      91.883  64.786  16.245  1.00  0.00     0.031 C 
HETATM   15  C20 UNL     1      91.646  66.677  14.786  1.00  0.00     0.031 C 
HETATM   16  C17 UNL     1      91.568  65.663  17.398  1.00  0.00     0.002 C 
HETATM   17  C18 UNL     1      90.670  66.827  16.990  1.00  0.00     0.000 C 
HETATM   18  C19 UNL     1      91.500  67.597  15.951  1.00  0.00     0.002 C 
ENDBRANCH   6   7
ENDBRANCH   4   6
BRANCH   1  19
HETATM   19  N1  UNL     1      97.061  64.786  20.384  1.00  0.00    -0.330 N 
ATOM     20  H1  UNL     1      97.120  63.787  20.579  1.00  0.00     0.168 HD
BRANCH  19  21
HETATM   21  C4  UNL     1      97.731  65.653  21.109  1.00  0.00     0.096 A 
HETATM   22  C3  UNL     1      97.608  65.885  22.453  1.00  0.00     0.095 A 
HETATM   23  C2  UNL     1      98.402  66.825  22.981  1.00  0.00     0.150 A 
HETATM   24  N3  UNL     1      99.246  67.457  22.162  1.00  0.00    -0.305 N 
HETATM   25  S1  UNL     1      98.949  66.760  20.662  1.00  0.00     0.006 SA
ATOM     26  H3  UNL     1      99.915  68.191  22.393  1.00  0.00     0.176 HD
BRANCH  23  27
HETATM   27  O1  UNL     1      98.370  67.159  24.363  1.00  0.00    -0.340 OA
HETATM   28  C1  UNL     1      99.114  66.468  25.327  1.00  0.00     0.211 C 
ENDBRANCH  23  27
ENDBRANCH  19  21
ENDBRANCH   1  19
TORSDOF 5
ENDMDL
