MODEL 1
REMARK VINA RESULT: -7.720421444      0.000      0.000
REMARK  4 active torsions:
REMARK  status: ('A' for Active; 'I' for Inactive)
REMARK    1  A    between atoms: O1_2  and  C2_3 
REMARK    2  A    between atoms: C6_7  and  O2_8 
REMARK    3  A    between atoms: C8_10  and  O3_11 
REMARK    4  A    between atoms: C18_25  and  C19_26 
ROOT
HETATM    1  C2  UNL     1      97.227  64.925  21.738  1.00  0.00     0.107 A 
HETATM    2  C3  UNL     1      96.730  63.642  21.771  1.00  0.00     0.077 A 
HETATM    3  C4  UNL     1      96.510  62.951  20.574  1.00  0.00     0.090 A 
HETATM    4  C5  UNL     1      96.796  63.573  19.374  1.00  0.00     0.083 A 
HETATM    5  C6  UNL     1      97.293  64.861  19.373  1.00  0.00     0.121 A 
HETATM    6  C8  UNL     1      97.521  65.564  20.538  1.00  0.00     0.136 A 
HETATM    7  C10 UNL     1      96.453  62.590  18.350  1.00  0.00     0.200 C 
HETATM    8  O4  UNL     1      96.858  62.727  17.160  1.00  0.00    -0.289 OA
HETATM    9  C11 UNL     1      95.638  61.564  18.997  1.00  0.00     0.138 C 
HETATM   10  C12 UNL     1      94.191  61.976  18.912  1.00  0.00     0.062 C 
HETATM   11  C13 UNL     1      93.547  61.698  17.604  1.00  0.00    -0.006 C 
HETATM   12  C14 UNL     1      93.106  63.050  17.023  1.00  0.00     0.021 C 
HETATM   13  C15 UNL     1      92.243  60.907  17.786  1.00  0.00     0.021 C 
HETATM   14  C16 UNL     1      94.367  60.953  16.645  1.00  0.00    -0.012 C 
HETATM   15  N1  UNL     1      94.004  60.990  15.402  1.00  0.00    -0.405 N 
ATOM     16  H11 UNL     1      94.575  60.471  14.735  1.00  0.00     0.155 HD
ATOM     17  H12 UNL     1      93.173  61.533  15.169  1.00  0.00     0.155 HD
HETATM   18  C17 UNL     1      95.577  60.161  16.984  1.00  0.00     0.061 C 
HETATM   19  C18 UNL     1      95.782  60.190  18.462  1.00  0.00     0.037 C 
HETATM   20  O5  UNL     1      96.023  61.671  20.353  1.00  0.00    -0.330 OA
ENDROOT
BRANCH  19  21
HETATM   21  C19 UNL     1      97.047  59.486  18.858  1.00  0.00    -0.015 C 
HETATM   22  C20 UNL     1      97.933  59.167  17.702  1.00  0.00     0.010 C 
HETATM   23  C21 UNL     1      96.831  58.250  19.667  1.00  0.00     0.010 C 
ENDBRANCH  19  21
BRANCH   5  24
HETATM   24  O2  UNL     1      97.586  65.499  18.175  1.00  0.00    -0.352 OA
HETATM   25  C7  UNL     1      96.658  66.213  17.414  1.00  0.00     0.210 C 
ENDBRANCH   5  24
BRANCH   6  26
HETATM   26  O3  UNL     1      98.017  66.843  20.479  1.00  0.00    -0.351 OA
HETATM   27  C9  UNL     1      99.383  67.174  20.575  1.00  0.00     0.210 C 
ENDBRANCH   6  26
BRANCH   1  28
HETATM   28  O1  UNL     1      97.469  65.665  22.896  1.00  0.00    -0.353 OA
HETATM   29  C1  UNL     1      98.552  65.239  23.726  1.00  0.00     0.210 C 
ENDBRANCH   1  28
TORSDOF 4
ENDMDL
MODEL 2
REMARK VINA RESULT: -6.935208941      5.244      7.932
REMARK  4 active torsions:
REMARK  status: ('A' for Active; 'I' for Inactive)
REMARK    1  A    between atoms: O1_2  and  C2_3 
REMARK    2  A    between atoms: C6_7  and  O2_8 
REMARK    3  A    between atoms: C8_10  and  O3_11 
REMARK    4  A    between atoms: C18_25  and  C19_26 
ROOT
HETATM    1  C2  UNL     1      97.463  56.996  17.095  1.00  0.00     0.107 A 
HETATM    2  C3  UNL     1      97.350  56.179  15.995  1.00  0.00     0.077 A 
HETATM    3  C4  UNL     1      96.971  56.722  14.761  1.00  0.00     0.090 A 
HETATM    4  C5  UNL     1      96.716  58.077  14.671  1.00  0.00     0.083 A 
HETATM    5  C6  UNL     1      96.837  58.871  15.794  1.00  0.00     0.121 A 
HETATM    6  C8  UNL     1      97.209  58.362  17.021  1.00  0.00     0.136 A 
HETATM    7  C10 UNL     1      96.352  58.299  13.274  1.00  0.00     0.200 C 
HETATM    8  O4  UNL     1      96.335  59.466  12.788  1.00  0.00    -0.289 OA
HETATM    9  C11 UNL     1      96.062  56.990  12.694  1.00  0.00     0.138 C 
HETATM   10  C12 UNL     1      94.601  56.686  12.899  1.00  0.00     0.062 C 
HETATM   11  C13 UNL     1      93.693  57.346  11.927  1.00  0.00    -0.006 C 
HETATM   12  C14 UNL     1      92.763  58.265  12.733  1.00  0.00     0.021 C 
HETATM   13  C15 UNL     1      92.754  56.325  11.266  1.00  0.00     0.021 C 
HETATM   14  C16 UNL     1      94.354  58.079  10.845  1.00  0.00    -0.012 C 
HETATM   15  N1  UNL     1      93.642  58.942  10.193  1.00  0.00    -0.405 N 
ATOM     16  H11 UNL     1      94.103  59.453   9.441  1.00  0.00     0.155 HD
ATOM     17  H12 UNL     1      92.668  59.058  10.473  1.00  0.00     0.155 HD
HETATM   18  C17 UNL     1      95.773  57.911  10.438  1.00  0.00     0.061 C 
HETATM   19  C18 UNL     1      96.394  56.830  11.258  1.00  0.00     0.037 C 
HETATM   20  O5  UNL     1      96.791  56.112  13.529  1.00  0.00    -0.330 OA
ENDROOT
BRANCH  19  21
HETATM   21  C19 UNL     1      97.856  56.680  10.960  1.00  0.00    -0.015 C 
HETATM   22  C20 UNL     1      98.413  57.801  10.148  1.00  0.00     0.010 C 
HETATM   23  C21 UNL     1      98.217  55.382  10.317  1.00  0.00     0.010 C 
ENDBRANCH  19  21
BRANCH   5  24
HETATM   24  O2  UNL     1      96.583  60.235  15.719  1.00  0.00    -0.352 OA
HETATM   25  C7  UNL     1      95.311  60.805  15.779  1.00  0.00     0.210 C 
ENDBRANCH   5  24
BRANCH   6  26
HETATM   26  O3  UNL     1      97.315  59.198  18.104  1.00  0.00    -0.351 OA
HETATM   27  C9  UNL     1      96.310  59.378  19.076  1.00  0.00     0.210 C 
ENDBRANCH   6  26
BRANCH   1  28
HETATM   28  O1  UNL     1      97.836  56.516  18.350  1.00  0.00    -0.353 OA
HETATM   29  C1  UNL     1      97.788  55.100  18.545  1.00  0.00     0.210 C 
ENDBRANCH   1  28
TORSDOF 4
ENDMDL
MODEL 3
REMARK VINA RESULT: -6.882700167      4.188      5.534
REMARK  4 active torsions:
REMARK  status: ('A' for Active; 'I' for Inactive)
REMARK    1  A    between atoms: O1_2  and  C2_3 
REMARK    2  A    between atoms: C6_7  and  O2_8 
REMARK    3  A    between atoms: C8_10  and  O3_11 
REMARK    4  A    between atoms: C18_25  and  C19_26 
ROOT
HETATM    1  C2  UNL     1      94.969  67.133  16.297  1.00  0.00     0.107 A 
HETATM    2  C3  UNL     1      95.278  65.819  16.563  1.00  0.00     0.077 A 
HETATM    3  C4  UNL     1      94.415  64.802  16.137  1.00  0.00     0.090 A 
HETATM    4  C5  UNL     1      93.262  65.139  15.454  1.00  0.00     0.083 A 
HETATM    5  C6  UNL     1      92.980  66.466  15.203  1.00  0.00     0.121 A 
HETATM    6  C8  UNL     1      93.813  67.488  15.610  1.00  0.00     0.136 A 
HETATM    7  C10 UNL     1      92.610  63.864  15.169  1.00  0.00     0.200 C 
HETATM    8  O4  UNL     1      91.682  63.789  14.313  1.00  0.00    -0.289 OA
HETATM    9  C11 UNL     1      93.240  62.859  16.022  1.00  0.00     0.138 C 
HETATM   10  C12 UNL     1      92.498  62.807  17.332  1.00  0.00     0.062 C 
HETATM   11  C13 UNL     1      91.239  62.022  17.295  1.00  0.00    -0.006 C 
HETATM   12  C14 UNL     1      90.095  62.989  17.636  1.00  0.00     0.021 C 
HETATM   13  C15 UNL     1      91.208  60.972  18.416  1.00  0.00     0.021 C 
HETATM   14  C16 UNL     1      90.976  61.313  16.040  1.00  0.00    -0.012 C 
HETATM   15  N1  UNL     1      89.762  60.914  15.829  1.00  0.00    -0.405 N 
ATOM     16  H11 UNL     1      89.579  60.420  14.955  1.00  0.00     0.155 HD
ATOM     17  H12 UNL     1      89.066  61.118  16.547  1.00  0.00     0.155 HD
HETATM   18  C17 UNL     1      91.988  61.015  14.996  1.00  0.00     0.061 C 
HETATM   19  C18 UNL     1      93.325  61.491  15.458  1.00  0.00     0.037 C 
HETATM   20  O5  UNL     1      94.508  63.427  16.284  1.00  0.00    -0.330 OA
ENDROOT
BRANCH  19  21
HETATM   21  C19 UNL     1      94.374  61.306  14.402  1.00  0.00    -0.015 C 
HETATM   22  C20 UNL     1      93.811  60.991  13.057  1.00  0.00     0.010 C 
HETATM   23  C21 UNL     1      95.416  60.295  14.748  1.00  0.00     0.010 C 
ENDBRANCH  19  21
BRANCH   5  24
HETATM   24  O2  UNL     1      91.825  66.819  14.517  1.00  0.00    -0.352 OA
HETATM   25  C7  UNL     1      91.692  66.793  13.128  1.00  0.00     0.210 C 
ENDBRANCH   5  24
BRANCH   6  26
HETATM   26  O3  UNL     1      93.482  68.791  15.333  1.00  0.00    -0.351 OA
HETATM   27  C9  UNL     1      93.807  69.459  14.135  1.00  0.00     0.210 C 
ENDBRANCH   6  26
BRANCH   1  28
HETATM   28  O1  UNL     1      95.787  68.191  16.694  1.00  0.00    -0.353 OA
HETATM   29  C1  UNL     1      97.186  67.922  16.812  1.00  0.00     0.210 C 
ENDBRANCH   1  28
TORSDOF 4
ENDMDL
MODEL 4
REMARK VINA RESULT: -6.701592933      5.267      8.023
REMARK  4 active torsions:
REMARK  status: ('A' for Active; 'I' for Inactive)
REMARK    1  A    between atoms: O1_2  and  C2_3 
REMARK    2  A    between atoms: C6_7  and  O2_8 
REMARK    3  A    between atoms: C8_10  and  O3_11 
REMARK    4  A    between atoms: C18_25  and  C19_26 
ROOT
HETATM    1  C2  UNL     1      93.861  66.681  13.518  1.00  0.00     0.107 A 
HETATM    2  C3  UNL     1      93.973  65.935  12.367  1.00  0.00     0.077 A 
HETATM    3  C4  UNL     1      93.389  64.665  12.302  1.00  0.00     0.090 A 
HETATM    4  C5  UNL     1      92.707  64.179  13.402  1.00  0.00     0.083 A 
HETATM    5  C6  UNL     1      92.613  64.951  14.542  1.00  0.00     0.121 A 
HETATM    6  C8  UNL     1      93.179  66.206  14.633  1.00  0.00     0.136 A 
HETATM    7  C10 UNL     1      92.238  62.857  12.998  1.00  0.00     0.200 C 
HETATM    8  O4  UNL     1      91.343  62.258  13.661  1.00  0.00    -0.289 OA
HETATM    9  C11 UNL     1      92.984  62.485  11.798  1.00  0.00     0.138 C 
HETATM   10  C12 UNL     1      94.246  61.776  12.216  1.00  0.00     0.062 C 
HETATM   11  C13 UNL     1      94.060  60.347  12.574  1.00  0.00    -0.006 C 
HETATM   12  C14 UNL     1      94.473  60.194  14.045  1.00  0.00     0.021 C 
HETATM   13  C15 UNL     1      95.038  59.451  11.799  1.00  0.00     0.021 C 
HETATM   14  C16 UNL     1      92.717  59.810  12.342  1.00  0.00    -0.012 C 
HETATM   15  N1  UNL     1      92.408  58.707  12.946  1.00  0.00    -0.405 N 
ATOM     16  H11 UNL     1      91.473  58.334  12.785  1.00  0.00     0.155 HD
ATOM     17  H12 UNL     1      93.117  58.282  13.544  1.00  0.00     0.155 HD
HETATM   18  C17 UNL     1      91.684  60.429  11.472  1.00  0.00     0.061 C 
HETATM   19  C18 UNL     1      92.256  61.643  10.819  1.00  0.00     0.037 C 
HETATM   20  O5  UNL     1      93.366  63.739  11.270  1.00  0.00    -0.330 OA
ENDROOT
BRANCH  19  21
HETATM   21  C19 UNL     1      91.228  62.367  10.001  1.00  0.00    -0.015 C 
HETATM   22  C20 UNL     1      89.874  61.747  10.068  1.00  0.00     0.010 C 
HETATM   23  C21 UNL     1      91.611  62.559   8.571  1.00  0.00     0.010 C 
ENDBRANCH  19  21
BRANCH   5  24
HETATM   24  O2  UNL     1      91.931  64.477  15.655  1.00  0.00    -0.352 OA
HETATM   25  C7  UNL     1      92.484  63.631  16.618  1.00  0.00     0.210 C 
ENDBRANCH   5  24
BRANCH   6  26
HETATM   26  O3  UNL     1      93.054  66.930  15.792  1.00  0.00    -0.351 OA
HETATM   27  C9  UNL     1      93.991  66.921  16.844  1.00  0.00     0.210 C 
ENDBRANCH   6  26
BRANCH   1  28
HETATM   28  O1  UNL     1      94.421  67.952  13.644  1.00  0.00    -0.353 OA
HETATM   29  C1  UNL     1      95.839  68.025  13.808  1.00  0.00     0.210 C 
ENDBRANCH   1  28
TORSDOF 4
ENDMDL
MODEL 5
REMARK VINA RESULT: -6.690444629      4.358      7.711
REMARK  4 active torsions:
REMARK  status: ('A' for Active; 'I' for Inactive)
REMARK    1  A    between atoms: O1_2  and  C2_3 
REMARK    2  A    between atoms: C6_7  and  O2_8 
REMARK    3  A    between atoms: C8_10  and  O3_11 
REMARK    4  A    between atoms: C18_25  and  C19_26 
ROOT
HETATM    1  C2  UNL     1      94.587  61.203  15.975  1.00  0.00     0.107 A 
HETATM    2  C3  UNL     1      94.646  62.319  16.778  1.00  0.00     0.077 A 
HETATM    3  C4  UNL     1      94.110  63.530  16.325  1.00  0.00     0.090 A 
HETATM    4  C5  UNL     1      93.529  63.584  15.072  1.00  0.00     0.083 A 
HETATM    5  C6  UNL     1      93.486  62.448  14.290  1.00  0.00     0.121 A 
HETATM    6  C8  UNL     1      94.005  61.241  14.712  1.00  0.00     0.136 A 
HETATM    7  C10 UNL     1      93.086  64.967  14.924  1.00  0.00     0.200 C 
HETATM    8  O4  UNL     1      92.265  65.290  14.017  1.00  0.00    -0.289 OA
HETATM    9  C11 UNL     1      93.758  65.747  15.961  1.00  0.00     0.138 C 
HETATM   10  C12 UNL     1      95.075  66.238  15.416  1.00  0.00     0.062 C 
HETATM   11  C13 UNL     1      94.973  67.436  14.547  1.00  0.00    -0.006 C 
HETATM   12  C14 UNL     1      95.496  67.032  13.160  1.00  0.00     0.021 C 
HETATM   13  C15 UNL     1      95.929  68.544  15.017  1.00  0.00     0.021 C 
HETATM   14  C16 UNL     1      93.639  68.036  14.455  1.00  0.00    -0.012 C 
HETATM   15  N1  UNL     1      93.419  68.843  13.466  1.00  0.00    -0.405 N 
ATOM     16  H11 UNL     1      92.491  69.259  13.402  1.00  0.00     0.155 HD
ATOM     17  H12 UNL     1      94.186  69.010  12.814  1.00  0.00     0.155 HD
HETATM   18  C17 UNL     1      92.523  67.793  15.404  1.00  0.00     0.061 C 
HETATM   19  C18 UNL     1      92.997  66.898  16.501  1.00  0.00     0.037 C 
HETATM   20  O5  UNL     1      94.050  64.771  16.941  1.00  0.00    -0.330 OA
ENDROOT
BRANCH  19  21
HETATM   21  C19 UNL     1      91.885  66.537  17.441  1.00  0.00    -0.015 C 
HETATM   22  C20 UNL     1      90.550  67.030  16.995  1.00  0.00     0.010 C 
HETATM   23  C21 UNL     1      92.118  66.961  18.853  1.00  0.00     0.010 C 
ENDBRANCH  19  21
BRANCH   5  24
HETATM   24  O2  UNL     1      92.905  62.487  13.029  1.00  0.00    -0.352 OA
HETATM   25  C7  UNL     1      93.563  62.901  11.870  1.00  0.00     0.210 C 
ENDBRANCH   5  24
BRANCH   6  26
HETATM   26  O3  UNL     1      93.934  60.143  13.892  1.00  0.00    -0.351 OA
HETATM   27  C9  UNL     1      94.976  59.707  13.049  1.00  0.00     0.210 C 
ENDBRANCH   6  26
BRANCH   1  28
HETATM   28  O1  UNL     1      95.102  59.968  16.369  1.00  0.00    -0.353 OA
HETATM   29  C1  UNL     1      95.463  59.823  17.745  1.00  0.00     0.210 C 
ENDBRANCH   1  28
TORSDOF 4
ENDMDL
