MODEL 1
REMARK VINA RESULT: -8.418017240      0.000      0.000
REMARK  4 active torsions:
REMARK  status: ('A' for Active; 'I' for Inactive)
REMARK    1  A    between atoms: C3_5  and  S1_6 
REMARK    2  A    between atoms: S1_6  and  C4_7 
REMARK    3  A    between atoms: C4_7  and  C6_9 
REMARK    4  A    between atoms: N3_18  and  C12_19 
ROOT
HETATM    1  C1  UNL     1      97.822  66.693  22.273  1.00  0.00     0.069 C 
HETATM    2  C2  UNL     1      97.413  65.797  21.173  1.00  0.00     0.018 A 
HETATM    3  N1  UNL     1      97.402  66.209  19.917  1.00  0.00    -0.340 N 
ATOM      4  H1  UNL     1      97.686  67.169  19.721  1.00  0.00     0.167 HD
HETATM    5  C3  UNL     1      97.035  65.425  18.879  1.00  0.00     0.150 A 
HETATM    6  N3  UNL     1      96.650  64.149  19.056  1.00  0.00    -0.289 N 
HETATM    7  C18 UNL     1      96.655  63.710  20.327  1.00  0.00     0.257 A 
HETATM    8  O2  UNL     1      96.307  62.532  20.550  1.00  0.00    -0.267 OA
HETATM    9  C19 UNL     1      97.022  64.481  21.402  1.00  0.00     0.029 A 
HETATM   10  C20 UNL     1      97.031  64.001  22.808  1.00  0.00     0.056 C 
ENDROOT
BRANCH   5  11
HETATM   11  S1  UNL     1      97.053  66.186  17.272  1.00  0.00    -0.087 SA
BRANCH  11  12
HETATM   12  C4  UNL     1      95.711  67.304  16.949  1.00  0.00     0.079 C 
HETATM   13  C5  UNL     1      96.078  68.297  15.887  1.00  0.00     0.024 C 
BRANCH  12  14
HETATM   14  C6  UNL     1      94.418  66.601  16.588  1.00  0.00     0.042 C 
HETATM   15  C7  UNL     1      93.736  66.251  17.895  1.00  0.00     0.039 C 
HETATM   16  C8  UNL     1      94.638  65.392  15.738  1.00  0.00     0.032 C 
HETATM   17  C9  UNL     1      93.521  65.023  14.826  1.00  0.00     0.012 C 
HETATM   18  C10 UNL     1      92.156  65.491  15.275  1.00  0.00     0.103 C 
HETATM   19  C11 UNL     1      92.261  66.957  15.485  1.00  0.00     0.218 C 
HETATM   20  O1  UNL     1      91.301  67.751  15.332  1.00  0.00    -0.274 OA
HETATM   21  N2  UNL     1      93.513  67.495  15.880  1.00  0.00    -0.351 N 
ATOM     22  H2  UNL     1      93.767  68.461  15.678  1.00  0.00     0.163 HD
ENDBRANCH  12  14
ENDBRANCH  11  12
ENDBRANCH   5  11
BRANCH   6  23
HETATM   23  C12 UNL     1      96.206  63.262  18.000  1.00  0.00     0.095 C 
HETATM   24  C13 UNL     1      94.850  62.657  18.309  1.00  0.00     0.026 C 
HETATM   25  C14 UNL     1      94.536  61.683  17.177  1.00  0.00     0.002 C 
HETATM   26  C15 UNL     1      95.413  60.481  17.438  1.00  0.00     0.000 C 
HETATM   27  C16 UNL     1      96.852  60.830  17.591  1.00  0.00     0.002 C 
HETATM   28  C17 UNL     1      97.219  62.256  17.570  1.00  0.00     0.026 C 
ENDBRANCH   6  23
TORSDOF 4
ENDMDL
MODEL 2
REMARK VINA RESULT: -8.367434528      1.602      2.317
REMARK  4 active torsions:
REMARK  status: ('A' for Active; 'I' for Inactive)
REMARK    1  A    between atoms: C3_5  and  S1_6 
REMARK    2  A    between atoms: S1_6  and  C4_7 
REMARK    3  A    between atoms: C4_7  and  C6_9 
REMARK    4  A    between atoms: N3_18  and  C12_19 
ROOT
HETATM    1  C1  UNL     1      97.283  65.046  22.247  1.00  0.00     0.069 C 
HETATM    2  C2  UNL     1      96.779  64.193  21.152  1.00  0.00     0.018 A 
HETATM    3  N1  UNL     1      96.490  64.696  19.964  1.00  0.00    -0.340 N 
ATOM      4  H1  UNL     1      96.624  65.696  19.817  1.00  0.00     0.167 HD
HETATM    5  C3  UNL     1      96.027  63.954  18.933  1.00  0.00     0.150 A 
HETATM    6  N3  UNL     1      95.825  62.630  19.048  1.00  0.00    -0.289 N 
HETATM    7  C18 UNL     1      96.115  62.098  20.249  1.00  0.00     0.257 A 
HETATM    8  O2  UNL     1      95.947  60.871  20.411  1.00  0.00    -0.267 OA
HETATM    9  C19 UNL     1      96.586  62.824  21.314  1.00  0.00     0.029 A 
HETATM   10  C20 UNL     1      96.908  62.242  22.643  1.00  0.00     0.056 C 
ENDROOT
BRANCH   5  11
HETATM   11  S1  UNL     1      95.663  64.832  17.431  1.00  0.00    -0.087 SA
BRANCH  11  12
HETATM   12  C4  UNL     1      94.040  65.548  17.348  1.00  0.00     0.079 C 
HETATM   13  C5  UNL     1      93.795  66.471  18.504  1.00  0.00     0.024 C 
BRANCH  12  14
HETATM   14  C6  UNL     1      93.765  66.261  16.039  1.00  0.00     0.042 C 
HETATM   15  C7  UNL     1      92.258  66.351  15.903  1.00  0.00     0.039 C 
HETATM   16  C8  UNL     1      94.385  65.573  14.867  1.00  0.00     0.032 C 
HETATM   17  C9  UNL     1      94.741  66.442  13.712  1.00  0.00     0.012 C 
HETATM   18  C10 UNL     1      93.928  67.711  13.600  1.00  0.00     0.103 C 
HETATM   19  C11 UNL     1      94.058  68.411  14.903  1.00  0.00     0.218 C 
HETATM   20  O1  UNL     1      94.003  69.659  15.030  1.00  0.00    -0.274 OA
HETATM   21  N2  UNL     1      94.255  67.631  16.073  1.00  0.00    -0.351 N 
ATOM     22  H2  UNL     1      94.719  68.012  16.897  1.00  0.00     0.163 HD
ENDBRANCH  12  14
ENDBRANCH  11  12
ENDBRANCH   5  11
BRANCH   6  23
HETATM   23  C12 UNL     1      95.296  61.777  18.003  1.00  0.00     0.095 C 
HETATM   24  C13 UNL     1      96.097  61.899  16.720  1.00  0.00     0.026 C 
HETATM   25  C14 UNL     1      95.395  61.030  15.681  1.00  0.00     0.002 C 
HETATM   26  C15 UNL     1      94.164  61.810  15.283  1.00  0.00     0.000 C 
HETATM   27  C16 UNL     1      93.323  62.208  16.446  1.00  0.00     0.002 C 
HETATM   28  C17 UNL     1      93.824  61.894  17.795  1.00  0.00     0.026 C 
ENDBRANCH   6  23
TORSDOF 4
ENDMDL
MODEL 3
REMARK VINA RESULT: -8.359166914      1.243      1.643
REMARK  4 active torsions:
REMARK  status: ('A' for Active; 'I' for Inactive)
REMARK    1  A    between atoms: C3_5  and  S1_6 
REMARK    2  A    between atoms: S1_6  and  C4_7 
REMARK    3  A    between atoms: C4_7  and  C6_9 
REMARK    4  A    between atoms: N3_18  and  C12_19 
ROOT
HETATM    1  C1  UNL     1      97.772  66.949  22.000  1.00  0.00     0.069 C 
HETATM    2  C2  UNL     1      97.332  65.836  21.135  1.00  0.00     0.018 A 
HETATM    3  N1  UNL     1      97.118  66.012  19.842  1.00  0.00    -0.340 N 
ATOM      4  H1  UNL     1      97.266  66.942  19.450  1.00  0.00     0.167 HD
HETATM    5  C3  UNL     1      96.715  65.024  19.012  1.00  0.00     0.150 A 
HETATM    6  N3  UNL     1      96.499  63.772  19.453  1.00  0.00    -0.289 N 
HETATM    7  C18 UNL     1      96.713  63.572  20.766  1.00  0.00     0.257 A 
HETATM    8  O2  UNL     1      96.529  62.428  21.230  1.00  0.00    -0.267 OA
HETATM    9  C19 UNL     1      97.122  64.554  21.634  1.00  0.00     0.029 A 
HETATM   10  C20 UNL     1      97.359  64.338  23.085  1.00  0.00     0.056 C 
ENDROOT
BRANCH   5  11
HETATM   11  S1  UNL     1      96.447  65.480  17.315  1.00  0.00    -0.087 SA
BRANCH  11  12
HETATM   12  C4  UNL     1      95.672  67.060  17.069  1.00  0.00     0.079 C 
HETATM   13  C5  UNL     1      96.693  68.132  16.829  1.00  0.00     0.024 C 
BRANCH  12  14
HETATM   14  C6  UNL     1      94.642  67.056  15.958  1.00  0.00     0.042 C 
HETATM   15  C7  UNL     1      93.284  66.980  16.627  1.00  0.00     0.039 C 
HETATM   16  C8  UNL     1      94.844  65.937  14.990  1.00  0.00     0.032 C 
HETATM   17  C9  UNL     1      94.367  66.182  13.601  1.00  0.00     0.012 C 
HETATM   18  C10 UNL     1      93.254  67.197  13.482  1.00  0.00     0.103 C 
HETATM   19  C11 UNL     1      93.740  68.433  14.145  1.00  0.00     0.218 C 
HETATM   20  O1  UNL     1      93.380  69.589  13.811  1.00  0.00    -0.274 OA
HETATM   21  N2  UNL     1      94.663  68.308  15.216  1.00  0.00    -0.351 N 
ATOM     22  H2  UNL     1      95.310  69.059  15.455  1.00  0.00     0.163 HD
ENDBRANCH  12  14
ENDBRANCH  11  12
ENDBRANCH   5  11
BRANCH   6  23
HETATM   23  C12 UNL     1      96.030  62.673  18.635  1.00  0.00     0.095 C 
HETATM   24  C13 UNL     1      96.984  62.377  17.493  1.00  0.00     0.026 C 
HETATM   25  C14 UNL     1      96.342  61.271  16.661  1.00  0.00     0.002 C 
HETATM   26  C15 UNL     1      95.234  61.951  15.892  1.00  0.00     0.000 C 
HETATM   27  C16 UNL     1      94.296  62.710  16.766  1.00  0.00     0.002 C 
HETATM   28  C17 UNL     1      94.607  62.786  18.203  1.00  0.00     0.026 C 
ENDBRANCH   6  23
TORSDOF 4
ENDMDL
MODEL 4
REMARK VINA RESULT: -8.354862604      4.685      8.462
REMARK  4 active torsions:
REMARK  status: ('A' for Active; 'I' for Inactive)
REMARK    1  A    between atoms: C3_5  and  S1_6 
REMARK    2  A    between atoms: S1_6  and  C4_7 
REMARK    3  A    between atoms: C4_7  and  C6_9 
REMARK    4  A    between atoms: N3_18  and  C12_19 
ROOT
HETATM    1  C1  UNL     1      96.520  62.361  22.924  1.00  0.00     0.069 C 
HETATM    2  C2  UNL     1      96.536  62.011  21.489  1.00  0.00     0.018 A 
HETATM    3  N1  UNL     1      96.527  60.752  21.087  1.00  0.00    -0.340 N 
ATOM      4  H1  UNL     1      96.508  60.018  21.796  1.00  0.00     0.167 HD
HETATM    5  C3  UNL     1      96.542  60.385  19.786  1.00  0.00     0.150 A 
HETATM    6  N3  UNL     1      96.566  61.292  18.794  1.00  0.00    -0.289 N 
HETATM    7  C18 UNL     1      96.574  62.580  19.182  1.00  0.00     0.257 A 
HETATM    8  O2  UNL     1      96.596  63.466  18.303  1.00  0.00    -0.267 OA
HETATM    9  C19 UNL     1      96.560  62.984  20.494  1.00  0.00     0.029 A 
HETATM   10  C20 UNL     1      96.568  64.405  20.929  1.00  0.00     0.056 C 
ENDROOT
BRANCH   5  11
HETATM   11  S1  UNL     1      96.566  58.638  19.460  1.00  0.00    -0.087 SA
BRANCH  11  12
HETATM   12  C4  UNL     1      97.776  57.714  20.376  1.00  0.00     0.079 C 
HETATM   13  C5  UNL     1      97.278  57.384  21.751  1.00  0.00     0.024 C 
BRANCH  12  14
HETATM   14  C6  UNL     1      98.232  56.455  19.666  1.00  0.00     0.042 C 
HETATM   15  C7  UNL     1      99.742  56.533  19.574  1.00  0.00     0.039 C 
HETATM   16  C8  UNL     1      97.604  56.293  18.320  1.00  0.00     0.032 C 
HETATM   17  C9  UNL     1      97.448  54.893  17.837  1.00  0.00     0.012 C 
HETATM   18  C10 UNL     1      98.432  53.907  18.423  1.00  0.00     0.103 C 
HETATM   19  C11 UNL     1      98.311  54.018  19.899  1.00  0.00     0.218 C 
HETATM   20  O1  UNL     1      98.525  53.065  20.687  1.00  0.00    -0.274 OA
HETATM   21  N2  UNL     1      97.931  55.268  20.453  1.00  0.00    -0.351 N 
ATOM     22  H2  UNL     1      97.469  55.332  21.360  1.00  0.00     0.163 HD
ENDBRANCH  12  14
ENDBRANCH  11  12
ENDBRANCH   5  11
BRANCH   6  23
HETATM   23  C12 UNL     1      96.622  60.976  17.382  1.00  0.00     0.095 C 
HETATM   24  C13 UNL     1      95.338  60.328  16.901  1.00  0.00     0.026 C 
HETATM   25  C14 UNL     1      95.552  59.966  15.434  1.00  0.00     0.002 C 
HETATM   26  C15 UNL     1      96.453  58.753  15.456  1.00  0.00     0.000 C 
HETATM   27  C16 UNL     1      97.699  58.966  16.243  1.00  0.00     0.002 C 
HETATM   28  C17 UNL     1      97.850  60.243  16.959  1.00  0.00     0.026 C 
ENDBRANCH   6  23
TORSDOF 4
ENDMDL
MODEL 5
REMARK VINA RESULT: -8.164900460      1.735      2.127
REMARK  4 active torsions:
REMARK  status: ('A' for Active; 'I' for Inactive)
REMARK    1  A    between atoms: C3_5  and  S1_6 
REMARK    2  A    between atoms: S1_6  and  C4_7 
REMARK    3  A    between atoms: C4_7  and  C6_9 
REMARK    4  A    between atoms: N3_18  and  C12_19 
ROOT
HETATM    1  C1  UNL     1      96.612  63.820  22.917  1.00  0.00     0.069 C 
HETATM    2  C2  UNL     1      96.581  63.239  21.561  1.00  0.00     0.018 A 
HETATM    3  N1  UNL     1      96.584  64.004  20.483  1.00  0.00    -0.340 N 
ATOM      4  H1  UNL     1      96.608  65.016  20.609  1.00  0.00     0.167 HD
HETATM    5  C3  UNL     1      96.557  63.516  19.222  1.00  0.00     0.150 A 
HETATM    6  N3  UNL     1      96.525  62.195  18.974  1.00  0.00    -0.289 N 
HETATM    7  C18 UNL     1      96.523  61.399  20.058  1.00  0.00     0.257 A 
HETATM    8  O2  UNL     1      96.495  60.162  19.887  1.00  0.00    -0.267 OA
HETATM    9  C19 UNL     1      96.550  61.863  21.350  1.00  0.00     0.029 A 
HETATM   10  C20 UNL     1      96.548  60.988  22.551  1.00  0.00     0.056 C 
ENDROOT
BRANCH   5  11
HETATM   11  S1  UNL     1      96.526  64.718  17.913  1.00  0.00    -0.087 SA
BRANCH  11  12
HETATM   12  C4  UNL     1      95.437  66.097  18.176  1.00  0.00     0.079 C 
HETATM   13  C5  UNL     1      96.204  67.323  18.573  1.00  0.00     0.024 C 
BRANCH  12  14
HETATM   14  C6  UNL     1      94.548  66.395  16.986  1.00  0.00     0.042 C 
HETATM   15  C7  UNL     1      93.132  66.489  17.516  1.00  0.00     0.039 C 
HETATM   16  C8  UNL     1      94.667  65.369  15.907  1.00  0.00     0.032 C 
HETATM   17  C9  UNL     1      94.392  65.842  14.523  1.00  0.00     0.012 C 
HETATM   18  C10 UNL     1      93.482  67.045  14.433  1.00  0.00     0.103 C 
HETATM   19  C11 UNL     1      94.090  68.097  15.286  1.00  0.00     0.218 C 
HETATM   20  O1  UNL     1      93.965  69.327  15.067  1.00  0.00    -0.274 OA
HETATM   21  N2  UNL     1      94.857  67.696  16.411  1.00  0.00    -0.351 N 
ATOM     22  H2  UNL     1      95.589  68.291  16.798  1.00  0.00     0.163 HD
ENDBRANCH  12  14
ENDBRANCH  11  12
ENDBRANCH   5  11
BRANCH   6  23
HETATM   23  C12 UNL     1      96.455  61.600  17.656  1.00  0.00     0.095 C 
HETATM   24  C13 UNL     1      95.174  60.810  17.465  1.00  0.00     0.026 C 
HETATM   25  C14 UNL     1      95.258  60.165  16.084  1.00  0.00     0.002 C 
HETATM   26  C15 UNL     1      96.236  59.024  16.243  1.00  0.00     0.000 C 
HETATM   27  C16 UNL     1      97.540  59.448  16.823  1.00  0.00     0.002 C 
HETATM   28  C17 UNL     1      97.678  60.851  17.248  1.00  0.00     0.026 C 
ENDBRANCH   6  23
TORSDOF 4
ENDMDL
