MODEL 1
REMARK VINA RESULT: -9.325625847      0.000      0.000
REMARK  4 active torsions:
REMARK  status: ('A' for Active; 'I' for Inactive)
REMARK    1  A    between atoms: C1_2  and  C2_3 
REMARK       I    between atoms: C1_2  and  N3_21 
REMARK    2  A    between atoms: C2_3  and  S1_4 
REMARK    3  A    between atoms: S1_4  and  C3_5 
REMARK    4  A    between atoms: N3_21  and  C14_23 
ROOT
HETATM    1  C3  UNL     1      98.403  66.916  19.931  1.00  0.00     0.084 A 
HETATM    2  N1  UNL     1      99.391  67.807  19.975  1.00  0.00    -0.346 N 
ATOM      3  H1  UNL     1      99.541  68.368  19.136  1.00  0.00     0.167 HD
HETATM    4  C4  UNL     1     100.194  68.037  20.994  1.00  0.00     0.182 A 
HETATM    5  N2  UNL     1      99.970  67.284  22.083  1.00  0.00    -0.346 N 
ATOM      6  H2  UNL     1     100.557  67.411  22.907  1.00  0.00     0.167 HD
HETATM    7  C5  UNL     1      98.968  66.348  22.110  1.00  0.00     0.089 A 
HETATM    8  S2  UNL     1      98.427  65.300  23.340  1.00  0.00    -0.075 SA
HETATM    9  C6  UNL     1      97.145  64.572  22.504  1.00  0.00    -0.008 A 
HETATM   10  C7  UNL     1      97.167  65.183  21.229  1.00  0.00    -0.029 A 
HETATM   11  C8  UNL     1      98.130  66.104  21.057  1.00  0.00     0.039 A 
HETATM   12  C9  UNL     1      96.104  64.745  20.260  1.00  0.00     0.040 C 
HETATM   13  C10 UNL     1      96.072  63.260  20.036  1.00  0.00     0.005 C 
HETATM   14  C11 UNL     1      96.972  62.471  20.954  1.00  0.00     0.001 C 
HETATM   15  C12 UNL     1      96.353  62.272  22.320  1.00  0.00     0.005 C 
HETATM   16  C13 UNL     1      96.206  63.543  23.070  1.00  0.00     0.046 C 
ENDROOT
BRANCH   1  17
HETATM   17  S1  UNL     1      97.444  66.798  18.438  1.00  0.00    -0.102 SA
BRANCH  17  18
HETATM   18  C2  UNL     1      97.730  68.300  17.489  1.00  0.00     0.183 C 
BRANCH  18  19
HETATM   19  C1  UNL     1      96.700  68.547  16.439  1.00  0.00     0.227 C 
HETATM   20  O1  UNL     1      96.595  69.768  16.053  1.00  0.00    -0.273 OA
HETATM   21  N3  UNL     1      95.869  67.601  15.848  1.00  0.00    -0.356 N 
ATOM     22  H3  UNL     1      95.991  66.652  16.204  1.00  0.00     0.162 HD
BRANCH  21  23
HETATM   23  C14 UNL     1      94.881  67.724  14.837  1.00  0.00     0.084 C 
HETATM   24  C15 UNL     1      95.136  67.094  13.513  1.00  0.00     0.025 C 
HETATM   25  C16 UNL     1      93.851  66.499  12.930  1.00  0.00     0.002 C 
HETATM   26  C17 UNL     1      92.729  67.498  12.967  1.00  0.00     0.000 C 
HETATM   27  C18 UNL     1      92.453  67.820  14.408  1.00  0.00     0.002 C 
HETATM   28  C19 UNL     1      93.505  67.320  15.336  1.00  0.00     0.025 C 
ENDBRANCH  21  23
ENDBRANCH  18  19
ENDBRANCH  17  18
ENDBRANCH   1  17
TORSDOF 4
ENDMDL
MODEL 2
REMARK VINA RESULT: -9.289016069      6.670      9.577
REMARK  4 active torsions:
REMARK  status: ('A' for Active; 'I' for Inactive)
REMARK    1  A    between atoms: C1_2  and  C2_3 
REMARK       I    between atoms: C1_2  and  N3_21 
REMARK    2  A    between atoms: C2_3  and  S1_4 
REMARK    3  A    between atoms: S1_4  and  C3_5 
REMARK    4  A    between atoms: N3_21  and  C14_23 
ROOT
HETATM    1  C3  UNL     1      97.088  57.860  16.376  1.00  0.00     0.084 A 
HETATM    2  N1  UNL     1      96.710  57.589  15.128  1.00  0.00    -0.346 N 
ATOM      3  H1  UNL     1      96.476  58.385  14.535  1.00  0.00     0.167 HD
HETATM    4  C4  UNL     1      96.607  56.393  14.583  1.00  0.00     0.182 A 
HETATM    5  N2  UNL     1      96.924  55.365  15.389  1.00  0.00    -0.346 N 
ATOM      6  H2  UNL     1      96.865  54.413  15.030  1.00  0.00     0.167 HD
HETATM    7  C5  UNL     1      97.324  55.570  16.684  1.00  0.00     0.089 A 
HETATM    8  S2  UNL     1      97.823  54.490  17.902  1.00  0.00    -0.075 SA
HETATM    9  C6  UNL     1      98.168  55.620  19.117  1.00  0.00    -0.008 A 
HETATM   10  C7  UNL     1      97.871  56.870  18.526  1.00  0.00    -0.029 A 
HETATM   11  C8  UNL     1      97.433  56.809  17.257  1.00  0.00     0.039 A 
HETATM   12  C9  UNL     1      98.110  58.086  19.377  1.00  0.00     0.040 C 
HETATM   13  C10 UNL     1      97.395  58.043  20.698  1.00  0.00     0.005 C 
HETATM   14  C11 UNL     1      96.731  56.723  21.005  1.00  0.00     0.001 C 
HETATM   15  C12 UNL     1      97.718  55.697  21.514  1.00  0.00     0.005 C 
HETATM   16  C13 UNL     1      98.707  55.298  20.482  1.00  0.00     0.046 C 
ENDROOT
BRANCH   1  17
HETATM   17  S1  UNL     1      97.160  59.564  16.879  1.00  0.00    -0.102 SA
BRANCH  17  18
HETATM   18  C2  UNL     1      95.467  60.143  17.079  1.00  0.00     0.183 C 
BRANCH  18  19
HETATM   19  C1  UNL     1      95.280  61.047  18.250  1.00  0.00     0.227 C 
HETATM   20  O1  UNL     1      94.247  61.809  18.192  1.00  0.00    -0.273 OA
HETATM   21  N3  UNL     1      96.097  61.137  19.373  1.00  0.00    -0.356 N 
ATOM     22  H3  UNL     1      96.907  60.516  19.355  1.00  0.00     0.162 HD
BRANCH  21  23
HETATM   23  C14 UNL     1      96.000  61.940  20.538  1.00  0.00     0.084 C 
HETATM   24  C15 UNL     1      96.232  61.301  21.863  1.00  0.00     0.025 C 
HETATM   25  C16 UNL     1      96.982  62.247  22.805  1.00  0.00     0.002 C 
HETATM   26  C17 UNL     1      96.330  63.599  22.844  1.00  0.00     0.000 C 
HETATM   27  C18 UNL     1      96.419  64.188  21.464  1.00  0.00     0.002 C 
HETATM   28  C19 UNL     1      96.836  63.203  20.428  1.00  0.00     0.025 C 
ENDBRANCH  21  23
ENDBRANCH  18  19
ENDBRANCH  17  18
ENDBRANCH   1  17
TORSDOF 4
ENDMDL
MODEL 3
REMARK VINA RESULT: -9.107793398      5.545      8.705
REMARK  4 active torsions:
REMARK  status: ('A' for Active; 'I' for Inactive)
REMARK    1  A    between atoms: C1_2  and  C2_3 
REMARK       I    between atoms: C1_2  and  N3_21 
REMARK    2  A    between atoms: C2_3  and  S1_4 
REMARK    3  A    between atoms: S1_4  and  C3_5 
REMARK    4  A    between atoms: N3_21  and  C14_23 
ROOT
HETATM    1  C3  UNL     1      96.133  62.033  20.488  1.00  0.00     0.084 A 
HETATM    2  N1  UNL     1      96.171  61.234  21.553  1.00  0.00    -0.346 N 
ATOM      3  H1  UNL     1      95.881  60.266  21.412  1.00  0.00     0.167 HD
HETATM    4  C4  UNL     1      96.547  61.570  22.771  1.00  0.00     0.182 A 
HETATM    5  N2  UNL     1      96.924  62.850  22.923  1.00  0.00    -0.346 N 
ATOM      6  H2  UNL     1      97.225  63.176  23.841  1.00  0.00     0.167 HD
HETATM    7  C5  UNL     1      96.913  63.728  21.870  1.00  0.00     0.089 A 
HETATM    8  S2  UNL     1      97.372  65.364  21.751  1.00  0.00    -0.075 SA
HETATM    9  C6  UNL     1      97.071  65.591  20.098  1.00  0.00    -0.008 A 
HETATM   10  C7  UNL     1      96.596  64.336  19.654  1.00  0.00    -0.029 A 
HETATM   11  C8  UNL     1      96.525  63.386  20.602  1.00  0.00     0.039 A 
HETATM   12  C9  UNL     1      96.265  64.226  18.191  1.00  0.00     0.040 C 
HETATM   13  C10 UNL     1      95.283  65.261  17.719  1.00  0.00     0.005 C 
HETATM   14  C11 UNL     1      94.958  66.323  18.740  1.00  0.00     0.001 C 
HETATM   15  C12 UNL     1      96.032  67.386  18.813  1.00  0.00     0.005 C 
HETATM   16  C13 UNL     1      97.319  66.860  19.332  1.00  0.00     0.046 C 
ENDROOT
BRANCH   1  17
HETATM   17  S1  UNL     1      95.599  61.341  18.939  1.00  0.00    -0.102 SA
BRANCH  17  18
HETATM   18  C2  UNL     1      96.992  60.446  18.234  1.00  0.00     0.183 C 
BRANCH  18  19
HETATM   19  C1  UNL     1      97.130  59.054  18.750  1.00  0.00     0.227 C 
HETATM   20  O1  UNL     1      96.631  58.853  19.917  1.00  0.00    -0.273 OA
HETATM   21  N3  UNL     1      97.728  57.979  18.100  1.00  0.00    -0.356 N 
ATOM     22  H3  UNL     1      98.116  58.205  17.183  1.00  0.00     0.162 HD
BRANCH  21  23
HETATM   23  C14 UNL     1      97.893  56.625  18.489  1.00  0.00     0.084 C 
HETATM   24  C15 UNL     1      98.097  55.601  17.429  1.00  0.00     0.025 C 
HETATM   25  C16 UNL     1      99.099  54.534  17.879  1.00  0.00     0.002 C 
HETATM   26  C17 UNL     1      98.743  53.999  19.236  1.00  0.00     0.000 C 
HETATM   27  C18 UNL     1      98.838  55.135  20.214  1.00  0.00     0.002 C 
HETATM   28  C19 UNL     1      98.959  56.468  19.560  1.00  0.00     0.025 C 
ENDBRANCH  21  23
ENDBRANCH  18  19
ENDBRANCH  17  18
ENDBRANCH   1  17
TORSDOF 4
ENDMDL
MODEL 4
REMARK VINA RESULT: -9.076100805      2.573      8.163
REMARK  4 active torsions:
REMARK  status: ('A' for Active; 'I' for Inactive)
REMARK    1  A    between atoms: C1_2  and  C2_3 
REMARK       I    between atoms: C1_2  and  N3_21 
REMARK    2  A    between atoms: C2_3  and  S1_4 
REMARK    3  A    between atoms: S1_4  and  C3_5 
REMARK    4  A    between atoms: N3_21  and  C14_23 
ROOT
HETATM    1  C3  UNL     1      95.597  66.980  17.150  1.00  0.00     0.084 A 
HETATM    2  N1  UNL     1      96.504  67.828  17.631  1.00  0.00    -0.346 N 
ATOM      3  H1  UNL     1      96.676  67.796  18.636  1.00  0.00     0.167 HD
HETATM    4  C4  UNL     1      97.203  68.704  16.937  1.00  0.00     0.182 A 
HETATM    5  N2  UNL     1      96.955  68.720  15.617  1.00  0.00    -0.346 N 
ATOM      6  H2  UNL     1      97.461  69.375  15.021  1.00  0.00     0.167 HD
HETATM    7  C5  UNL     1      96.036  67.874  15.052  1.00  0.00     0.089 A 
HETATM    8  S2  UNL     1      95.553  67.637  13.436  1.00  0.00    -0.075 SA
HETATM    9  C6  UNL     1      94.440  66.383  13.686  1.00  0.00    -0.008 A 
HETATM   10  C7  UNL     1      94.465  66.168  15.083  1.00  0.00    -0.029 A 
HETATM   11  C8  UNL     1      95.307  66.961  15.766  1.00  0.00     0.039 A 
HETATM   12  C9  UNL     1      93.577  65.073  15.606  1.00  0.00     0.040 C 
HETATM   13  C10 UNL     1      92.136  65.228  15.210  1.00  0.00     0.005 C 
HETATM   14  C11 UNL     1      91.878  66.334  14.217  1.00  0.00     0.001 C 
HETATM   15  C12 UNL     1      92.214  65.915  12.803  1.00  0.00     0.005 C 
HETATM   16  C13 UNL     1      93.665  65.676  12.610  1.00  0.00     0.046 C 
ENDROOT
BRANCH   1  17
HETATM   17  S1  UNL     1      94.789  65.880  18.290  1.00  0.00    -0.102 SA
BRANCH  17  18
HETATM   18  C2  UNL     1      95.994  64.642  18.796  1.00  0.00     0.183 C 
BRANCH  18  19
HETATM   19  C1  UNL     1      97.026  65.164  19.738  1.00  0.00     0.227 C 
HETATM   20  O1  UNL     1      98.069  65.667  19.182  1.00  0.00    -0.273 OA
HETATM   21  N3  UNL     1      96.962  65.162  21.128  1.00  0.00    -0.356 N 
ATOM     22  H3  UNL     1      96.115  64.739  21.510  1.00  0.00     0.162 HD
BRANCH  21  23
HETATM   23  C14 UNL     1      97.868  65.646  22.107  1.00  0.00     0.084 C 
HETATM   24  C15 UNL     1      97.866  67.101  22.420  1.00  0.00     0.025 C 
HETATM   25  C16 UNL     1      98.092  67.342  23.915  1.00  0.00     0.002 C 
HETATM   26  C17 UNL     1      99.284  66.576  24.411  1.00  0.00     0.000 C 
HETATM   27  C18 UNL     1      98.988  65.112  24.240  1.00  0.00     0.002 C 
HETATM   28  C19 UNL     1      97.789  64.848  23.397  1.00  0.00     0.025 C 
ENDBRANCH  21  23
ENDBRANCH  18  19
ENDBRANCH  17  18
ENDBRANCH   1  17
TORSDOF 4
ENDMDL
MODEL 5
REMARK VINA RESULT: -9.044514955      0.496      1.048
REMARK  4 active torsions:
REMARK  status: ('A' for Active; 'I' for Inactive)
REMARK    1  A    between atoms: C1_2  and  C2_3 
REMARK       I    between atoms: C1_2  and  N3_21 
REMARK    2  A    between atoms: C2_3  and  S1_4 
REMARK    3  A    between atoms: S1_4  and  C3_5 
REMARK    4  A    between atoms: N3_21  and  C14_23 
ROOT
HETATM    1  C3  UNL     1      98.334  66.653  19.948  1.00  0.00     0.084 A 
HETATM    2  N1  UNL     1      99.290  67.579  19.973  1.00  0.00    -0.346 N 
ATOM      3  H1  UNL     1      99.464  68.085  19.104  1.00  0.00     0.167 HD
HETATM    4  C4  UNL     1     100.034  67.908  21.010  1.00  0.00     0.182 A 
HETATM    5  N2  UNL     1      99.780  67.225  22.139  1.00  0.00    -0.346 N 
ATOM      6  H2  UNL     1     100.321  67.430  22.979  1.00  0.00     0.167 HD
HETATM    7  C5  UNL     1      98.808  66.259  22.186  1.00  0.00     0.089 A 
HETATM    8  S2  UNL     1      98.240  65.282  23.460  1.00  0.00    -0.075 SA
HETATM    9  C6  UNL     1      97.024  64.453  22.620  1.00  0.00    -0.008 A 
HETATM   10  C7  UNL     1      97.090  64.973  21.307  1.00  0.00    -0.029 A 
HETATM   11  C8  UNL     1      98.031  65.913  21.114  1.00  0.00     0.039 A 
HETATM   12  C9  UNL     1      96.091  64.432  20.322  1.00  0.00     0.040 C 
HETATM   13  C10 UNL     1      96.116  62.934  20.203  1.00  0.00     0.005 C 
HETATM   14  C11 UNL     1      96.994  62.243  21.218  1.00  0.00     0.001 C 
HETATM   15  C12 UNL     1      96.315  62.119  22.563  1.00  0.00     0.005 C 
HETATM   16  C13 UNL     1      96.091  63.434  23.212  1.00  0.00     0.046 C 
ENDROOT
BRANCH   1  17
HETATM   17  S1  UNL     1      97.455  66.397  18.423  1.00  0.00    -0.102 SA
BRANCH  17  18
HETATM   18  C2  UNL     1      97.325  67.991  17.597  1.00  0.00     0.183 C 
BRANCH  18  19
HETATM   19  C1  UNL     1      96.274  68.030  16.539  1.00  0.00     0.227 C 
HETATM   20  O1  UNL     1      96.186  69.141  15.899  1.00  0.00    -0.273 OA
HETATM   21  N3  UNL     1      95.408  67.001  16.186  1.00  0.00    -0.356 N 
ATOM     22  H3  UNL     1      95.519  66.149  16.737  1.00  0.00     0.162 HD
BRANCH  21  23
HETATM   23  C14 UNL     1      94.398  66.928  15.192  1.00  0.00     0.084 C 
HETATM   24  C15 UNL     1      93.366  67.999  15.148  1.00  0.00     0.025 C 
HETATM   25  C16 UNL     1      92.995  68.346  13.703  1.00  0.00     0.002 C 
HETATM   26  C17 UNL     1      92.676  67.107  12.916  1.00  0.00     0.000 C 
HETATM   27  C18 UNL     1      93.921  66.267  12.863  1.00  0.00     0.002 C 
HETATM   28  C19 UNL     1      94.981  66.724  13.805  1.00  0.00     0.025 C 
ENDBRANCH  21  23
ENDBRANCH  18  19
ENDBRANCH  17  18
ENDBRANCH   1  17
TORSDOF 4
ENDMDL
