MODEL 1
REMARK VINA RESULT: -9.019465145      0.000      0.000
REMARK  4 active torsions:
REMARK  status: ('A' for Active; 'I' for Inactive)
REMARK       I    between atoms: C1_2  and  N1_3 
REMARK    1  A    between atoms: C1_2  and  C6_14 
REMARK    2  A    between atoms: N1_3  and  S1_5 
REMARK    3  A    between atoms: S1_5  and  O4_8 
REMARK    4  A    between atoms: O4_8  and  C2_9 
ROOT
HETATM    1  O1  UNL     1      97.133  66.632  16.250  1.00  0.00    -0.267 OA
HETATM    2  C1  UNL     1      96.146  66.770  16.999  1.00  0.00     0.258 C 
HETATM    3  N1  UNL     1      95.119  67.648  16.562  1.00  0.00    -0.227 N 
ATOM      4  H1  UNL     1      94.300  67.779  17.155  1.00  0.00     0.184 HD
ENDROOT
BRANCH   2   5
HETATM    5  C6  UNL     1      96.124  66.012  18.267  1.00  0.00    -0.011 C 
HETATM    6  C7  UNL     1      97.050  64.829  18.270  1.00  0.00     0.040 C 
HETATM    7  C8  UNL     1      96.414  63.509  18.501  1.00  0.00     0.004 C 
HETATM    8  C9  UNL     1      95.913  63.225  19.861  1.00  0.00     0.000 C 
HETATM    9  C10 UNL     1      96.954  63.129  20.932  1.00  0.00     0.000 C 
HETATM   10  C11 UNL     1      96.389  63.734  22.197  1.00  0.00     0.000 C 
HETATM   11  C12 UNL     1      97.392  64.291  23.130  1.00  0.00     0.000 C 
HETATM   12  C13 UNL     1      98.301  65.336  22.585  1.00  0.00     0.000 C 
HETATM   13  C14 UNL     1      97.570  66.618  22.192  1.00  0.00     0.000 C 
HETATM   14  C15 UNL     1      98.188  67.121  20.943  1.00  0.00     0.000 C 
HETATM   15  C16 UNL     1      97.272  67.631  19.880  1.00  0.00     0.004 C 
HETATM   16  C17 UNL     1      96.112  66.840  19.508  1.00  0.00     0.040 C 
ENDBRANCH   2   5
BRANCH   3  17
HETATM   17  S1  UNL     1      95.205  68.495  15.076  1.00  0.00     0.369 S 
HETATM   18  O2  UNL     1      94.073  69.476  14.976  1.00  0.00    -0.175 OA
HETATM   19  O3  UNL     1      96.476  69.285  14.972  1.00  0.00    -0.175 OA
BRANCH  17  20
HETATM   20  O4  UNL     1      95.063  67.442  13.755  1.00  0.00    -0.216 OA
BRANCH  20  21
HETATM   21  C2  UNL     1      93.922  66.587  13.642  1.00  0.00     0.098 A 
HETATM   22  C3  UNL     1      92.768  66.941  13.065  1.00  0.00     0.046 A 
HETATM   23  C4  UNL     1      91.764  66.015  13.032  1.00  0.00     0.052 A 
HETATM   24  S2  UNL     1      92.459  64.670  13.810  1.00  0.00    -0.111 SA
HETATM   25  C5  UNL     1      94.000  65.315  14.155  1.00  0.00     0.087 A 
ENDBRANCH  20  21
ENDBRANCH  17  20
ENDBRANCH   3  17
TORSDOF 4
ENDMDL
MODEL 2
REMARK VINA RESULT: -8.863261457      0.966      1.179
REMARK  4 active torsions:
REMARK  status: ('A' for Active; 'I' for Inactive)
REMARK       I    between atoms: C1_2  and  N1_3 
REMARK    1  A    between atoms: C1_2  and  C6_14 
REMARK    2  A    between atoms: N1_3  and  S1_5 
REMARK    3  A    between atoms: S1_5  and  O4_8 
REMARK    4  A    between atoms: O4_8  and  C2_9 
ROOT
HETATM    1  O1  UNL     1      97.778  66.670  16.648  1.00  0.00    -0.267 OA
HETATM    2  C1  UNL     1      96.705  66.784  17.271  1.00  0.00     0.258 C 
HETATM    3  N1  UNL     1      95.736  67.673  16.736  1.00  0.00    -0.227 N 
ATOM      4  H1  UNL     1      94.849  67.785  17.227  1.00  0.00     0.184 HD
ENDROOT
BRANCH   2   5
HETATM    5  C6  UNL     1      96.531  65.988  18.504  1.00  0.00    -0.011 C 
HETATM    6  C7  UNL     1      97.377  64.747  18.537  1.00  0.00     0.040 C 
HETATM    7  C8  UNL     1      96.641  63.465  18.667  1.00  0.00     0.004 C 
HETATM    8  C9  UNL     1      96.012  63.171  19.970  1.00  0.00     0.000 C 
HETATM    9  C10 UNL     1      96.953  62.972  21.118  1.00  0.00     0.000 C 
HETATM   10  C11 UNL     1      96.324  63.572  22.354  1.00  0.00     0.000 C 
HETATM   11  C12 UNL     1      97.280  64.031  23.386  1.00  0.00     0.000 C 
HETATM   12  C13 UNL     1      98.295  65.030  22.955  1.00  0.00     0.000 C 
HETATM   13  C14 UNL     1      97.681  66.371  22.553  1.00  0.00     0.000 C 
HETATM   14  C15 UNL     1      98.432  66.872  21.378  1.00  0.00     0.000 C 
HETATM   15  C16 UNL     1      97.642  67.475  20.264  1.00  0.00     0.004 C 
HETATM   16  C17 UNL     1      96.469  66.775  19.771  1.00  0.00     0.040 C 
ENDBRANCH   2   5
BRANCH   3  17
HETATM   17  S1  UNL     1      96.001  68.564  15.299  1.00  0.00     0.369 S 
HETATM   18  O2  UNL     1      96.583  69.909  15.625  1.00  0.00    -0.175 OA
HETATM   19  O3  UNL     1      96.983  67.872  14.401  1.00  0.00    -0.175 OA
BRANCH  17  20
HETATM   20  O4  UNL     1      94.550  68.844  14.468  1.00  0.00    -0.216 OA
BRANCH  20  21
HETATM   21  C2  UNL     1      93.559  67.814  14.393  1.00  0.00     0.098 A 
HETATM   22  C3  UNL     1      92.560  67.665  15.271  1.00  0.00     0.046 A 
HETATM   23  C4  UNL     1      91.689  66.632  15.071  1.00  0.00     0.052 A 
HETATM   24  S2  UNL     1      92.288  65.894  13.658  1.00  0.00    -0.111 SA
HETATM   25  C5  UNL     1      93.624  66.912  13.360  1.00  0.00     0.087 A 
ENDBRANCH  20  21
ENDBRANCH  17  20
ENDBRANCH   3  17
TORSDOF 4
ENDMDL
MODEL 3
REMARK VINA RESULT: -8.793205310      1.631      2.186
REMARK  4 active torsions:
REMARK  status: ('A' for Active; 'I' for Inactive)
REMARK       I    between atoms: C1_2  and  N1_3 
REMARK    1  A    between atoms: C1_2  and  C6_14 
REMARK    2  A    between atoms: N1_3  and  S1_5 
REMARK    3  A    between atoms: S1_5  and  O4_8 
REMARK    4  A    between atoms: O4_8  and  C2_9 
ROOT
HETATM    1  O1  UNL     1      97.838  66.274  16.952  1.00  0.00    -0.267 OA
HETATM    2  C1  UNL     1      96.648  66.081  17.267  1.00  0.00     0.258 C 
HETATM    3  N1  UNL     1      95.693  67.021  16.799  1.00  0.00    -0.227 N 
ATOM      4  H1  UNL     1      94.712  66.887  17.043  1.00  0.00     0.184 HD
ENDROOT
BRANCH   2   5
HETATM    5  C6  UNL     1      96.332  64.897  18.093  1.00  0.00    -0.011 C 
HETATM    6  C7  UNL     1      97.359  63.805  17.988  1.00  0.00     0.040 C 
HETATM    7  C8  UNL     1      96.864  62.494  17.502  1.00  0.00     0.004 C 
HETATM    8  C9  UNL     1      96.005  61.712  18.413  1.00  0.00     0.000 C 
HETATM    9  C10 UNL     1      96.662  61.219  19.665  1.00  0.00     0.000 C 
HETATM   10  C11 UNL     1      95.654  61.294  20.789  1.00  0.00     0.000 C 
HETATM   11  C12 UNL     1      96.232  61.458  22.141  1.00  0.00     0.000 C 
HETATM   12  C13 UNL     1      97.118  62.635  22.349  1.00  0.00     0.000 C 
HETATM   13  C14 UNL     1      96.383  63.968  22.216  1.00  0.00     0.000 C 
HETATM   14  C15 UNL     1      97.288  64.911  21.519  1.00  0.00     0.000 C 
HETATM   15  C16 UNL     1      96.692  65.784  20.464  1.00  0.00     0.004 C 
HETATM   16  C17 UNL     1      95.822  65.190  19.465  1.00  0.00     0.040 C 
ENDBRANCH   2   5
BRANCH   3  17
HETATM   17  S1  UNL     1      96.126  68.372  15.842  1.00  0.00     0.369 S 
HETATM   18  O2  UNL     1      96.839  69.392  16.682  1.00  0.00    -0.175 OA
HETATM   19  O3  UNL     1      97.068  67.981  14.741  1.00  0.00    -0.175 OA
BRANCH  17  20
HETATM   20  O4  UNL     1      94.759  69.136  15.194  1.00  0.00    -0.216 OA
BRANCH  20  21
HETATM   21  C2  UNL     1      93.658  68.352  14.723  1.00  0.00     0.098 A 
HETATM   22  C3  UNL     1      92.588  68.036  15.462  1.00  0.00     0.046 A 
HETATM   23  C4  UNL     1      91.614  67.278  14.876  1.00  0.00     0.052 A 
HETATM   24  S2  UNL     1      92.220  67.026  13.304  1.00  0.00    -0.111 SA
HETATM   25  C5  UNL     1      93.687  67.886  13.432  1.00  0.00     0.087 A 
ENDBRANCH  20  21
ENDBRANCH  17  20
ENDBRANCH   3  17
TORSDOF 4
ENDMDL
MODEL 4
REMARK VINA RESULT: -8.760294463      1.822      2.219
REMARK  4 active torsions:
REMARK  status: ('A' for Active; 'I' for Inactive)
REMARK       I    between atoms: C1_2  and  N1_3 
REMARK    1  A    between atoms: C1_2  and  C6_14 
REMARK    2  A    between atoms: N1_3  and  S1_5 
REMARK    3  A    between atoms: S1_5  and  O4_8 
REMARK    4  A    between atoms: O4_8  and  C2_9 
ROOT
HETATM    1  O1  UNL     1      96.703  65.384  17.131  1.00  0.00    -0.267 OA
HETATM    2  C1  UNL     1      96.519  66.312  17.942  1.00  0.00     0.258 C 
HETATM    3  N1  UNL     1      96.131  67.570  17.410  1.00  0.00    -0.227 N 
ATOM      4  H1  UNL     1      95.975  68.348  18.052  1.00  0.00     0.184 HD
ENDROOT
BRANCH   2   5
HETATM    5  C6  UNL     1      96.716  66.029  19.379  1.00  0.00    -0.011 C 
HETATM    6  C7  UNL     1      97.248  64.649  19.646  1.00  0.00     0.040 C 
HETATM    7  C8  UNL     1      96.400  63.783  20.502  1.00  0.00     0.004 C 
HETATM    8  C9  UNL     1      96.316  64.119  21.937  1.00  0.00     0.000 C 
HETATM    9  C10 UNL     1      97.587  63.976  22.716  1.00  0.00     0.000 C 
HETATM   10  C11 UNL     1      97.646  65.092  23.733  1.00  0.00     0.000 C 
HETATM   11  C12 UNL     1      99.009  65.499  24.141  1.00  0.00     0.000 C 
HETATM   12  C13 UNL     1      99.930  65.930  23.054  1.00  0.00     0.000 C 
HETATM   13  C14 UNL     1      99.473  67.210  22.357  1.00  0.00     0.000 C 
HETATM   14  C15 UNL     1      99.757  67.058  20.911  1.00  0.00     0.000 C 
HETATM   15  C16 UNL     1      98.711  67.523  19.952  1.00  0.00     0.004 C 
HETATM   16  C17 UNL     1      97.329  67.135  20.172  1.00  0.00     0.040 C 
ENDBRANCH   2   5
BRANCH   3  17
HETATM   17  S1  UNL     1      95.916  67.831  15.732  1.00  0.00     0.369 S 
HETATM   18  O2  UNL     1      95.490  69.248  15.481  1.00  0.00    -0.175 OA
HETATM   19  O3  UNL     1      97.197  67.622  14.979  1.00  0.00    -0.175 OA
BRANCH  17  20
HETATM   20  O4  UNL     1      94.700  66.832  15.101  1.00  0.00    -0.216 OA
BRANCH  20  21
HETATM   21  C2  UNL     1      93.446  66.719  15.779  1.00  0.00     0.098 A 
HETATM   22  C3  UNL     1      93.108  65.695  16.572  1.00  0.00     0.046 A 
HETATM   23  C4  UNL     1      91.872  65.724  17.153  1.00  0.00     0.052 A 
HETATM   24  S2  UNL     1      91.212  67.184  16.576  1.00  0.00    -0.111 SA
HETATM   25  C5  UNL     1      92.517  67.717  15.616  1.00  0.00     0.087 A 
ENDBRANCH  20  21
ENDBRANCH  17  20
ENDBRANCH   3  17
TORSDOF 4
ENDMDL
MODEL 5
REMARK VINA RESULT: -8.668665875      1.001      1.204
REMARK  4 active torsions:
REMARK  status: ('A' for Active; 'I' for Inactive)
REMARK       I    between atoms: C1_2  and  N1_3 
REMARK    1  A    between atoms: C1_2  and  C6_14 
REMARK    2  A    between atoms: N1_3  and  S1_5 
REMARK    3  A    between atoms: S1_5  and  O4_8 
REMARK    4  A    between atoms: O4_8  and  C2_9 
ROOT
HETATM    1  O1  UNL     1      96.604  67.656  16.132  1.00  0.00    -0.267 OA
HETATM    2  C1  UNL     1      95.561  67.178  16.618  1.00  0.00     0.258 C 
HETATM    3  N1  UNL     1      94.343  67.463  15.946  1.00  0.00    -0.227 N 
ATOM      4  H1  UNL     1      93.474  67.085  16.322  1.00  0.00     0.184 HD
ENDROOT
BRANCH   2   5
HETATM    5  C6  UNL     1      95.677  66.359  17.842  1.00  0.00    -0.011 C 
HETATM    6  C7  UNL     1      96.652  65.224  17.709  1.00  0.00     0.040 C 
HETATM    7  C8  UNL     1      96.097  63.865  17.920  1.00  0.00     0.004 C 
HETATM    8  C9  UNL     1      95.722  63.490  19.298  1.00  0.00     0.000 C 
HETATM    9  C10 UNL     1      96.850  63.393  20.278  1.00  0.00     0.000 C 
HETATM   10  C11 UNL     1      96.362  63.906  21.613  1.00  0.00     0.000 C 
HETATM   11  C12 UNL     1      97.412  64.466  22.492  1.00  0.00     0.000 C 
HETATM   12  C13 UNL     1      98.226  65.580  21.933  1.00  0.00     0.000 C 
HETATM   13  C14 UNL     1      97.407  66.842  21.667  1.00  0.00     0.000 C 
HETATM   14  C15 UNL     1      97.899  67.436  20.402  1.00  0.00     0.000 C 
HETATM   15  C16 UNL     1      96.878  67.952  19.443  1.00  0.00     0.004 C 
HETATM   16  C17 UNL     1      95.728  67.124  19.123  1.00  0.00     0.040 C 
ENDBRANCH   2   5
BRANCH   3  17
HETATM   17  S1  UNL     1      94.279  68.419  14.527  1.00  0.00     0.369 S 
HETATM   18  O2  UNL     1      94.036  69.856  14.884  1.00  0.00    -0.175 OA
HETATM   19  O3  UNL     1      95.578  68.371  13.778  1.00  0.00    -0.175 OA
BRANCH  17  20
HETATM   20  O4  UNL     1      93.006  67.940  13.515  1.00  0.00    -0.216 OA
BRANCH  20  21
HETATM   21  C2  UNL     1      92.888  66.572  13.114  1.00  0.00     0.098 A 
HETATM   22  C3  UNL     1      93.823  65.904  12.428  1.00  0.00     0.046 A 
HETATM   23  C4  UNL     1      93.569  64.599  12.115  1.00  0.00     0.052 A 
HETATM   24  S2  UNL     1      92.027  64.337  12.789  1.00  0.00    -0.111 SA
HETATM   25  C5  UNL     1      91.746  65.885  13.447  1.00  0.00     0.087 A 
ENDBRANCH  20  21
ENDBRANCH  17  20
ENDBRANCH   3  17
TORSDOF 4
ENDMDL
