MODEL 1
REMARK VINA RESULT: -8.305478008      0.000      0.000
REMARK  6 active torsions:
REMARK  status: ('A' for Active; 'I' for Inactive)
REMARK    1  A    between atoms: C2_2  and  N1_4 
REMARK       I    between atoms: N1_4  and  C4_6 
REMARK    2  A    between atoms: C4_6  and  C5_8 
REMARK    3  A    between atoms: C12_15  and  O2_16 
REMARK    4  A    between atoms: N2_18  and  C13_19 
REMARK    5  A    between atoms: C17_23  and  O3_24 
REMARK    6  A    between atoms: C19_27  and  O4_28 
ROOT
HETATM    1  C5  UNL     1      12.621  17.987  15.561  1.00  0.00     0.095 C 
HETATM    2  C6  UNL     1      14.100  17.829  15.277  1.00  0.00     0.037 C 
HETATM    3  C7  UNL     1      14.110  16.591  14.409  1.00  0.00     0.011 C 
HETATM    4  C8  UNL     1      12.931  15.781  14.911  1.00  0.00     0.011 C 
HETATM    5  C9  UNL     1      12.434  16.551  16.077  1.00  0.00     0.037 C 
HETATM    6  C10 UNL     1      13.520  16.564  17.123  1.00  0.00     0.009 A 
HETATM    7  C11 UNL     1      14.541  17.359  16.624  1.00  0.00     0.009 A 
HETATM    8  C12 UNL     1      15.522  17.372  17.576  1.00  0.00     0.152 A 
HETATM    9  N2  UNL     1      15.148  16.620  18.636  1.00  0.00    -0.303 N 
HETATM   10  C19 UNL     1      13.931  16.127  18.365  1.00  0.00     0.152 A 
ENDROOT
BRANCH   9  11
HETATM   11  C13 UNL     1      15.965  16.437  19.798  1.00  0.00     0.096 C 
HETATM   12  C14 UNL     1      15.329  17.009  21.051  1.00  0.00     0.026 C 
HETATM   13  C15 UNL     1      16.076  16.381  22.228  1.00  0.00     0.004 C 
HETATM   14  C16 UNL     1      17.521  16.779  22.166  1.00  0.00     0.032 C 
HETATM   15  C17 UNL     1      18.169  16.494  20.841  1.00  0.00     0.120 C 
HETATM   16  C18 UNL     1      17.338  17.011  19.671  1.00  0.00     0.057 C 
BRANCH  15  17
HETATM   17  O3  UNL     1      19.426  17.102  20.855  1.00  0.00    -0.396 OA
ATOM     18  H3  UNL     1      20.009  16.533  21.343  1.00  0.00     0.210 HD
ENDBRANCH  15  17
ENDBRANCH   9  11
BRANCH   8  19
HETATM   19  O2  UNL     1      16.746  18.068  17.468  1.00  0.00    -0.345 OA
ATOM     20  H2  UNL     1      17.401  17.916  16.797  1.00  0.00     0.219 HD
ENDBRANCH   8  19
BRANCH  10  21
HETATM   21  O4  UNL     1      13.209  15.309  19.206  1.00  0.00    -0.345 OA
ATOM     22  H4  UNL     1      13.577  14.725  19.860  1.00  0.00     0.219 HD
ENDBRANCH  10  21
BRANCH   1  23
HETATM   23  C4  UNL     1      11.799  18.324  14.416  1.00  0.00     0.223 C 
HETATM   24  N1  UNL     1      10.392  18.129  14.377  1.00  0.00    -0.357 N 
ATOM     25  H1  UNL     1       9.939  17.729  15.199  1.00  0.00     0.162 HD
HETATM   26  O1  UNL     1      12.320  18.817  13.389  1.00  0.00    -0.273 OA
BRANCH  24  27
HETATM   27  C2  UNL     1       9.571  18.464  13.245  1.00  0.00     0.076 C 
HETATM   28  C1  UNL     1       8.545  17.353  13.045  1.00  0.00     0.032 C 
HETATM   29  C3  UNL     1       8.803  19.746  13.427  1.00  0.00     0.032 C 
ENDBRANCH  24  27
ENDBRANCH   1  23
TORSDOF 6
ENDMDL
MODEL 2
REMARK VINA RESULT: -8.052566776      1.926      8.636
REMARK  6 active torsions:
REMARK  status: ('A' for Active; 'I' for Inactive)
REMARK    1  A    between atoms: C2_2  and  N1_4 
REMARK       I    between atoms: N1_4  and  C4_6 
REMARK    2  A    between atoms: C4_6  and  C5_8 
REMARK    3  A    between atoms: C12_15  and  O2_16 
REMARK    4  A    between atoms: N2_18  and  C13_19 
REMARK    5  A    between atoms: C17_23  and  O3_24 
REMARK    6  A    between atoms: C19_27  and  O4_28 
ROOT
HETATM    1  C5  UNL     1      12.994  16.806  16.921  1.00  0.00     0.095 C 
HETATM    2  C6  UNL     1      12.091  15.747  16.323  1.00  0.00     0.037 C 
HETATM    3  C7  UNL     1      13.028  15.067  15.351  1.00  0.00     0.011 C 
HETATM    4  C8  UNL     1      13.970  16.171  14.914  1.00  0.00     0.011 C 
HETATM    5  C9  UNL     1      13.427  17.388  15.565  1.00  0.00     0.037 C 
HETATM    6  C10 UNL     1      12.052  17.643  15.001  1.00  0.00     0.009 A 
HETATM    7  C11 UNL     1      11.233  16.630  15.478  1.00  0.00     0.009 A 
HETATM    8  C12 UNL     1       9.987  16.867  14.969  1.00  0.00     0.152 A 
HETATM    9  N2  UNL     1      10.006  17.979  14.200  1.00  0.00    -0.303 N 
HETATM   10  C19 UNL     1      11.259  18.455  14.217  1.00  0.00     0.152 A 
ENDROOT
BRANCH   9  11
HETATM   11  C13 UNL     1       8.849  18.488  13.525  1.00  0.00     0.096 C 
HETATM   12  C14 UNL     1       8.837  18.136  12.049  1.00  0.00     0.026 C 
HETATM   13  C15 UNL     1       7.399  18.356  11.576  1.00  0.00     0.004 C 
HETATM   14  C16 UNL     1       7.036  19.800  11.755  1.00  0.00     0.032 C 
HETATM   15  C17 UNL     1       7.280  20.315  13.145  1.00  0.00     0.120 C 
HETATM   16  C18 UNL     1       8.675  19.966  13.651  1.00  0.00     0.057 C 
BRANCH  15  17
HETATM   17  O3  UNL     1       7.104  21.701  13.110  1.00  0.00    -0.396 OA
ATOM     18  H3  UNL     1       6.772  21.921  12.247  1.00  0.00     0.210 HD
ENDBRANCH  15  17
ENDBRANCH   9  11
BRANCH   8  19
HETATM   19  O2  UNL     1       8.849  16.066  15.210  1.00  0.00    -0.345 OA
ATOM     20  H2  UNL     1       8.845  15.265  15.719  1.00  0.00     0.219 HD
ENDBRANCH   8  19
BRANCH  10  21
HETATM   21  O4  UNL     1      11.681  19.584  13.550  1.00  0.00    -0.345 OA
ATOM     22  H4  UNL     1      11.254  20.433  13.573  1.00  0.00     0.219 HD
ENDBRANCH  10  21
BRANCH   1  23
HETATM   23  C4  UNL     1      14.084  16.308  17.736  1.00  0.00     0.223 C 
HETATM   24  N1  UNL     1      15.213  17.093  18.098  1.00  0.00    -0.357 N 
ATOM     25  H1  UNL     1      15.257  18.056  17.764  1.00  0.00     0.162 HD
HETATM   26  O1  UNL     1      14.066  15.131  18.163  1.00  0.00    -0.273 OA
BRANCH  24  27
HETATM   27  C2  UNL     1      16.296  16.606  18.907  1.00  0.00     0.076 C 
HETATM   28  C1  UNL     1      17.570  17.344  18.508  1.00  0.00     0.032 C 
HETATM   29  C3  UNL     1      16.092  16.844  20.380  1.00  0.00     0.032 C 
ENDBRANCH  24  27
ENDBRANCH   1  23
TORSDOF 6
ENDMDL
MODEL 3
REMARK VINA RESULT: -7.995685098      1.611      1.889
REMARK  6 active torsions:
REMARK  status: ('A' for Active; 'I' for Inactive)
REMARK    1  A    between atoms: C2_2  and  N1_4 
REMARK       I    between atoms: N1_4  and  C4_6 
REMARK    2  A    between atoms: C4_6  and  C5_8 
REMARK    3  A    between atoms: C12_15  and  O2_16 
REMARK    4  A    between atoms: N2_18  and  C13_19 
REMARK    5  A    between atoms: C17_23  and  O3_24 
REMARK    6  A    between atoms: C19_27  and  O4_28 
ROOT
HETATM    1  C5  UNL     1      11.100  16.872  15.903  1.00  0.00     0.095 C 
HETATM    2  C6  UNL     1      12.402  17.001  15.141  1.00  0.00     0.037 C 
HETATM    3  C7  UNL     1      12.465  15.670  14.425  1.00  0.00     0.011 C 
HETATM    4  C8  UNL     1      11.760  14.714  15.366  1.00  0.00     0.011 C 
HETATM    5  C9  UNL     1      11.469  15.536  16.566  1.00  0.00     0.037 C 
HETATM    6  C10 UNL     1      12.784  15.960  17.169  1.00  0.00     0.009 A 
HETATM    7  C11 UNL     1      13.350  16.868  16.286  1.00  0.00     0.009 A 
HETATM    8  C12 UNL     1      14.540  17.254  16.838  1.00  0.00     0.152 A 
HETATM    9  N2  UNL     1      14.728  16.623  18.019  1.00  0.00    -0.303 N 
HETATM   10  C19 UNL     1      13.663  15.834  18.225  1.00  0.00     0.152 A 
ENDROOT
BRANCH   9  11
HETATM   11  C13 UNL     1      15.886  16.818  18.839  1.00  0.00     0.096 C 
HETATM   12  C14 UNL     1      15.549  16.864  20.318  1.00  0.00     0.026 C 
HETATM   13  C15 UNL     1      16.869  16.646  21.058  1.00  0.00     0.004 C 
HETATM   14  C16 UNL     1      17.815  17.759  20.720  1.00  0.00     0.032 C 
HETATM   15  C17 UNL     1      17.999  17.966  19.243  1.00  0.00     0.120 C 
HETATM   16  C18 UNL     1      16.668  18.045  18.503  1.00  0.00     0.057 C 
BRANCH  15  17
HETATM   17  O3  UNL     1      18.722  19.150  19.078  1.00  0.00    -0.396 OA
ATOM     18  H3  UNL     1      18.098  19.833  18.860  1.00  0.00     0.210 HD
ENDBRANCH  15  17
ENDBRANCH   9  11
BRANCH   8  19
HETATM   19  O2  UNL     1      15.440  18.176  16.259  1.00  0.00    -0.345 OA
ATOM     20  H2  UNL     1      15.302  18.625  15.433  1.00  0.00     0.219 HD
ENDBRANCH   8  19
BRANCH  10  21
HETATM   21  O4  UNL     1      13.483  15.026  19.326  1.00  0.00    -0.345 OA
ATOM     22  H4  UNL     1      13.943  14.212  19.495  1.00  0.00     0.219 HD
ENDBRANCH  10  21
BRANCH   1  23
HETATM   23  C4  UNL     1       9.902  16.827  15.087  1.00  0.00     0.223 C 
HETATM   24  N1  UNL     1       9.672  17.696  13.986  1.00  0.00    -0.357 N 
ATOM     25  H1  UNL     1      10.387  18.388  13.761  1.00  0.00     0.162 HD
HETATM   26  O1  UNL     1       9.002  15.992  15.333  1.00  0.00    -0.273 OA
BRANCH  24  27
HETATM   27  C2  UNL     1       8.488  17.655  13.172  1.00  0.00     0.076 C 
HETATM   28  C1  UNL     1       7.696  18.938  13.402  1.00  0.00     0.032 C 
HETATM   29  C3  UNL     1       8.784  17.577  11.697  1.00  0.00     0.032 C 
ENDBRANCH  24  27
ENDBRANCH   1  23
TORSDOF 6
ENDMDL
MODEL 4
REMARK VINA RESULT: -7.788426115      2.960      4.497
REMARK  6 active torsions:
REMARK  status: ('A' for Active; 'I' for Inactive)
REMARK    1  A    between atoms: C2_2  and  N1_4 
REMARK       I    between atoms: N1_4  and  C4_6 
REMARK    2  A    between atoms: C4_6  and  C5_8 
REMARK    3  A    between atoms: C12_15  and  O2_16 
REMARK    4  A    between atoms: N2_18  and  C13_19 
REMARK    5  A    between atoms: C17_23  and  O3_24 
REMARK    6  A    between atoms: C19_27  and  O4_28 
ROOT
HETATM    1  C5  UNL     1      16.135  16.986  14.739  1.00  0.00     0.095 C 
HETATM    2  C6  UNL     1      14.834  17.122  15.502  1.00  0.00     0.037 C 
HETATM    3  C7  UNL     1      14.390  18.509  15.095  1.00  0.00     0.011 C 
HETATM    4  C8  UNL     1      15.687  19.259  14.870  1.00  0.00     0.011 C 
HETATM    5  C9  UNL     1      16.738  18.294  15.276  1.00  0.00     0.037 C 
HETATM    6  C10 UNL     1      16.566  18.012  16.747  1.00  0.00     0.009 A 
HETATM    7  C11 UNL     1      15.392  17.284  16.877  1.00  0.00     0.009 A 
HETATM    8  C12 UNL     1      15.242  17.025  18.210  1.00  0.00     0.152 A 
HETATM    9  N2  UNL     1      16.270  17.564  18.904  1.00  0.00    -0.303 N 
HETATM   10  C19 UNL     1      17.078  18.164  18.019  1.00  0.00     0.152 A 
ENDROOT
BRANCH   9  11
HETATM   11  C13 UNL     1      16.397  17.463  20.328  1.00  0.00     0.096 C 
HETATM   12  C14 UNL     1      17.716  16.845  20.751  1.00  0.00     0.026 C 
HETATM   13  C15 UNL     1      17.887  17.189  22.231  1.00  0.00     0.004 C 
HETATM   14  C16 UNL     1      16.765  16.576  23.015  1.00  0.00     0.032 C 
HETATM   15  C17 UNL     1      15.402  16.921  22.487  1.00  0.00     0.120 C 
HETATM   16  C18 UNL     1      15.294  16.698  20.982  1.00  0.00     0.057 C 
BRANCH  15  17
HETATM   17  O3  UNL     1      14.480  16.122  23.168  1.00  0.00    -0.396 OA
ATOM     18  H3  UNL     1      14.469  15.275  22.737  1.00  0.00     0.210 HD
ENDBRANCH  15  17
ENDBRANCH   9  11
BRANCH   8  19
HETATM   19  O2  UNL     1      14.169  16.304  18.779  1.00  0.00    -0.345 OA
ATOM     20  H2  UNL     1      13.896  16.360  19.687  1.00  0.00     0.219 HD
ENDBRANCH   8  19
BRANCH  10  21
HETATM   21  O4  UNL     1      18.241  18.830  18.340  1.00  0.00    -0.345 OA
ATOM     22  H4  UNL     1      18.330  19.771  18.439  1.00  0.00     0.219 HD
ENDBRANCH  10  21
BRANCH   1  23
HETATM   23  C4  UNL     1      16.008  16.933  13.295  1.00  0.00     0.223 C 
HETATM   24  N1  UNL     1      16.815  17.698  12.410  1.00  0.00    -0.357 N 
ATOM     25  H1  UNL     1      17.518  18.318  12.813  1.00  0.00     0.162 HD
HETATM   26  O1  UNL     1      15.157  16.184  12.764  1.00  0.00    -0.273 OA
BRANCH  24  27
HETATM   27  C2  UNL     1      16.696  17.648  10.978  1.00  0.00     0.076 C 
HETATM   28  C1  UNL     1      16.143  18.982  10.490  1.00  0.00     0.032 C 
HETATM   29  C3  UNL     1      18.013  17.434  10.280  1.00  0.00     0.032 C 
ENDBRANCH  24  27
ENDBRANCH   1  23
TORSDOF 6
ENDMDL
MODEL 5
REMARK VINA RESULT: -7.686471325      4.384      6.863
REMARK  6 active torsions:
REMARK  status: ('A' for Active; 'I' for Inactive)
REMARK    1  A    between atoms: C2_2  and  N1_4 
REMARK       I    between atoms: N1_4  and  C4_6 
REMARK    2  A    between atoms: C4_6  and  C5_8 
REMARK    3  A    between atoms: C12_15  and  O2_16 
REMARK    4  A    between atoms: N2_18  and  C13_19 
REMARK    5  A    between atoms: C17_23  and  O3_24 
REMARK    6  A    between atoms: C19_27  and  O4_28 
ROOT
HETATM    1  C5  UNL     1      18.168  18.050  13.459  1.00  0.00     0.095 C 
HETATM    2  C6  UNL     1      16.858  17.782  12.749  1.00  0.00     0.037 C 
HETATM    3  C7  UNL     1      16.360  19.187  12.495  1.00  0.00     0.011 C 
HETATM    4  C8  UNL     1      16.906  19.987  13.661  1.00  0.00     0.011 C 
HETATM    5  C9  UNL     1      17.552  18.969  14.526  1.00  0.00     0.037 C 
HETATM    6  C10 UNL     1      16.481  18.028  15.016  1.00  0.00     0.009 A 
HETATM    7  C11 UNL     1      16.063  17.296  13.914  1.00  0.00     0.009 A 
HETATM    8  C12 UNL     1      15.095  16.441  14.363  1.00  0.00     0.152 A 
HETATM    9  N2  UNL     1      14.901  16.617  15.689  1.00  0.00    -0.303 N 
HETATM   10  C19 UNL     1      15.741  17.581  16.091  1.00  0.00     0.152 A 
ENDROOT
BRANCH   9  11
HETATM   11  C13 UNL     1      13.948  15.866  16.451  1.00  0.00     0.096 C 
HETATM   12  C14 UNL     1      12.591  16.543  16.512  1.00  0.00     0.026 C 
HETATM   13  C15 UNL     1      11.604  15.466  16.965  1.00  0.00     0.004 C 
HETATM   14  C16 UNL     1      11.991  14.984  18.331  1.00  0.00     0.032 C 
HETATM   15  C17 UNL     1      13.424  14.543  18.432  1.00  0.00     0.120 C 
HETATM   16  C18 UNL     1      14.384  15.575  17.849  1.00  0.00     0.057 C 
BRANCH  15  17
HETATM   17  O3  UNL     1      13.697  14.328  19.785  1.00  0.00    -0.396 OA
ATOM     18  H3  UNL     1      14.637  14.405  19.898  1.00  0.00     0.210 HD
ENDBRANCH  15  17
ENDBRANCH   9  11
BRANCH   8  19
HETATM   19  O2  UNL     1      14.400  15.511  13.558  1.00  0.00    -0.345 OA
ATOM     20  H2  UNL     1      13.521  15.194  13.727  1.00  0.00     0.219 HD
ENDBRANCH   8  19
BRANCH  10  21
HETATM   21  O4  UNL     1      15.844  18.047  17.383  1.00  0.00    -0.345 OA
ATOM     22  H4  UNL     1      15.337  18.761  17.756  1.00  0.00     0.219 HD
ENDBRANCH  10  21
BRANCH   1  23
HETATM   23  C4  UNL     1      19.199  18.674  12.652  1.00  0.00     0.223 C 
HETATM   24  N1  UNL     1      20.189  19.545  13.183  1.00  0.00    -0.357 N 
ATOM     25  H1  UNL     1      20.170  19.742  14.185  1.00  0.00     0.162 HD
HETATM   26  O1  UNL     1      19.253  18.458  11.420  1.00  0.00    -0.273 OA
BRANCH  24  27
HETATM   27  C2  UNL     1      21.214  20.165  12.390  1.00  0.00     0.076 C 
HETATM   28  C1  UNL     1      21.006  21.676  12.422  1.00  0.00     0.032 C 
HETATM   29  C3  UNL     1      22.604  19.901  12.903  1.00  0.00     0.032 C 
ENDBRANCH  24  27
ENDBRANCH   1  23
TORSDOF 6
ENDMDL
