MODEL 1
REMARK VINA RESULT: -6.359670258      0.000      0.000
REMARK  4 active torsions:
REMARK  status: ('A' for Active; 'I' for Inactive)
REMARK    1  A    between atoms: C2_2  and  C3_3 
REMARK    2  A    between atoms: C17_17  and  O1_18 
REMARK    3  A    between atoms: C19_21  and  N1_22 
REMARK    4  A    between atoms: N1_22  and  O2_23 
ROOT
HETATM    1  C3  UNL     1      20.553  19.619  11.589  1.00  0.00     0.017 C 
HETATM    2  C4  UNL     1      20.178  19.917  13.025  1.00  0.00     0.010 C 
HETATM    3  C5  UNL     1      19.246  21.083  13.166  1.00  0.00     0.038 C 
HETATM    4  C6  UNL     1      17.914  20.865  13.761  1.00  0.00     0.057 C 
HETATM    5  C7  UNL     1      17.800  21.912  14.909  1.00  0.00     0.046 C 
HETATM    6  C8  UNL     1      16.865  21.345  12.790  1.00  0.00     0.038 C 
HETATM    7  C9  UNL     1      16.794  20.681  11.463  1.00  0.00     0.008 C 
HETATM    8  C10 UNL     1      16.329  19.305  11.371  1.00  0.00    -0.007 C 
HETATM    9  C11 UNL     1      15.175  19.143  12.364  1.00  0.00     0.016 C 
HETATM   10  C12 UNL     1      15.638  18.440  13.629  1.00  0.00    -0.022 C 
HETATM   11  C13 UNL     1      14.289  18.211  14.374  1.00  0.00     0.017 C 
HETATM   12  C14 UNL     1      16.050  17.083  13.224  1.00  0.00     0.012 C 
HETATM   13  C15 UNL     1      16.328  16.951  11.702  1.00  0.00     0.008 C 
HETATM   14  C16 UNL     1      17.248  18.158  11.420  1.00  0.00     0.019 C 
HETATM   15  C17 UNL     1      18.176  18.016  10.262  1.00  0.00     0.132 C 
HETATM   16  C18 UNL     1      19.535  17.493  10.521  1.00  0.00     0.094 A 
HETATM   17  C19 UNL     1      19.754  16.482  11.602  1.00  0.00     0.313 A 
HETATM   18  N2  UNL     1      20.861  17.203  12.156  1.00  0.00    -0.049 N 
ATOM     19  H21 UNL     1      21.780  16.771  12.251  1.00  0.00     0.279 HD
ATOM     20  H22 UNL     1      20.897  17.437  13.148  1.00  0.00     0.279 HD
HETATM   21  C20 UNL     1      20.602  18.237  11.133  1.00  0.00     0.202 A 
HETATM   22  C21 UNL     1      16.422  19.237  14.561  1.00  0.00     0.177 C 
HETATM   23  O3  UNL     1      17.643  19.701  14.381  1.00  0.00    -0.380 OA
ENDROOT
BRANCH  17  24
HETATM   24  N1  UNL     1      20.243  15.163  11.157  1.00  0.00    -0.070 NA
BRANCH  24  25
HETATM   25  O2  UNL     1      21.441  14.928  11.740  1.00  0.00    -0.294 OA
ATOM     26  H2  UNL     1      21.491  14.008  11.971  1.00  0.00     0.238 HD
ENDBRANCH  24  25
ENDBRANCH  17  24
BRANCH  15  27
HETATM   27  O1  UNL     1      17.501  17.281   9.287  1.00  0.00    -0.395 OA
ATOM     28  H1  UNL     1      17.345  17.868   8.557  1.00  0.00     0.210 HD
ENDBRANCH  15  27
BRANCH   1  29
HETATM   29  C2  UNL     1      21.916  20.332  11.428  1.00  0.00     0.002 C 
HETATM   30  C1  UNL     1      22.812  20.079  12.591  1.00  0.00     0.005 C 
ENDBRANCH   1  29
TORSDOF 4
ENDMDL
MODEL 2
REMARK VINA RESULT: -6.351480199      4.567      6.721
REMARK  4 active torsions:
REMARK  status: ('A' for Active; 'I' for Inactive)
REMARK    1  A    between atoms: C2_2  and  C3_3 
REMARK    2  A    between atoms: C17_17  and  O1_18 
REMARK    3  A    between atoms: C19_21  and  N1_22 
REMARK    4  A    between atoms: N1_22  and  O2_23 
ROOT
HETATM    1  C3  UNL     1      15.876  16.637  17.792  1.00  0.00     0.017 C 
HETATM    2  C4  UNL     1      16.047  18.132  17.619  1.00  0.00     0.010 C 
HETATM    3  C5  UNL     1      17.124  18.497  16.642  1.00  0.00     0.038 C 
HETATM    4  C6  UNL     1      16.761  19.262  15.433  1.00  0.00     0.057 C 
HETATM    5  C7  UNL     1      17.717  20.492  15.423  1.00  0.00     0.046 C 
HETATM    6  C8  UNL     1      17.219  18.495  14.218  1.00  0.00     0.038 C 
HETATM    7  C9  UNL     1      16.641  17.145  13.993  1.00  0.00     0.008 C 
HETATM    8  C10 UNL     1      15.241  17.016  13.615  1.00  0.00    -0.007 C 
HETATM    9  C11 UNL     1      14.922  18.152  12.639  1.00  0.00     0.016 C 
HETATM   10  C12 UNL     1      14.176  19.277  13.336  1.00  0.00    -0.022 C 
HETATM   11  C13 UNL     1      13.791  20.191  12.135  1.00  0.00     0.017 C 
HETATM   12  C14 UNL     1      12.886  18.713  13.774  1.00  0.00     0.012 C 
HETATM   13  C15 UNL     1      12.878  17.161  13.827  1.00  0.00     0.008 C 
HETATM   14  C16 UNL     1      14.171  16.841  14.608  1.00  0.00     0.019 C 
HETATM   15  C17 UNL     1      14.180  15.552  15.357  1.00  0.00     0.132 C 
HETATM   16  C18 UNL     1      13.751  15.569  16.772  1.00  0.00     0.094 A 
HETATM   17  C19 UNL     1      12.691  16.524  17.222  1.00  0.00     0.313 A 
HETATM   18  N2  UNL     1      13.460  16.964  18.348  1.00  0.00    -0.049 N 
ATOM     19  H21 UNL     1      13.098  16.890  19.298  1.00  0.00     0.279 HD
ATOM     20  H22 UNL     1      13.630  17.955  18.518  1.00  0.00     0.279 HD
HETATM   21  C20 UNL     1      14.536  16.074  17.866  1.00  0.00     0.202 A 
HETATM   22  C21 UNL     1      14.970  20.143  14.196  1.00  0.00     0.177 C 
HETATM   23  O3  UNL     1      15.541  19.823  15.340  1.00  0.00    -0.380 OA
ENDROOT
BRANCH  17  24
HETATM   24  N1  UNL     1      11.448  15.912  17.728  1.00  0.00    -0.070 NA
BRANCH  24  25
HETATM   25  O2  UNL     1      11.513  15.856  19.078  1.00  0.00    -0.294 OA
ATOM     26  H2  UNL     1      10.646  15.660  19.415  1.00  0.00     0.238 HD
ENDBRANCH  24  25
ENDBRANCH  17  24
BRANCH  15  27
HETATM   27  O1  UNL     1      13.460  14.633  14.595  1.00  0.00    -0.395 OA
ATOM     28  H1  UNL     1      14.007  14.400  13.853  1.00  0.00     0.210 HD
ENDBRANCH  15  27
BRANCH   1  29
HETATM   29  C2  UNL     1      16.705  16.334  19.062  1.00  0.00     0.002 C 
HETATM   30  C1  UNL     1      16.425  17.313  20.149  1.00  0.00     0.005 C 
ENDBRANCH   1  29
TORSDOF 4
ENDMDL
MODEL 3
REMARK VINA RESULT: -6.200559115      4.750      7.619
REMARK  4 active torsions:
REMARK  status: ('A' for Active; 'I' for Inactive)
REMARK    1  A    between atoms: C2_2  and  C3_3 
REMARK    2  A    between atoms: C17_17  and  O1_18 
REMARK    3  A    between atoms: C19_21  and  N1_22 
REMARK    4  A    between atoms: N1_22  and  O2_23 
ROOT
HETATM    1  C3  UNL     1      11.421  18.849  13.768  1.00  0.00     0.017 C 
HETATM    2  C4  UNL     1      11.541  18.298  15.173  1.00  0.00     0.010 C 
HETATM    3  C5  UNL     1      11.944  16.854  15.212  1.00  0.00     0.038 C 
HETATM    4  C6  UNL     1      13.208  16.483  15.877  1.00  0.00     0.057 C 
HETATM    5  C7  UNL     1      12.824  15.373  16.900  1.00  0.00     0.046 C 
HETATM    6  C8  UNL     1      14.068  15.727  14.897  1.00  0.00     0.038 C 
HETATM    7  C9  UNL     1      14.489  16.431  13.658  1.00  0.00     0.008 C 
HETATM    8  C10 UNL     1      15.450  17.522  13.743  1.00  0.00    -0.007 C 
HETATM    9  C11 UNL     1      16.497  17.132  14.790  1.00  0.00     0.016 C 
HETATM   10  C12 UNL     1      16.238  17.840  16.109  1.00  0.00    -0.022 C 
HETATM   11  C13 UNL     1      17.510  17.459  16.925  1.00  0.00     0.017 C 
HETATM   12  C14 UNL     1      16.408  19.281  15.849  1.00  0.00     0.012 C 
HETATM   13  C15 UNL     1      16.321  19.651  14.344  1.00  0.00     0.008 C 
HETATM   14  C16 UNL     1      15.036  18.925  13.890  1.00  0.00     0.019 C 
HETATM   15  C17 UNL     1      14.326  19.522  12.723  1.00  0.00     0.132 C 
HETATM   16  C18 UNL     1      13.253  20.504  12.990  1.00  0.00     0.094 A 
HETATM   17  C19 UNL     1      13.351  21.416  14.172  1.00  0.00     0.313 A 
HETATM   18  N2  UNL     1      12.013  21.132  14.598  1.00  0.00    -0.049 N 
ATOM     19  H21 UNL     1      11.324  21.875  14.708  1.00  0.00     0.279 HD
ATOM     20  H22 UNL     1      11.813  20.840  15.554  1.00  0.00     0.279 HD
HETATM   21  C20 UNL     1      11.938  20.178  13.473  1.00  0.00     0.202 A 
HETATM   22  C21 UNL     1      15.140  17.326  16.914  1.00  0.00     0.177 C 
HETATM   23  O3  UNL     1      13.852  17.389  16.636  1.00  0.00    -0.380 OA
ENDROOT
BRANCH  17  24
HETATM   24  N1  UNL     1      13.438  22.857  13.864  1.00  0.00    -0.070 NA
BRANCH  24  25
HETATM   25  O2  UNL     1      13.668  23.530  15.015  1.00  0.00    -0.294 OA
ATOM     26  H2  UNL     1      14.041  24.377  14.801  1.00  0.00     0.238 HD
ENDBRANCH  24  25
ENDBRANCH  17  24
BRANCH  15  27
HETATM   27  O1  UNL     1      15.304  20.024  11.865  1.00  0.00    -0.395 OA
ATOM     28  H1  UNL     1      15.889  19.305  11.661  1.00  0.00     0.210 HD
ENDBRANCH  15  27
BRANCH   1  29
HETATM   29  C2  UNL     1       9.907  18.737  13.475  1.00  0.00     0.002 C 
HETATM   30  C1  UNL     1       9.087  19.183  14.636  1.00  0.00     0.005 C 
ENDBRANCH   1  29
TORSDOF 4
ENDMDL
MODEL 4
REMARK VINA RESULT: -6.036011913      3.901      6.713
REMARK  4 active torsions:
REMARK  status: ('A' for Active; 'I' for Inactive)
REMARK    1  A    between atoms: C2_2  and  C3_3 
REMARK    2  A    between atoms: C17_17  and  O1_18 
REMARK    3  A    between atoms: C19_21  and  N1_22 
REMARK    4  A    between atoms: N1_22  and  O2_23 
ROOT
HETATM    1  C3  UNL     1      12.730  20.691  14.562  1.00  0.00     0.017 C 
HETATM    2  C4  UNL     1      12.985  20.845  13.077  1.00  0.00     0.010 C 
HETATM    3  C5  UNL     1      14.208  21.654  12.765  1.00  0.00     0.038 C 
HETATM    4  C6  UNL     1      15.313  21.021  12.021  1.00  0.00     0.057 C 
HETATM    5  C7  UNL     1      15.595  21.970  10.817  1.00  0.00     0.046 C 
HETATM    6  C8  UNL     1      16.579  21.150  12.829  1.00  0.00     0.038 C 
HETATM    7  C9  UNL     1      16.614  20.507  14.168  1.00  0.00     0.008 C 
HETATM    8  C10 UNL     1      16.633  19.054  14.268  1.00  0.00    -0.007 C 
HETATM    9  C11 UNL     1      17.535  18.528  13.148  1.00  0.00     0.016 C 
HETATM   10  C12 UNL     1      16.710  18.000  11.987  1.00  0.00    -0.022 C 
HETATM   11  C13 UNL     1      17.807  17.349  11.092  1.00  0.00     0.017 C 
HETATM   12  C14 UNL     1      15.952  16.846  12.505  1.00  0.00     0.012 C 
HETATM   13  C15 UNL     1      15.851  16.820  14.054  1.00  0.00     0.008 C 
HETATM   14  C16 UNL     1      15.403  18.258  14.389  1.00  0.00     0.019 C 
HETATM   15  C17 UNL     1      14.640  18.425  15.660  1.00  0.00     0.132 C 
HETATM   16  C18 UNL     1      13.164  18.359  15.597  1.00  0.00     0.094 A 
HETATM   17  C19 UNL     1      12.497  17.462  14.603  1.00  0.00     0.313 A 
HETATM   18  N2  UNL     1      11.608  18.494  14.156  1.00  0.00    -0.049 N 
ATOM     19  H21 UNL     1      10.597  18.375  14.197  1.00  0.00     0.279 HD
ATOM     20  H22 UNL     1      11.515  18.720  13.166  1.00  0.00     0.279 HD
HETATM   21  C20 UNL     1      12.313  19.399  15.087  1.00  0.00     0.202 A 
HETATM   22  C21 UNL     1      16.098  18.998  11.122  1.00  0.00     0.177 C 
HETATM   23  O3  UNL     1      15.120  19.827  11.429  1.00  0.00    -0.380 OA
ENDROOT
BRANCH  17  24
HETATM   24  N1  UNL     1      11.683  16.370  15.169  1.00  0.00    -0.070 NA
BRANCH  24  25
HETATM   25  O2  UNL     1      11.750  16.436  16.518  1.00  0.00    -0.294 OA
ATOM     26  H2  UNL     1      12.613  16.148  16.793  1.00  0.00     0.238 HD
ENDBRANCH  24  25
ENDBRANCH  17  24
BRANCH  15  27
HETATM   27  O1  UNL     1      15.174  17.522  16.577  1.00  0.00    -0.395 OA
ATOM     28  H1  UNL     1      15.127  17.934  17.432  1.00  0.00     0.210 HD
ENDBRANCH  15  27
BRANCH   1  29
HETATM   29  C2  UNL     1      11.694  21.800  14.856  1.00  0.00     0.002 C 
HETATM   30  C1  UNL     1      10.718  21.381  15.900  1.00  0.00     0.005 C 
ENDBRANCH   1  29
TORSDOF 4
ENDMDL
MODEL 5
REMARK VINA RESULT: -5.834832710      4.816      6.800
REMARK  4 active torsions:
REMARK  status: ('A' for Active; 'I' for Inactive)
REMARK    1  A    between atoms: C2_2  and  C3_3 
REMARK    2  A    between atoms: C17_17  and  O1_18 
REMARK    3  A    between atoms: C19_21  and  N1_22 
REMARK    4  A    between atoms: N1_22  and  O2_23 
ROOT
HETATM    1  C3  UNL     1      14.854  19.016  13.565  1.00  0.00     0.017 C 
HETATM    2  C4  UNL     1      15.298  20.255  14.313  1.00  0.00     0.010 C 
HETATM    3  C5  UNL     1      15.354  21.481  13.451  1.00  0.00     0.038 C 
HETATM    4  C6  UNL     1      14.490  22.629  13.786  1.00  0.00     0.057 C 
HETATM    5  C7  UNL     1      15.448  23.856  13.865  1.00  0.00     0.046 C 
HETATM    6  C8  UNL     1      13.644  22.966  12.585  1.00  0.00     0.038 C 
HETATM    7  C9  UNL     1      12.707  21.927  12.085  1.00  0.00     0.008 C 
HETATM    8  C10 UNL     1      11.538  21.571  12.877  1.00  0.00    -0.007 C 
HETATM    9  C11 UNL     1      10.986  22.862  13.488  1.00  0.00     0.016 C 
HETATM   10  C12 UNL     1      11.392  22.993  14.946  1.00  0.00    -0.022 C 
HETATM   11  C13 UNL     1      10.566  24.237  15.392  1.00  0.00     0.017 C 
HETATM   12  C14 UNL     1      10.750  21.873  15.659  1.00  0.00     0.012 C 
HETATM   13  C15 UNL     1      10.299  20.721  14.720  1.00  0.00     0.008 C 
HETATM   14  C16 UNL     1      11.556  20.475  13.858  1.00  0.00     0.019 C 
HETATM   15  C17 UNL     1      11.706  19.101  13.298  1.00  0.00     0.132 C 
HETATM   16  C18 UNL     1      12.483  18.115  14.079  1.00  0.00     0.094 A 
HETATM   17  C19 UNL     1      12.464  18.162  15.574  1.00  0.00     0.313 A 
HETATM   18  N2  UNL     1      13.891  18.073  15.670  1.00  0.00    -0.049 N 
ATOM     19  H21 UNL     1      14.341  17.323  16.195  1.00  0.00     0.279 HD
ATOM     20  H22 UNL     1      14.428  18.743  16.220  1.00  0.00     0.279 HD
HETATM   21  C20 UNL     1      13.916  18.097  14.194  1.00  0.00     0.202 A 
HETATM   22  C21 UNL     1      12.772  23.378  15.201  1.00  0.00     0.177 C 
HETATM   23  O3  UNL     1      13.854  22.662  14.972  1.00  0.00    -0.380 OA
ENDROOT
BRANCH  17  24
HETATM   24  N1  UNL     1      11.885  16.983  16.246  1.00  0.00    -0.070 NA
BRANCH  24  25
HETATM   25  O2  UNL     1      10.692  16.702  15.674  1.00  0.00    -0.294 OA
ATOM     26  H2  UNL     1      10.005  16.866  16.309  1.00  0.00     0.238 HD
ENDBRANCH  24  25
ENDBRANCH  17  24
BRANCH  15  27
HETATM   27  O1  UNL     1      10.426  18.645  12.990  1.00  0.00    -0.395 OA
ATOM     28  H1  UNL     1      10.117  19.163  12.256  1.00  0.00     0.210 HD
ENDBRANCH  15  27
BRANCH   1  29
HETATM   29  C2  UNL     1      16.190  18.326  13.205  1.00  0.00     0.002 C 
HETATM   30  C1  UNL     1      16.003  16.876  12.920  1.00  0.00     0.005 C 
ENDBRANCH   1  29
TORSDOF 4
ENDMDL
