MODEL 1
REMARK VINA RESULT: -7.136035459      0.000      0.000
REMARK  6 active torsions:
REMARK  status: ('A' for Active; 'I' for Inactive)
REMARK    1  A    between atoms: C2_2  and  C3_3 
REMARK    2  A    between atoms: C3_3  and  C4_5 
REMARK    3  A    between atoms: C4_5  and  O2_6 
REMARK    4  A    between atoms: C4_5  and  C5_8 
REMARK    5  A    between atoms: C14_17  and  O3_18 
REMARK    6  A    between atoms: C17_22  and  O4_24 
ROOT
HETATM    1  C5  UNL     1      11.588  18.224  14.634  1.00  0.00    -0.007 C 
HETATM    2  C6  UNL     1      11.564  19.324  15.675  1.00  0.00     0.018 C 
HETATM    3  C7  UNL     1      10.750  17.107  15.321  1.00  0.00     0.012 C 
HETATM    4  C8  UNL     1      11.464  15.774  15.256  1.00  0.00     0.002 C 
HETATM    5  C9  UNL     1      12.667  16.072  16.172  1.00  0.00     0.010 C 
HETATM    6  C10 UNL     1      13.620  16.803  15.230  1.00  0.00    -0.035 C 
HETATM    7  C11 UNL     1      14.291  15.661  14.476  1.00  0.00     0.016 C 
HETATM    8  C12 UNL     1      14.548  17.524  16.155  1.00  0.00     0.003 C 
HETATM    9  C13 UNL     1      14.712  16.867  17.510  1.00  0.00     0.037 C 
HETATM   10  C14 UNL     1      15.987  17.525  18.057  1.00  0.00     0.119 C 
HETATM   11  C15 UNL     1      16.524  18.408  16.946  1.00  0.00     0.039 C 
HETATM   12  C16 UNL     1      15.949  17.663  15.721  1.00  0.00     0.027 C 
HETATM   13  C17 UNL     1      16.219  18.467  14.528  1.00  0.00     0.058 C 
HETATM   14  C18 UNL     1      17.621  18.177  14.012  1.00  0.00     0.046 C 
HETATM   15  C19 UNL     1      15.225  18.387  13.401  1.00  0.00     0.038 C 
HETATM   16  C20 UNL     1      13.868  18.844  13.880  1.00  0.00     0.009 C 
HETATM   17  C21 UNL     1      12.933  17.729  14.260  1.00  0.00     0.005 C 
ENDROOT
BRANCH   1  18
HETATM   18  C4  UNL     1      10.697  18.564  13.463  1.00  0.00     0.196 C 
BRANCH  18  19
HETATM   19  C3  UNL     1       9.279  18.464  13.543  1.00  0.00     0.155 C 
HETATM   20  O1  UNL     1       8.510  19.092  14.267  1.00  0.00    -0.295 OA
BRANCH  19  21
HETATM   21  C2  UNL     1       8.554  17.482  12.665  1.00  0.00     0.076 C 
HETATM   22  C1  UNL     1       7.889  18.343  11.578  1.00  0.00     0.013 C 
ENDBRANCH  19  21
ENDBRANCH  18  19
BRANCH  18  23
HETATM   23  O2  UNL     1      11.029  19.862  12.975  1.00  0.00    -0.387 OA
ATOM     24  H2  UNL     1      11.388  20.369  13.692  1.00  0.00     0.210 HD
ENDBRANCH  18  23
ENDBRANCH   1  18
BRANCH  13  25
HETATM   25  O4  UNL     1      16.242  19.834  14.906  1.00  0.00    -0.390 OA
ATOM     26  H4  UNL     1      15.869  20.347  14.199  1.00  0.00     0.210 HD
ENDBRANCH  13  25
BRANCH  10  27
HETATM   27  O3  UNL     1      16.943  16.566  18.351  1.00  0.00    -0.396 OA
ATOM     28  H3  UNL     1      16.603  15.934  18.974  1.00  0.00     0.210 HD
ENDBRANCH  10  27
TORSDOF 6
ENDMDL
MODEL 2
REMARK VINA RESULT: -6.773063100      0.887      1.040
REMARK  6 active torsions:
REMARK  status: ('A' for Active; 'I' for Inactive)
REMARK    1  A    between atoms: C2_2  and  C3_3 
REMARK    2  A    between atoms: C3_3  and  C4_5 
REMARK    3  A    between atoms: C4_5  and  O2_6 
REMARK    4  A    between atoms: C4_5  and  C5_8 
REMARK    5  A    between atoms: C14_17  and  O3_18 
REMARK    6  A    between atoms: C17_22  and  O4_24 
ROOT
HETATM    1  C5  UNL     1      11.931  18.386  14.758  1.00  0.00    -0.007 C 
HETATM    2  C6  UNL     1      11.917  19.479  15.804  1.00  0.00     0.018 C 
HETATM    3  C7  UNL     1      11.089  17.269  15.441  1.00  0.00     0.012 C 
HETATM    4  C8  UNL     1      11.795  15.933  15.366  1.00  0.00     0.002 C 
HETATM    5  C9  UNL     1      13.002  16.219  16.279  1.00  0.00     0.010 C 
HETATM    6  C10 UNL     1      13.957  16.949  15.338  1.00  0.00    -0.035 C 
HETATM    7  C11 UNL     1      14.618  15.808  14.576  1.00  0.00     0.016 C 
HETATM    8  C12 UNL     1      14.892  17.660  16.265  1.00  0.00     0.003 C 
HETATM    9  C13 UNL     1      15.056  16.994  17.615  1.00  0.00     0.037 C 
HETATM   10  C14 UNL     1      16.337  17.642  18.162  1.00  0.00     0.119 C 
HETATM   11  C15 UNL     1      16.875  18.528  17.055  1.00  0.00     0.039 C 
HETATM   12  C16 UNL     1      16.292  17.793  15.827  1.00  0.00     0.027 C 
HETATM   13  C17 UNL     1      16.563  18.603  14.638  1.00  0.00     0.058 C 
HETATM   14  C18 UNL     1      17.962  18.308  14.116  1.00  0.00     0.046 C 
HETATM   15  C19 UNL     1      15.565  18.534  13.514  1.00  0.00     0.038 C 
HETATM   16  C20 UNL     1      14.212  18.997  13.999  1.00  0.00     0.009 C 
HETATM   17  C21 UNL     1      13.272  17.885  14.376  1.00  0.00     0.005 C 
ENDROOT
BRANCH   1  18
HETATM   18  C4  UNL     1      11.039  18.738  13.591  1.00  0.00     0.196 C 
BRANCH  18  19
HETATM   19  C3  UNL     1      10.173  19.869  13.620  1.00  0.00     0.155 C 
HETATM   20  O1  UNL     1      10.404  21.015  13.244  1.00  0.00    -0.295 OA
BRANCH  19  21
HETATM   21  C2  UNL     1       8.783  19.724  14.174  1.00  0.00     0.076 C 
HETATM   22  C1  UNL     1       8.181  18.527  13.417  1.00  0.00     0.013 C 
ENDBRANCH  19  21
ENDBRANCH  18  19
BRANCH  18  23
HETATM   23  O2  UNL     1      11.818  18.799  12.399  1.00  0.00    -0.387 OA
ATOM     24  H2  UNL     1      11.279  18.507  11.674  1.00  0.00     0.210 HD
ENDBRANCH  18  23
ENDBRANCH   1  18
BRANCH  13  25
HETATM   25  O4  UNL     1      16.595  19.968  15.024  1.00  0.00    -0.390 OA
ATOM     26  H4  UNL     1      15.729  20.213  15.328  1.00  0.00     0.210 HD
ENDBRANCH  13  25
BRANCH  10  27
HETATM   27  O3  UNL     1      17.288  16.675  18.448  1.00  0.00    -0.396 OA
ATOM     28  H3  UNL     1      17.682  16.834  19.298  1.00  0.00     0.210 HD
ENDBRANCH  10  27
TORSDOF 6
ENDMDL
MODEL 3
REMARK VINA RESULT: -6.649302893      2.563      5.175
REMARK  6 active torsions:
REMARK  status: ('A' for Active; 'I' for Inactive)
REMARK    1  A    between atoms: C2_2  and  C3_3 
REMARK    2  A    between atoms: C3_3  and  C4_5 
REMARK    3  A    between atoms: C4_5  and  O2_6 
REMARK    4  A    between atoms: C4_5  and  C5_8 
REMARK    5  A    between atoms: C14_17  and  O3_18 
REMARK    6  A    between atoms: C17_22  and  O4_24 
ROOT
HETATM    1  C5  UNL     1      13.860  16.433  15.266  1.00  0.00    -0.007 C 
HETATM    2  C6  UNL     1      14.526  15.538  14.243  1.00  0.00     0.018 C 
HETATM    3  C7  UNL     1      12.388  16.467  14.761  1.00  0.00     0.012 C 
HETATM    4  C8  UNL     1      11.868  17.887  14.695  1.00  0.00     0.002 C 
HETATM    5  C9  UNL     1      12.754  18.442  13.563  1.00  0.00     0.010 C 
HETATM    6  C10 UNL     1      14.046  18.786  14.299  1.00  0.00    -0.035 C 
HETATM    7  C11 UNL     1      13.732  20.143  14.916  1.00  0.00     0.016 C 
HETATM    8  C12 UNL     1      15.067  18.856  13.206  1.00  0.00     0.003 C 
HETATM    9  C13 UNL     1      14.503  19.224  11.850  1.00  0.00     0.037 C 
HETATM   10  C14 UNL     1      15.753  19.644  11.063  1.00  0.00     0.119 C 
HETATM   11  C15 UNL     1      16.910  19.604  12.044  1.00  0.00     0.039 C 
HETATM   12  C16 UNL     1      16.141  19.851  13.362  1.00  0.00     0.027 C 
HETATM   13  C17 UNL     1      17.077  19.680  14.475  1.00  0.00     0.058 C 
HETATM   14  C18 UNL     1      17.844  20.973  14.713  1.00  0.00     0.046 C 
HETATM   15  C19 UNL     1      16.518  19.163  15.773  1.00  0.00     0.038 C 
HETATM   16  C20 UNL     1      15.910  17.797  15.563  1.00  0.00     0.009 C 
HETATM   17  C21 UNL     1      14.418  17.801  15.377  1.00  0.00     0.005 C 
ENDROOT
BRANCH   1  18
HETATM   18  C4  UNL     1      13.688  15.718  16.585  1.00  0.00     0.196 C 
BRANCH  18  19
HETATM   19  C3  UNL     1      13.438  16.425  17.796  1.00  0.00     0.155 C 
HETATM   20  O1  UNL     1      12.396  16.963  18.163  1.00  0.00    -0.295 OA
BRANCH  19  21
HETATM   21  C2  UNL     1      14.541  16.580  18.806  1.00  0.00     0.076 C 
HETATM   22  C1  UNL     1      14.673  15.194  19.460  1.00  0.00     0.013 C 
ENDBRANCH  19  21
ENDBRANCH  18  19
BRANCH  18  23
HETATM   23  O2  UNL     1      12.702  14.698  16.448  1.00  0.00    -0.387 OA
ATOM     24  H2  UNL     1      12.872  14.223  15.643  1.00  0.00     0.210 HD
ENDBRANCH  18  23
ENDBRANCH   1  18
BRANCH  13  25
HETATM   25  O4  UNL     1      18.061  18.733  14.091  1.00  0.00    -0.390 OA
ATOM     26  H4  UNL     1      18.229  18.160  14.829  1.00  0.00     0.210 HD
ENDBRANCH  13  25
BRANCH  10  27
HETATM   27  O3  UNL     1      15.622  20.942  10.596  1.00  0.00    -0.396 OA
ATOM     28  H3  UNL     1      16.294  21.135   9.952  1.00  0.00     0.210 HD
ENDBRANCH  10  27
TORSDOF 6
ENDMDL
MODEL 4
REMARK VINA RESULT: -6.529078483      2.190      4.747
REMARK  6 active torsions:
REMARK  status: ('A' for Active; 'I' for Inactive)
REMARK    1  A    between atoms: C2_2  and  C3_3 
REMARK    2  A    between atoms: C3_3  and  C4_5 
REMARK    3  A    between atoms: C4_5  and  O2_6 
REMARK    4  A    between atoms: C4_5  and  C5_8 
REMARK    5  A    between atoms: C14_17  and  O3_18 
REMARK    6  A    between atoms: C17_22  and  O4_24 
ROOT
HETATM    1  C5  UNL     1      12.315  16.070  15.435  1.00  0.00    -0.007 C 
HETATM    2  C6  UNL     1      12.926  15.086  14.461  1.00  0.00     0.018 C 
HETATM    3  C7  UNL     1      11.014  16.498  14.695  1.00  0.00     0.012 C 
HETATM    4  C8  UNL     1      10.871  18.004  14.673  1.00  0.00     0.002 C 
HETATM    5  C9  UNL     1      12.057  18.370  13.761  1.00  0.00     0.010 C 
HETATM    6  C10 UNL     1      13.235  18.343  14.731  1.00  0.00    -0.035 C 
HETATM    7  C11 UNL     1      13.146  19.705  15.409  1.00  0.00     0.016 C 
HETATM    8  C12 UNL     1      14.427  18.205  13.837  1.00  0.00     0.003 C 
HETATM    9  C13 UNL     1      14.228  18.767  12.445  1.00  0.00     0.037 C 
HETATM   10  C14 UNL     1      15.666  18.894  11.920  1.00  0.00     0.119 C 
HETATM   11  C15 UNL     1      16.578  18.519  13.074  1.00  0.00     0.039 C 
HETATM   12  C16 UNL     1      15.660  18.889  14.261  1.00  0.00     0.027 C 
HETATM   13  C17 UNL     1      16.305  18.436  15.495  1.00  0.00     0.058 C 
HETATM   14  C18 UNL     1      17.301  19.482  15.975  1.00  0.00     0.046 C 
HETATM   15  C19 UNL     1      15.408  18.016  16.628  1.00  0.00     0.038 C 
HETATM   16  C20 UNL     1      14.541  16.859  16.195  1.00  0.00     0.009 C 
HETATM   17  C21 UNL     1      13.154  17.247  15.763  1.00  0.00     0.005 C 
ENDROOT
BRANCH   1  18
HETATM   18  C4  UNL     1      11.736  15.361  16.636  1.00  0.00     0.196 C 
BRANCH  18  19
HETATM   19  C3  UNL     1      12.302  15.499  17.936  1.00  0.00     0.155 C 
HETATM   20  O1  UNL     1      12.341  16.499  18.648  1.00  0.00    -0.295 OA
BRANCH  19  21
HETATM   21  C2  UNL     1      12.960  14.314  18.587  1.00  0.00     0.076 C 
HETATM   22  C1  UNL     1      14.317  14.842  19.083  1.00  0.00     0.013 C 
ENDBRANCH  19  21
ENDBRANCH  18  19
BRANCH  18  23
HETATM   23  O2  UNL     1      10.340  15.635  16.722  1.00  0.00    -0.387 OA
ATOM     24  H2  UNL     1      10.175  16.479  16.319  1.00  0.00     0.210 HD
ENDBRANCH  18  23
ENDBRANCH   1  18
BRANCH  13  25
HETATM   25  O4  UNL     1      17.088  17.291  15.197  1.00  0.00    -0.390 OA
ATOM     26  H4  UNL     1      17.083  16.720  15.956  1.00  0.00     0.210 HD
ENDBRANCH  13  25
BRANCH  10  27
HETATM   27  O3  UNL     1      15.939  20.204  11.558  1.00  0.00    -0.396 OA
ATOM     28  H3  UNL     1      15.168  20.614  11.183  1.00  0.00     0.210 HD
ENDBRANCH  10  27
TORSDOF 6
ENDMDL
MODEL 5
REMARK VINA RESULT: -6.370170166      3.319      8.001
REMARK  6 active torsions:
REMARK  status: ('A' for Active; 'I' for Inactive)
REMARK    1  A    between atoms: C2_2  and  C3_3 
REMARK    2  A    between atoms: C3_3  and  C4_5 
REMARK    3  A    between atoms: C4_5  and  O2_6 
REMARK    4  A    between atoms: C4_5  and  C5_8 
REMARK    5  A    between atoms: C14_17  and  O3_18 
REMARK    6  A    between atoms: C17_22  and  O4_24 
ROOT
HETATM    1  C5  UNL     1      19.327  18.734  11.882  1.00  0.00    -0.007 C 
HETATM    2  C6  UNL     1      19.345  20.241  12.023  1.00  0.00     0.018 C 
HETATM    3  C7  UNL     1      19.169  18.552  10.344  1.00  0.00     0.012 C 
HETATM    4  C8  UNL     1      18.066  17.567  10.024  1.00  0.00     0.002 C 
HETATM    5  C9  UNL     1      16.845  18.366  10.517  1.00  0.00     0.010 C 
HETATM    6  C10 UNL     1      16.862  18.093  12.019  1.00  0.00    -0.035 C 
HETATM    7  C11 UNL     1      16.194  16.728  12.122  1.00  0.00     0.016 C 
HETATM    8  C12 UNL     1      16.033  19.200  12.589  1.00  0.00     0.003 C 
HETATM    9  C13 UNL     1      14.994  19.755  11.637  1.00  0.00     0.037 C 
HETATM   10  C14 UNL     1      14.044  20.516  12.573  1.00  0.00     0.119 C 
HETATM   11  C15 UNL     1      14.528  20.247  13.985  1.00  0.00     0.039 C 
HETATM   12  C16 UNL     1      15.212  18.879  13.769  1.00  0.00     0.027 C 
HETATM   13  C17 UNL     1      15.905  18.514  15.006  1.00  0.00     0.058 C 
HETATM   14  C18 UNL     1      14.934  17.845  15.969  1.00  0.00     0.046 C 
HETATM   15  C19 UNL     1      17.157  17.690  14.879  1.00  0.00     0.038 C 
HETATM   16  C20 UNL     1      18.185  18.439  14.064  1.00  0.00     0.009 C 
HETATM   17  C21 UNL     1      18.245  18.037  12.616  1.00  0.00     0.005 C 
ENDROOT
BRANCH   1  18
HETATM   18  C4  UNL     1      20.703  18.151  12.095  1.00  0.00     0.196 C 
BRANCH  18  19
HETATM   19  C3  UNL     1      20.970  16.764  11.905  1.00  0.00     0.155 C 
HETATM   20  O1  UNL     1      20.770  16.080  10.905  1.00  0.00    -0.295 OA
BRANCH  19  21
HETATM   21  C2  UNL     1      21.569  15.964  13.028  1.00  0.00     0.076 C 
HETATM   22  C1  UNL     1      23.079  16.249  12.951  1.00  0.00     0.013 C 
ENDBRANCH  19  21
ENDBRANCH  18  19
BRANCH  18  23
HETATM   23  O2  UNL     1      21.657  18.899  11.345  1.00  0.00    -0.387 OA
ATOM     24  H2  UNL     1      21.424  19.818  11.396  1.00  0.00     0.210 HD
ENDBRANCH  18  23
ENDBRANCH   1  18
BRANCH  13  25
HETATM   25  O4  UNL     1      16.310  19.706  15.661  1.00  0.00    -0.390 OA
ATOM     26  H4  UNL     1      17.051  20.068  15.190  1.00  0.00     0.210 HD
ENDBRANCH  13  25
BRANCH  10  27
HETATM   27  O3  UNL     1      12.751  20.032  12.455  1.00  0.00    -0.396 OA
ATOM     28  H3  UNL     1      12.320  20.409  11.697  1.00  0.00     0.210 HD
ENDBRANCH  10  27
TORSDOF 6
ENDMDL
