MODEL 1
REMARK VINA RESULT: -6.761524982      0.000      0.000
REMARK  4 active torsions:
REMARK  status: ('A' for Active; 'I' for Inactive)
REMARK    1  A    between atoms: N3_8  and  C3_9 
REMARK    2  A    between atoms: C3_9  and  C4_10 
REMARK    3  A    between atoms: C4_10  and  C5_11 
REMARK    4  A    between atoms: C5_11  and  N4_12 
ROOT
HETATM    1  C3  UNL     1      10.813  -4.040  21.140  1.00  0.00     0.153 C 
ENDROOT
BRANCH   1   2
HETATM    2  N3  UNL     1      10.391  -2.655  20.889  1.00  0.00    -0.266 N 
HETATM    3  C1  UNL     1      10.024  -1.714  21.746  1.00  0.00     0.193 A 
HETATM    4  S1  UNL     1       9.966  -1.886  23.374  1.00  0.00    -0.039 SA
HETATM    5  N1  UNL     1       9.714  -0.604  21.067  1.00  0.00    -0.327 N 
HETATM    6  C2  UNL     1       9.889  -0.854  19.765  1.00  0.00     0.199 A 
ATOM      7  H1  UNL     1       9.398   0.278  21.471  1.00  0.00     0.169 HD
HETATM    8  N2  UNL     1      10.306  -2.121  19.684  1.00  0.00    -0.292 N 
ATOM      9  H2  UNL     1      10.527  -2.608  18.815  1.00  0.00     0.188 HD
ENDBRANCH   1   2
BRANCH   1  10
HETATM   10  C4  UNL     1      12.115  -4.327  20.416  1.00  0.00     0.052 C 
BRANCH  10  11
HETATM   11  C5  UNL     1      13.297  -4.234  21.345  1.00  0.00     0.274 C 
BRANCH  11  12
HETATM   12  N4  UNL     1      12.985  -4.518  22.708  1.00  0.00     0.088 N 
HETATM   13  C6  UNL     1      13.453  -3.525  23.633  1.00  0.00     0.272 C 
HETATM   14  C7  UNL     1      14.908  -3.281  23.669  1.00  0.00     0.030 C 
HETATM   15  C8  UNL     1      15.700  -4.193  24.553  1.00  0.00     0.002 C 
HETATM   16  C9  UNL     1      15.184  -5.583  24.674  1.00  0.00     0.002 C 
HETATM   17  C10 UNL     1      14.714  -6.133  23.336  1.00  0.00     0.030 C 
HETATM   18  C11 UNL     1      13.247  -5.861  23.128  1.00  0.00     0.272 C 
ENDBRANCH  11  12
ENDBRANCH  10  11
ENDBRANCH   1  10
TORSDOF 4
ENDMDL
MODEL 2
REMARK VINA RESULT: -6.710450678      1.080      1.909
REMARK  4 active torsions:
REMARK  status: ('A' for Active; 'I' for Inactive)
REMARK    1  A    between atoms: N3_8  and  C3_9 
REMARK    2  A    between atoms: C3_9  and  C4_10 
REMARK    3  A    between atoms: C4_10  and  C5_11 
REMARK    4  A    between atoms: C5_11  and  N4_12 
ROOT
HETATM    1  C3  UNL     1       9.402  -3.990  22.619  1.00  0.00     0.153 C 
ENDROOT
BRANCH   1   2
HETATM    2  N3  UNL     1       9.628  -2.818  21.762  1.00  0.00    -0.266 N 
HETATM    3  C1  UNL     1       9.665  -1.533  22.080  1.00  0.00     0.193 A 
HETATM    4  S1  UNL     1       9.470  -0.923  23.588  1.00  0.00    -0.039 SA
HETATM    5  N1  UNL     1       9.892  -0.817  20.972  1.00  0.00    -0.327 N 
HETATM    6  C2  UNL     1       9.997  -1.668  19.945  1.00  0.00     0.199 A 
ATOM      7  H1  UNL     1       9.970   0.199  20.920  1.00  0.00     0.169 HD
HETATM    8  N2  UNL     1       9.832  -2.891  20.460  1.00  0.00    -0.292 N 
ATOM      9  H2  UNL     1       9.859  -3.757  19.922  1.00  0.00     0.188 HD
ENDBRANCH   1   2
BRANCH   1  10
HETATM   10  C4  UNL     1      10.375  -5.096  22.256  1.00  0.00     0.052 C 
BRANCH  10  11
HETATM   11  C5  UNL     1      11.595  -5.072  23.138  1.00  0.00     0.274 C 
BRANCH  11  12
HETATM   12  N4  UNL     1      12.820  -4.892  22.426  1.00  0.00     0.088 N 
HETATM   13  C6  UNL     1      13.832  -5.855  22.755  1.00  0.00     0.272 C 
HETATM   14  C7  UNL     1      14.271  -5.907  24.164  1.00  0.00     0.030 C 
HETATM   15  C8  UNL     1      15.346  -4.939  24.547  1.00  0.00     0.002 C 
HETATM   16  C9  UNL     1      15.327  -3.635  23.830  1.00  0.00     0.002 C 
HETATM   17  C10 UNL     1      13.914  -3.093  23.674  1.00  0.00     0.030 C 
HETATM   18  C11 UNL     1      13.304  -3.547  22.374  1.00  0.00     0.272 C 
ENDBRANCH  11  12
ENDBRANCH  10  11
ENDBRANCH   1  10
TORSDOF 4
ENDMDL
MODEL 3
REMARK VINA RESULT: -6.687484741      0.867      1.726
REMARK  4 active torsions:
REMARK  status: ('A' for Active; 'I' for Inactive)
REMARK    1  A    between atoms: N3_8  and  C3_9 
REMARK    2  A    between atoms: C3_9  and  C4_10 
REMARK    3  A    between atoms: C4_10  and  C5_11 
REMARK    4  A    between atoms: C5_11  and  N4_12 
ROOT
HETATM    1  C3  UNL     1      10.838  -4.365  20.507  1.00  0.00     0.153 C 
ENDROOT
BRANCH   1   2
HETATM    2  N3  UNL     1      10.301  -3.007  20.662  1.00  0.00    -0.266 N 
HETATM    3  C1  UNL     1       9.608  -2.480  21.661  1.00  0.00     0.193 A 
HETATM    4  S1  UNL     1       9.180  -3.263  23.035  1.00  0.00    -0.039 SA
HETATM    5  N1  UNL     1       9.320  -1.207  21.366  1.00  0.00    -0.327 N 
HETATM    6  C2  UNL     1       9.840  -0.933  20.165  1.00  0.00     0.199 A 
ATOM      7  H1  UNL     1       8.796  -0.558  21.955  1.00  0.00     0.169 HD
HETATM    8  N2  UNL     1      10.437  -2.057  19.756  1.00  0.00    -0.292 N 
ATOM      9  H2  UNL     1      10.929  -2.165  18.868  1.00  0.00     0.188 HD
ENDBRANCH   1   2
BRANCH   1  10
HETATM   10  C4  UNL     1      12.353  -4.324  20.464  1.00  0.00     0.052 C 
BRANCH  10  11
HETATM   11  C5  UNL     1      12.931  -3.818  21.759  1.00  0.00     0.274 C 
BRANCH  11  12
HETATM   12  N4  UNL     1      14.336  -4.034  21.889  1.00  0.00     0.088 N 
HETATM   13  C6  UNL     1      14.696  -5.404  22.125  1.00  0.00     0.272 C 
HETATM   14  C7  UNL     1      14.148  -6.037  23.341  1.00  0.00     0.030 C 
HETATM   15  C8  UNL     1      14.931  -5.821  24.597  1.00  0.00     0.002 C 
HETATM   16  C9  UNL     1      15.636  -4.514  24.703  1.00  0.00     0.002 C 
HETATM   17  C10 UNL     1      14.776  -3.363  24.202  1.00  0.00     0.030 C 
HETATM   18  C11 UNL     1      15.021  -3.107  22.737  1.00  0.00     0.272 C 
ENDBRANCH  11  12
ENDBRANCH  10  11
ENDBRANCH   1  10
TORSDOF 4
ENDMDL
MODEL 4
REMARK VINA RESULT: -6.636989946      1.448      1.788
REMARK  4 active torsions:
REMARK  status: ('A' for Active; 'I' for Inactive)
REMARK    1  A    between atoms: N3_8  and  C3_9 
REMARK    2  A    between atoms: C3_9  and  C4_10 
REMARK    3  A    between atoms: C4_10  and  C5_11 
REMARK    4  A    between atoms: C5_11  and  N4_12 
ROOT
HETATM    1  C3  UNL     1      11.415  -2.108  20.506  1.00  0.00     0.153 C 
ENDROOT
BRANCH   1   2
HETATM    2  N3  UNL     1      10.547  -1.787  21.647  1.00  0.00    -0.266 N 
HETATM    3  C1  UNL     1       9.537  -2.475  22.161  1.00  0.00     0.193 A 
HETATM    4  S1  UNL     1       9.006  -3.927  21.620  1.00  0.00    -0.039 SA
HETATM    5  N1  UNL     1       9.028  -1.792  23.193  1.00  0.00    -0.327 N 
HETATM    6  C2  UNL     1       9.729  -0.661  23.326  1.00  0.00     0.199 A 
ATOM      7  H1  UNL     1       8.243  -2.084  23.776  1.00  0.00     0.169 HD
HETATM    8  N2  UNL     1      10.655  -0.684  22.363  1.00  0.00    -0.292 N 
ATOM      9  H2  UNL     1      11.349   0.047  22.205  1.00  0.00     0.188 HD
ENDBRANCH   1   2
BRANCH   1  10
HETATM   10  C4  UNL     1      12.860  -2.189  20.958  1.00  0.00     0.052 C 
BRANCH  10  11
HETATM   11  C5  UNL     1      13.251  -3.600  21.311  1.00  0.00     0.274 C 
BRANCH  11  12
HETATM   12  N4  UNL     1      12.850  -4.002  22.620  1.00  0.00     0.088 N 
HETATM   13  C6  UNL     1      13.503  -3.282  23.677  1.00  0.00     0.272 C 
HETATM   14  C7  UNL     1      14.974  -3.377  23.738  1.00  0.00     0.030 C 
HETATM   15  C8  UNL     1      15.522  -4.560  24.472  1.00  0.00     0.002 C 
HETATM   16  C9  UNL     1      14.708  -5.804  24.392  1.00  0.00     0.002 C 
HETATM   17  C10 UNL     1      14.162  -6.035  22.990  1.00  0.00     0.030 C 
HETATM   18  C11 UNL     1      12.797  -5.415  22.836  1.00  0.00     0.272 C 
ENDBRANCH  11  12
ENDBRANCH  10  11
ENDBRANCH   1  10
TORSDOF 4
ENDMDL
MODEL 5
REMARK VINA RESULT: -6.557308153      1.585      2.411
REMARK  4 active torsions:
REMARK  status: ('A' for Active; 'I' for Inactive)
REMARK    1  A    between atoms: N3_8  and  C3_9 
REMARK    2  A    between atoms: C3_9  and  C4_10 
REMARK    3  A    between atoms: C4_10  and  C5_11 
REMARK    4  A    between atoms: C5_11  and  N4_12 
ROOT
HETATM    1  C3  UNL     1      11.247  -2.068  20.470  1.00  0.00     0.153 C 
ENDROOT
BRANCH   1   2
HETATM    2  N3  UNL     1      10.460  -1.729  21.664  1.00  0.00    -0.266 N 
HETATM    3  C1  UNL     1       9.522  -2.428  22.285  1.00  0.00     0.193 A 
HETATM    4  S1  UNL     1       9.006  -3.920  21.849  1.00  0.00    -0.039 SA
HETATM    5  N1  UNL     1       9.071  -1.720  23.327  1.00  0.00    -0.327 N 
HETATM    6  C2  UNL     1       9.736  -0.560  23.357  1.00  0.00     0.199 A 
ATOM      7  H1  UNL     1       8.346  -2.013  23.983  1.00  0.00     0.169 HD
HETATM    8  N2  UNL     1      10.584  -0.592  22.324  1.00  0.00    -0.292 N 
ATOM      9  H2  UNL     1      11.234   0.155  22.080  1.00  0.00     0.188 HD
ENDBRANCH   1   2
BRANCH   1  10
HETATM   10  C4  UNL     1      12.702  -2.274  20.847  1.00  0.00     0.052 C 
BRANCH  10  11
HETATM   11  C5  UNL     1      12.950  -3.670  21.355  1.00  0.00     0.274 C 
BRANCH  11  12
HETATM   12  N4  UNL     1      14.327  -3.963  21.590  1.00  0.00     0.088 N 
HETATM   13  C6  UNL     1      14.595  -5.353  21.827  1.00  0.00     0.272 C 
HETATM   14  C7  UNL     1      13.922  -5.974  22.984  1.00  0.00     0.030 C 
HETATM   15  C8  UNL     1      14.614  -5.819  24.301  1.00  0.00     0.002 C 
HETATM   16  C9  UNL     1      15.376  -4.554  24.486  1.00  0.00     0.002 C 
HETATM   17  C10 UNL     1      14.619  -3.351  23.942  1.00  0.00     0.030 C 
HETATM   18  C11 UNL     1      14.991  -3.087  22.505  1.00  0.00     0.272 C 
ENDBRANCH  11  12
ENDBRANCH  10  11
ENDBRANCH   1  10
TORSDOF 4
ENDMDL
