MODEL 1
REMARK VINA RESULT: -7.327695598      0.000      0.000
REMARK  4 active torsions:
REMARK  status: ('A' for Active; 'I' for Inactive)
REMARK    1  A    between atoms: C2_3  and  C3_4 
REMARK    2  A    between atoms: C3_4  and  N2_5 
REMARK    3  A    between atoms: N2_5  and  N3_6 
REMARK    4  A    between atoms: N2_5  and  C9_15 
ROOT
HETATM    1  N1  UNL     1      17.971  -0.938  21.512  1.00  0.00    -0.197 NA
HETATM    2  C1  UNL     1      16.946  -1.089  20.994  1.00  0.00     0.060 C 
HETATM    3  C2  UNL     1      15.664  -1.291  20.321  1.00  0.00     0.146 C 
ENDROOT
BRANCH   3   4
HETATM    4  C3  UNL     1      14.549  -0.546  21.024  1.00  0.00     0.182 C 
BRANCH   4   5
HETATM    5  N2  UNL     1      13.745  -1.473  21.831  1.00  0.00    -0.121 N 
BRANCH   5   6
HETATM    6  N3  UNL     1      14.308  -2.087  22.890  1.00  0.00    -0.273 N 
HETATM    7  C4  UNL     1      14.477  -3.251  23.310  1.00  0.00     0.092 C 
HETATM    8  C5  UNL     1      15.205  -3.431  24.618  1.00  0.00     0.077 C 
HETATM    9  N4  UNL     1      14.065  -4.464  22.699  1.00  0.00    -0.379 N 
HETATM   10  C6  UNL     1      15.756  -4.798  24.775  1.00  0.00     0.009 C 
HETATM   11  C7  UNL     1      14.815  -5.924  24.476  1.00  0.00     0.020 C 
HETATM   12  C8  UNL     1      13.673  -5.544  23.574  1.00  0.00     0.121 C 
ATOM     13  H4  UNL     1      14.045  -4.568  21.684  1.00  0.00     0.160 HD
ATOM     14  H3  UNL     1      14.712  -1.406  23.533  1.00  0.00     0.189 HD
ENDBRANCH   5   6
BRANCH   5  15
HETATM   15  C9  UNL     1      12.402  -1.670  21.447  1.00  0.00     0.698 A 
HETATM   16  N5  UNL     1      12.063  -2.585  20.492  1.00  0.00    -0.200 N 
HETATM   17  C10 UNL     1      10.793  -2.778  20.105  1.00  0.00     0.107 A 
ATOM     18  H5  UNL     1      12.800  -3.140  20.057  1.00  0.00     0.183 HD
HETATM   19  C11 UNL     1       9.804  -2.019  20.705  1.00  0.00     0.035 A 
HETATM   20  C12 UNL     1      10.121  -1.091  21.670  1.00  0.00     0.107 A 
HETATM   21  N6  UNL     1      11.401  -0.937  22.018  1.00  0.00    -0.200 N 
ATOM     22  H6  UNL     1      11.639  -0.250  22.733  1.00  0.00     0.183 HD
ENDBRANCH   5  15
ENDBRANCH   4   5
ENDBRANCH   3   4
TORSDOF 4
ENDMDL
MODEL 2
REMARK VINA RESULT: -7.175809026      1.768      5.399
REMARK  4 active torsions:
REMARK  status: ('A' for Active; 'I' for Inactive)
REMARK    1  A    between atoms: C2_3  and  C3_4 
REMARK    2  A    between atoms: C3_4  and  N2_5 
REMARK    3  A    between atoms: N2_5  and  N3_6 
REMARK    4  A    between atoms: N2_5  and  C9_15 
ROOT
HETATM    1  N1  UNL     1      15.597  -6.586  21.995  1.00  0.00    -0.197 NA
HETATM    2  C1  UNL     1      15.238  -6.118  22.993  1.00  0.00     0.060 C 
HETATM    3  C2  UNL     1      14.766  -5.543  24.251  1.00  0.00     0.146 C 
ENDROOT
BRANCH   3   4
HETATM    4  C3  UNL     1      15.547  -4.298  24.615  1.00  0.00     0.182 C 
BRANCH   4   5
HETATM    5  N2  UNL     1      15.284  -3.229  23.643  1.00  0.00    -0.121 N 
BRANCH   5   6
HETATM    6  N3  UNL     1      14.070  -2.647  23.612  1.00  0.00    -0.273 N 
HETATM    7  C4  UNL     1      13.056  -2.645  22.882  1.00  0.00     0.092 C 
HETATM    8  C5  UNL     1      11.891  -1.781  23.293  1.00  0.00     0.077 C 
HETATM    9  N4  UNL     1      12.849  -3.372  21.681  1.00  0.00    -0.379 N 
HETATM   10  C6  UNL     1      10.621  -2.206  22.659  1.00  0.00     0.009 C 
HETATM   11  C7  UNL     1      10.673  -2.443  21.180  1.00  0.00     0.020 C 
HETATM   12  C8  UNL     1      12.050  -2.742  20.657  1.00  0.00     0.121 C 
ATOM     13  H4  UNL     1      13.248  -4.302  21.548  1.00  0.00     0.160 HD
ATOM     14  H3  UNL     1      13.941  -2.031  24.415  1.00  0.00     0.189 HD
ENDBRANCH   5   6
BRANCH   5  15
HETATM   15  C9  UNL     1      16.340  -2.861  22.782  1.00  0.00     0.698 A 
HETATM   16  N5  UNL     1      16.362  -3.257  21.476  1.00  0.00    -0.200 N 
HETATM   17  C10 UNL     1      17.363  -2.927  20.645  1.00  0.00     0.107 A 
ATOM     18  H5  UNL     1      15.592  -3.823  21.120  1.00  0.00     0.183 HD
HETATM   19  C11 UNL     1      18.400  -2.159  21.143  1.00  0.00     0.035 A 
HETATM   20  C12 UNL     1      18.400  -1.748  22.456  1.00  0.00     0.107 A 
HETATM   21  N6  UNL     1      17.380  -2.104  23.241  1.00  0.00    -0.200 N 
ATOM     22  H6  UNL     1      17.378  -1.800  24.216  1.00  0.00     0.183 HD
ENDBRANCH   5  15
ENDBRANCH   4   5
ENDBRANCH   3   4
TORSDOF 4
ENDMDL
MODEL 3
REMARK VINA RESULT: -7.170403779      1.780      5.490
REMARK  4 active torsions:
REMARK  status: ('A' for Active; 'I' for Inactive)
REMARK    1  A    between atoms: C2_3  and  C3_4 
REMARK    2  A    between atoms: C3_4  and  N2_5 
REMARK    3  A    between atoms: N2_5  and  N3_6 
REMARK    4  A    between atoms: N2_5  and  C9_15 
ROOT
HETATM    1  N1  UNL     1      15.598  -6.595  21.937  1.00  0.00    -0.197 NA
HETATM    2  C1  UNL     1      15.216  -6.140  22.931  1.00  0.00     0.060 C 
HETATM    3  C2  UNL     1      14.714  -5.581  24.186  1.00  0.00     0.146 C 
ENDROOT
BRANCH   3   4
HETATM    4  C3  UNL     1      15.500  -4.354  24.596  1.00  0.00     0.182 C 
BRANCH   4   5
HETATM    5  N2  UNL     1      15.275  -3.261  23.641  1.00  0.00    -0.121 N 
BRANCH   5   6
HETATM    6  N3  UNL     1      14.075  -2.651  23.604  1.00  0.00    -0.273 N 
HETATM    7  C4  UNL     1      13.056  -2.642  22.881  1.00  0.00     0.092 C 
HETATM    8  C5  UNL     1      11.914  -1.741  23.281  1.00  0.00     0.077 C 
HETATM    9  N4  UNL     1      12.823  -3.392  21.699  1.00  0.00    -0.379 N 
HETATM   10  C6  UNL     1      10.630  -2.150  22.664  1.00  0.00     0.009 C 
HETATM   11  C7  UNL     1      10.665  -2.422  21.192  1.00  0.00     0.020 C 
HETATM   12  C8  UNL     1      12.031  -2.766  20.666  1.00  0.00     0.121 C 
ATOM     13  H4  UNL     1      13.198  -4.334  21.584  1.00  0.00     0.160 HD
ATOM     14  H3  UNL     1      13.966  -2.014  24.393  1.00  0.00     0.189 HD
ENDBRANCH   5   6
BRANCH   5  15
HETATM   15  C9  UNL     1      16.350  -2.902  22.801  1.00  0.00     0.698 A 
HETATM   16  N5  UNL     1      17.385  -2.138  23.258  1.00  0.00    -0.200 N 
HETATM   17  C10 UNL     1      18.410  -1.777  22.472  1.00  0.00     0.107 A 
ATOM     18  H5  UNL     1      17.378  -1.831  24.231  1.00  0.00     0.183 HD
HETATM   19  C11 UNL     1      18.405  -2.202  21.155  1.00  0.00     0.035 A 
HETATM   20  C12 UNL     1      17.374  -2.973  20.671  1.00  0.00     0.107 A 
HETATM   21  N6  UNL     1      16.377  -3.304  21.495  1.00  0.00    -0.200 N 
ATOM     22  H6  UNL     1      15.611  -3.875  21.139  1.00  0.00     0.183 HD
ENDBRANCH   5  15
ENDBRANCH   4   5
ENDBRANCH   3   4
TORSDOF 4
ENDMDL
MODEL 4
REMARK VINA RESULT: -7.074886803      3.980      6.952
REMARK  4 active torsions:
REMARK  status: ('A' for Active; 'I' for Inactive)
REMARK    1  A    between atoms: C2_3  and  C3_4 
REMARK    2  A    between atoms: C3_4  and  N2_5 
REMARK    3  A    between atoms: N2_5  and  N3_6 
REMARK    4  A    between atoms: N2_5  and  C9_15 
ROOT
HETATM    1  N1  UNL     1      13.790  -3.983  23.729  1.00  0.00    -0.197 NA
HETATM    2  C1  UNL     1      14.327  -4.968  23.440  1.00  0.00     0.060 C 
HETATM    3  C2  UNL     1      15.016  -6.211  23.098  1.00  0.00     0.146 C 
ENDROOT
BRANCH   3   4
HETATM    4  C3  UNL     1      14.835  -6.558  21.635  1.00  0.00     0.182 C 
BRANCH   4   5
HETATM    5  N2  UNL     1      16.095  -6.366  20.905  1.00  0.00    -0.121 N 
BRANCH   5   6
HETATM    6  N3  UNL     1      16.504  -5.117  20.609  1.00  0.00    -0.273 N 
HETATM    7  C4  UNL     1      17.125  -4.185  21.162  1.00  0.00     0.092 C 
HETATM    8  C5  UNL     1      17.342  -2.917  20.374  1.00  0.00     0.077 C 
HETATM    9  N4  UNL     1      17.673  -4.161  22.470  1.00  0.00    -0.379 N 
HETATM   10  C6  UNL     1      18.455  -2.101  20.913  1.00  0.00     0.009 C 
HETATM   11  C7  UNL     1      18.444  -1.870  22.393  1.00  0.00     0.020 C 
HETATM   12  C8  UNL     1      17.663  -2.896  23.167  1.00  0.00     0.121 C 
ATOM     13  H4  UNL     1      18.056  -5.003  22.901  1.00  0.00     0.160 HD
ATOM     14  H3  UNL     1      16.228  -4.859  19.661  1.00  0.00     0.189 HD
ENDBRANCH   5   6
BRANCH   5  15
HETATM   15  C9  UNL     1      16.821  -7.522  20.550  1.00  0.00     0.698 A 
HETATM   16  N5  UNL     1      18.184  -7.511  20.477  1.00  0.00    -0.200 N 
HETATM   17  C10 UNL     1      18.892  -8.597  20.130  1.00  0.00     0.107 A 
ATOM     18  H5  UNL     1      18.682  -6.647  20.693  1.00  0.00     0.183 HD
HETATM   19  C11 UNL     1      18.203  -9.761  19.842  1.00  0.00     0.035 A 
HETATM   20  C12 UNL     1      16.829  -9.797  19.909  1.00  0.00     0.107 A 
HETATM   21  N6  UNL     1      16.173  -8.689  20.258  1.00  0.00    -0.200 N 
ATOM     22  H6  UNL     1      15.154  -8.713  20.308  1.00  0.00     0.183 HD
ENDBRANCH   5  15
ENDBRANCH   4   5
ENDBRANCH   3   4
TORSDOF 4
ENDMDL
MODEL 5
REMARK VINA RESULT: -7.072215370      1.966      3.870
REMARK  4 active torsions:
REMARK  status: ('A' for Active; 'I' for Inactive)
REMARK    1  A    between atoms: C2_3  and  C3_4 
REMARK    2  A    between atoms: C3_4  and  N2_5 
REMARK    3  A    between atoms: N2_5  and  N3_6 
REMARK    4  A    between atoms: N2_5  and  C9_15 
ROOT
HETATM    1  N1  UNL     1       9.788  -4.486  19.234  1.00  0.00    -0.197 NA
HETATM    2  C1  UNL     1      10.853  -4.488  19.691  1.00  0.00     0.060 C 
HETATM    3  C2  UNL     1      12.196  -4.517  20.266  1.00  0.00     0.146 C 
ENDROOT
BRANCH   3   4
HETATM    4  C3  UNL     1      12.626  -3.143  20.732  1.00  0.00     0.182 C 
BRANCH   4   5
HETATM    5  N2  UNL     1      12.442  -3.015  22.184  1.00  0.00    -0.121 N 
BRANCH   5   6
HETATM    6  N3  UNL     1      13.380  -3.508  23.015  1.00  0.00    -0.273 N 
HETATM    7  C4  UNL     1      14.580  -3.299  23.294  1.00  0.00     0.092 C 
HETATM    8  C5  UNL     1      15.219  -4.162  24.353  1.00  0.00     0.077 C 
HETATM    9  N4  UNL     1      15.447  -2.328  22.730  1.00  0.00    -0.379 N 
HETATM   10  C6  UNL     1      16.437  -3.543  24.926  1.00  0.00     0.009 C 
HETATM   11  C7  UNL     1      17.429  -3.007  23.939  1.00  0.00     0.020 C 
HETATM   12  C8  UNL     1      16.839  -2.685  22.594  1.00  0.00     0.121 C 
ATOM     13  H4  UNL     1      15.100  -1.415  22.433  1.00  0.00     0.160 HD
ATOM     14  H3  UNL     1      13.003  -4.268  23.580  1.00  0.00     0.189 HD
ENDBRANCH   5   6
BRANCH   5  15
HETATM   15  C9  UNL     1      11.271  -2.369  22.635  1.00  0.00     0.698 A 
HETATM   16  N5  UNL     1      11.246  -1.024  22.865  1.00  0.00    -0.200 N 
HETATM   17  C10 UNL     1      10.146  -0.394  23.305  1.00  0.00     0.107 A 
ATOM     18  H5  UNL     1      12.092  -0.479  22.697  1.00  0.00     0.183 HD
HETATM   19  C11 UNL     1       9.007  -1.146  23.527  1.00  0.00     0.035 A 
HETATM   20  C12 UNL     1       9.008  -2.503  23.302  1.00  0.00     0.107 A 
HETATM   21  N6  UNL     1      10.129  -3.082  22.865  1.00  0.00    -0.200 N 
ATOM     22  H6  UNL     1      10.132  -4.088  22.698  1.00  0.00     0.183 HD
ENDBRANCH   5  15
ENDBRANCH   4   5
ENDBRANCH   3   4
TORSDOF 4
ENDMDL
