MODEL 1
REMARK VINA RESULT: -7.554890929      0.000      0.000
REMARK  4 active torsions:
REMARK  status: ('A' for Active; 'I' for Inactive)
REMARK    1  A    between atoms: C2_3  and  C3_4 
REMARK    2  A    between atoms: C3_4  and  O1_5 
REMARK    3  A    between atoms: O1_5  and  N2_6 
REMARK    4  A    between atoms: C7_11  and  C8_12 
ROOT
HETATM    1  N1  UNL     1      16.117 -11.303  19.597  1.00  0.00    -0.197 NA
HETATM    2  C1  UNL     1      17.041 -10.718  19.984  1.00  0.00     0.061 C 
HETATM    3  C2  UNL     1      18.210  -9.985  20.446  1.00  0.00     0.152 C 
ENDROOT
BRANCH   3   4
HETATM    4  C3  UNL     1      18.426  -8.811  19.512  1.00  0.00     0.215 C 
BRANCH   4   5
HETATM    5  O1  UNL     1      17.279  -7.972  19.637  1.00  0.00    -0.280 OA
BRANCH   5   6
HETATM    6  N2  UNL     1      16.916  -7.603  20.904  1.00  0.00    -0.275 N 
HETATM    7  C4  UNL     1      16.003  -6.725  21.136  1.00  0.00     0.010 C 
HETATM    8  C5  UNL     1      15.211  -5.984  20.120  1.00  0.00     0.055 C 
HETATM    9  C13 UNL     1      15.573  -6.291  22.488  1.00  0.00     0.059 C 
HETATM   10  C6  UNL     1      14.312  -5.054  20.945  1.00  0.00     0.011 C 
HETATM   11  C7  UNL     1      14.133  -5.846  22.206  1.00  0.00    -0.005 C 
ATOM     12  H2  UNL     1      17.387  -8.042  21.696  1.00  0.00     0.193 HD
BRANCH  11  13
HETATM   13  C8  UNL     1      13.721  -4.974  23.395  1.00  0.00    -0.007 C 
HETATM   14  C9  UNL     1      12.776  -3.944  22.880  1.00  0.00     0.032 C 
HETATM   15  C10 UNL     1      13.010  -2.559  23.383  1.00  0.00     0.232 C 
HETATM   16  N3  UNL     1      14.441  -2.283  23.170  1.00  0.00    -0.075 N 
HETATM   17  C11 UNL     1      15.129  -3.032  24.183  1.00  0.00     0.232 C 
ATOM     18  H32 UNL     1      14.761  -2.482  22.222  1.00  0.00     0.277 HD
ATOM     19  H31 UNL     1      14.671  -1.289  23.168  1.00  0.00     0.277 HD
HETATM   20  C12 UNL     1      14.854  -4.487  24.201  1.00  0.00     0.032 C 
ENDBRANCH  11  13
ENDBRANCH   5   6
ENDBRANCH   4   5
ENDBRANCH   3   4
TORSDOF 4
ENDMDL
MODEL 2
REMARK VINA RESULT: -7.546656531      4.415      6.864
REMARK  4 active torsions:
REMARK  status: ('A' for Active; 'I' for Inactive)
REMARK    1  A    between atoms: C2_3  and  C3_4 
REMARK    2  A    between atoms: C3_4  and  O1_5 
REMARK    3  A    between atoms: O1_5  and  N2_6 
REMARK    4  A    between atoms: C7_11  and  C8_12 
ROOT
HETATM    1  N1  UNL     1      10.134  -0.269  20.740  1.00  0.00    -0.197 NA
HETATM    2  C1  UNL     1      10.165  -1.386  20.428  1.00  0.00     0.061 C 
HETATM    3  C2  UNL     1      10.212  -2.794  20.060  1.00  0.00     0.152 C 
ENDROOT
BRANCH   3   4
HETATM    4  C3  UNL     1       9.424  -3.574  21.094  1.00  0.00     0.215 C 
BRANCH   4   5
HETATM    5  O1  UNL     1      10.090  -3.388  22.342  1.00  0.00    -0.280 OA
BRANCH   5   6
HETATM    6  N2  UNL     1      11.123  -4.239  22.627  1.00  0.00    -0.275 N 
HETATM    7  C4  UNL     1      12.312  -3.823  22.892  1.00  0.00     0.010 C 
HETATM    8  C5  UNL     1      12.763  -2.407  22.937  1.00  0.00     0.055 C 
HETATM    9  C13 UNL     1      13.465  -4.702  23.206  1.00  0.00     0.059 C 
HETATM   10  C6  UNL     1      14.261  -2.497  23.256  1.00  0.00     0.011 C 
HETATM   11  C7  UNL     1      14.324  -3.762  24.059  1.00  0.00    -0.005 C 
ATOM     12  H2  UNL     1      10.944  -5.244  22.629  1.00  0.00     0.193 HD
BRANCH  11  13
HETATM   13  C8  UNL     1      15.726  -4.376  24.081  1.00  0.00    -0.007 C 
HETATM   14  C9  UNL     1      16.635  -3.378  24.712  1.00  0.00     0.032 C 
HETATM   15  C10 UNL     1      17.946  -3.190  24.026  1.00  0.00     0.232 C 
HETATM   16  N3  UNL     1      17.637  -2.969  22.604  1.00  0.00    -0.075 N 
HETATM   17  C11 UNL     1      17.271  -4.258  22.088  1.00  0.00     0.232 C 
ATOM     18  H32 UNL     1      16.933  -2.248  22.444  1.00  0.00     0.277 HD
ATOM     19  H31 UNL     1      18.390  -2.518  22.085  1.00  0.00     0.277 HD
HETATM   20  C12 UNL     1      16.155  -4.935  22.788  1.00  0.00     0.032 C 
ENDBRANCH  11  13
ENDBRANCH   5   6
ENDBRANCH   4   5
ENDBRANCH   3   4
TORSDOF 4
ENDMDL
MODEL 3
REMARK VINA RESULT: -7.348910440      4.342      5.614
REMARK  4 active torsions:
REMARK  status: ('A' for Active; 'I' for Inactive)
REMARK    1  A    between atoms: C2_3  and  C3_4 
REMARK    2  A    between atoms: C3_4  and  O1_5 
REMARK    3  A    between atoms: O1_5  and  N2_6 
REMARK    4  A    between atoms: C7_11  and  C8_12 
ROOT
HETATM    1  N1  UNL     1      17.625  -0.921  21.306  1.00  0.00    -0.197 NA
HETATM    2  C1  UNL     1      17.741  -1.897  21.921  1.00  0.00     0.061 C 
HETATM    3  C2  UNL     1      17.905  -3.113  22.706  1.00  0.00     0.152 C 
ENDROOT
BRANCH   3   4
HETATM    4  C3  UNL     1      17.920  -2.725  24.171  1.00  0.00     0.215 C 
BRANCH   4   5
HETATM    5  O1  UNL     1      16.944  -3.539  24.820  1.00  0.00    -0.280 OA
BRANCH   5   6
HETATM    6  N2  UNL     1      15.633  -3.305  24.504  1.00  0.00    -0.275 N 
HETATM    7  C4  UNL     1      14.869  -4.208  23.997  1.00  0.00     0.010 C 
HETATM    8  C5  UNL     1      15.251  -5.608  23.674  1.00  0.00     0.055 C 
HETATM    9  C13 UNL     1      13.444  -4.006  23.637  1.00  0.00     0.059 C 
HETATM   10  C6  UNL     1      13.981  -6.216  23.065  1.00  0.00     0.011 C 
HETATM   11  C7  UNL     1      12.907  -5.437  23.763  1.00  0.00    -0.005 C 
ATOM     12  H2  UNL     1      15.245  -2.377  24.678  1.00  0.00     0.193 HD
BRANCH  11  13
HETATM   13  C8  UNL     1      11.578  -5.455  23.003  1.00  0.00    -0.007 C 
HETATM   14  C9  UNL     1      11.438  -4.135  22.328  1.00  0.00     0.032 C 
HETATM   15  C10 UNL     1      10.088  -3.510  22.427  1.00  0.00     0.232 C 
HETATM   16  N3  UNL     1       9.725  -3.543  23.854  1.00  0.00    -0.075 N 
HETATM   17  C11 UNL     1       9.385  -4.910  24.129  1.00  0.00     0.232 C 
ATOM     18  H32 UNL     1      10.446  -3.167  24.470  1.00  0.00     0.277 HD
ATOM     19  H31 UNL     1       8.993  -2.879  24.107  1.00  0.00     0.277 HD
HETATM   20  C12 UNL     1      10.433  -5.907  23.812  1.00  0.00     0.032 C 
ENDBRANCH  11  13
ENDBRANCH   5   6
ENDBRANCH   4   5
ENDBRANCH   3   4
TORSDOF 4
ENDMDL
MODEL 4
REMARK VINA RESULT: -7.196457674      1.668      2.463
REMARK  4 active torsions:
REMARK  status: ('A' for Active; 'I' for Inactive)
REMARK    1  A    between atoms: C2_3  and  C3_4 
REMARK    2  A    between atoms: C3_4  and  O1_5 
REMARK    3  A    between atoms: O1_5  and  N2_6 
REMARK    4  A    between atoms: C7_11  and  C8_12 
ROOT
HETATM    1  N1  UNL     1      20.147  -8.045  20.342  1.00  0.00    -0.197 NA
HETATM    2  C1  UNL     1      19.444  -8.920  20.050  1.00  0.00     0.061 C 
HETATM    3  C2  UNL     1      18.545 -10.011  19.701  1.00  0.00     0.152 C 
ENDROOT
BRANCH   3   4
HETATM    4  C3  UNL     1      17.168  -9.424  19.460  1.00  0.00     0.215 C 
BRANCH   4   5
HETATM    5  O1  UNL     1      16.794  -8.752  20.662  1.00  0.00    -0.280 OA
BRANCH   5   6
HETATM    6  N2  UNL     1      15.677  -7.964  20.609  1.00  0.00    -0.275 N 
HETATM    7  C4  UNL     1      15.715  -6.692  20.808  1.00  0.00     0.010 C 
HETATM    8  C5  UNL     1      16.922  -5.882  21.117  1.00  0.00     0.055 C 
HETATM    9  C13 UNL     1      14.535  -5.794  20.763  1.00  0.00     0.059 C 
HETATM   10  C6  UNL     1      16.386  -4.455  21.292  1.00  0.00     0.011 C 
HETATM   11  C7  UNL     1      15.196  -4.465  20.380  1.00  0.00    -0.005 C 
ATOM     12  H2  UNL     1      14.778  -8.401  20.404  1.00  0.00     0.193 HD
BRANCH  11  13
HETATM   13  C8  UNL     1      14.179  -3.374  20.727  1.00  0.00    -0.007 C 
HETATM   14  C9  UNL     1      14.925  -2.087  20.811  1.00  0.00     0.032 C 
HETATM   15  C10 UNL     1      14.570  -1.222  21.973  1.00  0.00     0.232 C 
HETATM   16  N3  UNL     1      14.641  -2.085  23.164  1.00  0.00    -0.075 N 
HETATM   17  C11 UNL     1      13.469  -2.913  23.105  1.00  0.00     0.232 C 
ATOM     18  H32 UNL     1      15.512  -2.611  23.239  1.00  0.00     0.277 HD
ATOM     19  H31 UNL     1      14.736  -1.570  24.039  1.00  0.00     0.277 HD
HETATM   20  C12 UNL     1      13.308  -3.708  21.867  1.00  0.00     0.032 C 
ENDBRANCH  11  13
ENDBRANCH   5   6
ENDBRANCH   4   5
ENDBRANCH   3   4
TORSDOF 4
ENDMDL
MODEL 5
REMARK VINA RESULT: -7.194439157      1.641      2.217
REMARK  4 active torsions:
REMARK  status: ('A' for Active; 'I' for Inactive)
REMARK    1  A    between atoms: C2_3  and  C3_4 
REMARK    2  A    between atoms: C3_4  and  O1_5 
REMARK    3  A    between atoms: O1_5  and  N2_6 
REMARK    4  A    between atoms: C7_11  and  C8_12 
ROOT
HETATM    1  N1  UNL     1      14.970 -11.886  19.595  1.00  0.00    -0.197 NA
HETATM    2  C1  UNL     1      16.026 -11.407  19.639  1.00  0.00     0.061 C 
HETATM    3  C2  UNL     1      17.347 -10.797  19.671  1.00  0.00     0.152 C 
ENDROOT
BRANCH   3   4
HETATM    4  C3  UNL     1      17.189  -9.323  19.352  1.00  0.00     0.215 C 
BRANCH   4   5
HETATM    5  O1  UNL     1      16.182  -8.820  20.229  1.00  0.00    -0.280 OA
BRANCH   5   6
HETATM    6  N2  UNL     1      16.555  -7.834  21.100  1.00  0.00    -0.275 N 
HETATM    7  C4  UNL     1      16.153  -6.616  20.984  1.00  0.00     0.010 C 
HETATM    8  C5  UNL     1      15.250  -6.080  19.932  1.00  0.00     0.055 C 
HETATM    9  C13 UNL     1      16.528  -5.510  21.900  1.00  0.00     0.059 C 
HETATM   10  C6  UNL     1      15.141  -4.584  20.251  1.00  0.00     0.011 C 
HETATM   11  C7  UNL     1      15.321  -4.579  21.740  1.00  0.00    -0.005 C 
ATOM     12  H2  UNL     1      17.177  -8.072  21.873  1.00  0.00     0.193 HD
BRANCH  11  13
HETATM   13  C8  UNL     1      15.768  -3.215  22.274  1.00  0.00    -0.007 C 
HETATM   14  C9  UNL     1      17.254  -3.249  22.376  1.00  0.00     0.032 C 
HETATM   15  C10 UNL     1      17.818  -2.672  23.631  1.00  0.00     0.232 C 
HETATM   16  N3  UNL     1      17.083  -3.306  24.739  1.00  0.00    -0.075 N 
HETATM   17  C11 UNL     1      15.789  -2.685  24.742  1.00  0.00     0.232 C 
ATOM     18  H32 UNL     1      17.051  -4.324  24.681  1.00  0.00     0.277 HD
ATOM     19  H31 UNL     1      17.566  -3.252  25.636  1.00  0.00     0.277 HD
HETATM   20  C12 UNL     1      15.035  -2.771  23.471  1.00  0.00     0.032 C 
ENDBRANCH  11  13
ENDBRANCH   5   6
ENDBRANCH   4   5
ENDBRANCH   3   4
TORSDOF 4
ENDMDL
