MODEL 1
REMARK VINA RESULT: -6.426870217      0.000      0.000
REMARK  16 active torsions:
REMARK  status: ('A' for Active; 'I' for Inactive)
REMARK    1  A    between atoms: C2_5  and  C3_6 
REMARK    2  A    between atoms: C3_6  and  N3_7 
REMARK    3  A    between atoms: N3_7  and  C4_10 
REMARK    4  A    between atoms: C4_10  and  C5_11 
REMARK    5  A    between atoms: C4_10  and  C6_14 
REMARK    6  A    between atoms: C5_11  and  O1_12 
REMARK    7  A    between atoms: C6_14  and  C7_16 
REMARK       I    between atoms: C7_16  and  N4_18 
REMARK    8  A    between atoms: N4_18  and  C8_20 
REMARK    9  A    between atoms: C11_25  and  C12_26 
REMARK   10  A    between atoms: C13_31  and  O6_32 
REMARK   11  A    between atoms: C16_36  and  C17_37 
REMARK   12  A    between atoms: C17_37  and  N6_38 
REMARK   13  A    between atoms: C17_37  and  C18_42 
REMARK   14  A    between atoms: C19_46  and  O9_47 
REMARK   15  A    between atoms: C20_49  and  N8_50 
REMARK   16  A    between atoms: C21_54  and  O10_55 
ROOT
HETATM    1  C8  UNL     1      21.055 -10.789  -8.415  1.00  0.00     0.169 C 
HETATM    2  C9  UNL     1      21.149  -9.281  -8.315  1.00  0.00     0.119 C 
HETATM    3  S1  UNL     1      22.769  -8.591  -8.431  1.00  0.00    -0.095 SA
HETATM    4  S2  UNL     1      24.171  -9.943  -9.180  1.00  0.00    -0.095 SA
HETATM    5  C10 UNL     1      23.838 -10.539 -10.817  1.00  0.00     0.122 C 
HETATM    6  C11 UNL     1      24.650 -11.746 -11.210  1.00  0.00     0.194 C 
HETATM    7  N5  UNL     1      23.881 -12.947 -11.182  1.00  0.00    -0.357 N 
ATOM      8  H5  UNL     1      23.595 -13.264 -12.108  1.00  0.00     0.162 HD
HETATM    9  C13 UNL     1      23.435 -13.782 -10.150  1.00  0.00     0.135 C 
HETATM   10  C14 UNL     1      22.453 -13.604  -9.083  1.00  0.00     0.163 C 
HETATM   11  C15 UNL     1      22.650 -14.778  -8.039  1.00  0.00     0.061 C 
HETATM   12  C16 UNL     1      23.659 -13.757  -7.522  1.00  0.00     0.130 C 
HETATM   13  N7  UNL     1      22.716 -12.699  -8.024  1.00  0.00    -0.344 N 
HETATM   14  C19 UNL     1      22.158 -11.445  -7.742  1.00  0.00     0.139 C 
ENDROOT
BRANCH   1  15
HETATM   15  N4  UNL     1      19.765 -11.094  -7.785  1.00  0.00    -0.342 N 
HETATM   16  C7  UNL     1      18.794 -11.950  -8.319  1.00  0.00     0.290 C 
HETATM   17  O3  UNL     1      18.978 -12.510  -9.418  1.00  0.00    -0.264 OA
ATOM     18  H4  UNL     1      19.561 -10.648  -6.891  1.00  0.00     0.163 HD
BRANCH  16  19
HETATM   19  C6  UNL     1      17.553 -12.205  -7.618  1.00  0.00     0.249 C 
HETATM   20  O2  UNL     1      16.746 -11.237  -7.402  1.00  0.00    -0.285 OA
BRANCH  19  21
HETATM   21  C4  UNL     1      17.127 -13.540  -7.108  1.00  0.00     0.288 C 
BRANCH  21  22
HETATM   22  N3  UNL     1      18.320 -14.392  -6.968  1.00  0.00    -0.060 N 
ATOM     23  H32 UNL     1      19.094 -14.068  -7.549  1.00  0.00     0.278 HD
ATOM     24  H31 UNL     1      18.190 -15.309  -7.394  1.00  0.00     0.278 HD
BRANCH  22  25
HETATM   25  C3  UNL     1      18.687 -14.486  -5.584  1.00  0.00     0.260 C 
BRANCH  25  26
HETATM   26  C2  UNL     1      20.159 -14.469  -5.384  1.00  0.00     0.144 C 
HETATM   27  N2  UNL     1      20.589 -15.761  -4.833  1.00  0.00    -0.356 N 
HETATM   28  C1  UNL     1      20.696 -15.972  -3.580  1.00  0.00     0.186 C 
ATOM     29  H2  UNL     1      20.811 -16.520  -5.478  1.00  0.00     0.162 HD
HETATM   30  N1  UNL     1      21.119 -17.243  -3.084  1.00  0.00    -0.064 NA
HETATM   31  N9  UNL     1      20.386 -14.927  -2.677  1.00  0.00    -0.337 N 
HETATM   32  C21 UNL     1      20.545 -13.560  -3.058  1.00  0.00     0.252 C 
ATOM     33  H9  UNL     1      20.045 -15.154  -1.742  1.00  0.00     0.164 HD
HETATM   34  C20 UNL     1      20.708 -13.367  -4.547  1.00  0.00     0.255 C 
BRANCH  32  35
HETATM   35  O10 UNL     1      21.673 -12.982  -2.431  1.00  0.00    -0.375 OA
ATOM     36  H10 UNL     1      22.446 -13.394  -2.799  1.00  0.00     0.212 HD
ENDBRANCH  32  35
BRANCH  34  37
HETATM   37  N8  UNL     1      20.127 -12.088  -4.914  1.00  0.00    -0.069 N 
ATOM     38  H83 UNL     1      20.470 -11.767  -5.820  1.00  0.00     0.275 HD
ATOM     39  H82 UNL     1      19.137 -12.178  -5.143  1.00  0.00     0.275 HD
ATOM     40  H81 UNL     1      20.281 -11.389  -4.187  1.00  0.00     0.275 HD
ENDBRANCH  34  37
ENDBRANCH  25  26
ENDBRANCH  22  25
ENDBRANCH  21  22
BRANCH  21  41
HETATM   41  C5  UNL     1      16.668 -13.258  -5.669  1.00  0.00     0.205 C 
BRANCH  41  42
HETATM   42  O1  UNL     1      15.308 -13.153  -5.537  1.00  0.00    -0.398 OA
ATOM     43  H1  UNL     1      15.037 -12.538  -4.866  1.00  0.00     0.209 HD
ENDBRANCH  41  42
ENDBRANCH  21  41
ENDBRANCH  19  21
ENDBRANCH  16  19
ENDBRANCH   1  15
BRANCH  14  44
HETATM   44  O9  UNL     1      22.701 -10.797  -6.745  1.00  0.00    -0.348 OA
ATOM     45  H9  UNL     1      22.897 -11.304  -5.966  1.00  0.00     0.219 HD
ENDBRANCH  14  44
BRANCH  12  46
HETATM   46  C17 UNL     1      23.814 -13.759  -6.048  1.00  0.00     0.306 C 
BRANCH  46  47
HETATM   47  N6  UNL     1      23.875 -15.041  -5.435  1.00  0.00    -0.063 N 
ATOM     48  H63 UNL     1      22.980 -15.262  -5.000  1.00  0.00     0.275 HD
ATOM     49  H62 UNL     1      23.914 -15.766  -6.151  1.00  0.00     0.275 HD
ATOM     50  H61 UNL     1      24.631 -15.175  -4.763  1.00  0.00     0.275 HD
ENDBRANCH  46  47
BRANCH  46  51
HETATM   51  C18 UNL     1      25.116 -13.068  -5.711  1.00  0.00     0.206 C 
HETATM   52  O7  UNL     1      26.203 -13.720  -5.633  1.00  0.00    -0.646 OA
HETATM   53  O8  UNL     1      25.121 -11.711  -5.486  1.00  0.00    -0.646 OA
ENDBRANCH  46  51
ENDBRANCH  12  46
BRANCH   9  54
HETATM   54  O6  UNL     1      24.011 -14.950 -10.151  1.00  0.00    -0.348 OA
ATOM     55  H6  UNL     1      24.756 -15.000  -9.563  1.00  0.00     0.219 HD
ENDBRANCH   9  54
BRANCH   6  56
HETATM   56  C12 UNL     1      25.982 -11.790 -10.568  1.00  0.00     0.197 C 
HETATM   57  O4  UNL     1      26.310 -12.602  -9.673  1.00  0.00    -0.646 OA
HETATM   58  O5  UNL     1      26.912 -10.871 -10.989  1.00  0.00    -0.646 OA
ENDBRANCH   6  56
TORSDOF 16
ENDMDL
MODEL 2
REMARK VINA RESULT: -6.419929364      2.498      4.327
REMARK  16 active torsions:
REMARK  status: ('A' for Active; 'I' for Inactive)
REMARK    1  A    between atoms: C2_5  and  C3_6 
REMARK    2  A    between atoms: C3_6  and  N3_7 
REMARK    3  A    between atoms: N3_7  and  C4_10 
REMARK    4  A    between atoms: C4_10  and  C5_11 
REMARK    5  A    between atoms: C4_10  and  C6_14 
REMARK    6  A    between atoms: C5_11  and  O1_12 
REMARK    7  A    between atoms: C6_14  and  C7_16 
REMARK       I    between atoms: C7_16  and  N4_18 
REMARK    8  A    between atoms: N4_18  and  C8_20 
REMARK    9  A    between atoms: C11_25  and  C12_26 
REMARK   10  A    between atoms: C13_31  and  O6_32 
REMARK   11  A    between atoms: C16_36  and  C17_37 
REMARK   12  A    between atoms: C17_37  and  N6_38 
REMARK   13  A    between atoms: C17_37  and  C18_42 
REMARK   14  A    between atoms: C19_46  and  O9_47 
REMARK   15  A    between atoms: C20_49  and  N8_50 
REMARK   16  A    between atoms: C21_54  and  O10_55 
ROOT
HETATM    1  C8  UNL     1      21.753 -11.982 -10.022  1.00  0.00     0.169 C 
HETATM    2  C9  UNL     1      21.484 -10.547 -10.424  1.00  0.00     0.119 C 
HETATM    3  S1  UNL     1      22.010  -9.306  -9.286  1.00  0.00    -0.095 SA
HETATM    4  S2  UNL     1      23.341 -10.036  -7.853  1.00  0.00    -0.095 SA
HETATM    5  C10 UNL     1      24.853 -10.697  -8.501  1.00  0.00     0.122 C 
HETATM    6  C11 UNL     1      25.642 -11.514  -7.512  1.00  0.00     0.194 C 
HETATM    7  N5  UNL     1      25.537 -12.914  -7.760  1.00  0.00    -0.357 N 
ATOM      8  H5  UNL     1      26.359 -13.305  -8.219  1.00  0.00     0.162 HD
HETATM    9  C13 UNL     1      24.541 -13.865  -7.508  1.00  0.00     0.135 C 
HETATM   10  C14 UNL     1      23.204 -14.074  -8.060  1.00  0.00     0.163 C 
HETATM   11  C15 UNL     1      22.445 -15.102  -7.125  1.00  0.00     0.061 C 
HETATM   12  C16 UNL     1      22.140 -13.785  -6.418  1.00  0.00     0.130 C 
HETATM   13  N7  UNL     1      22.169 -13.147  -7.778  1.00  0.00    -0.344 N 
HETATM   14  C19 UNL     1      21.558 -12.191  -8.601  1.00  0.00     0.139 C 
ENDROOT
BRANCH   1  15
HETATM   15  N4  UNL     1      20.795 -12.749 -10.827  1.00  0.00    -0.342 N 
HETATM   16  C7  UNL     1      20.945 -14.095 -11.186  1.00  0.00     0.290 C 
HETATM   17  O3  UNL     1      21.956 -14.735 -10.836  1.00  0.00    -0.264 OA
ATOM     18  H4  UNL     1      19.958 -12.265 -11.150  1.00  0.00     0.163 HD
BRANCH  16  19
HETATM   19  C6  UNL     1      19.939 -14.777 -11.972  1.00  0.00     0.249 C 
HETATM   20  O2  UNL     1      20.202 -15.100 -13.181  1.00  0.00    -0.285 OA
BRANCH  19  21
HETATM   21  C4  UNL     1      18.580 -15.142 -11.476  1.00  0.00     0.288 C 
BRANCH  21  22
HETATM   22  N3  UNL     1      17.894 -13.914 -11.042  1.00  0.00    -0.060 N 
ATOM     23  H32 UNL     1      17.227 -13.580 -11.738  1.00  0.00     0.278 HD
ATOM     24  H31 UNL     1      18.517 -13.107 -11.036  1.00  0.00     0.278 HD
BRANCH  22  25
HETATM   25  C3  UNL     1      17.278 -14.131  -9.765  1.00  0.00     0.260 C 
BRANCH  25  26
HETATM   26  C2  UNL     1      18.191 -13.827  -8.634  1.00  0.00     0.144 C 
HETATM   27  N2  UNL     1      18.295 -15.004  -7.762  1.00  0.00    -0.356 N 
HETATM   28  C1  UNL     1      17.541 -15.177  -6.748  1.00  0.00     0.186 C 
ATOM     29  H2  UNL     1      18.998 -15.713  -7.976  1.00  0.00     0.162 HD
HETATM   30  N1  UNL     1      17.675 -16.337  -5.925  1.00  0.00    -0.064 NA
HETATM   31  N9  UNL     1      16.560 -14.203  -6.446  1.00  0.00    -0.337 N 
HETATM   32  C21 UNL     1      16.752 -12.835  -6.810  1.00  0.00     0.252 C 
ATOM     33  H9  UNL     1      15.706 -14.481  -5.962  1.00  0.00     0.164 HD
HETATM   34  C20 UNL     1      17.863 -12.630  -7.811  1.00  0.00     0.255 C 
BRANCH  32  35
HETATM   35  O10 UNL     1      17.052 -12.042  -5.677  1.00  0.00    -0.375 OA
ATOM     36  H10 UNL     1      17.813 -12.424  -5.256  1.00  0.00     0.212 HD
ENDBRANCH  32  35
BRANCH  34  37
HETATM   37  N8  UNL     1      17.528 -11.492  -8.648  1.00  0.00    -0.069 N 
ATOM     38  H83 UNL     1      18.088 -11.476  -9.501  1.00  0.00     0.275 HD
ATOM     39  H82 UNL     1      16.604 -11.596  -9.069  1.00  0.00     0.275 HD
ATOM     40  H81 UNL     1      17.607 -10.616  -8.131  1.00  0.00     0.275 HD
ENDBRANCH  34  37
ENDBRANCH  25  26
ENDBRANCH  22  25
ENDBRANCH  21  22
BRANCH  21  41
HETATM   41  C5  UNL     1      17.832 -15.591 -12.741  1.00  0.00     0.205 C 
BRANCH  41  42
HETATM   42  O1  UNL     1      17.303 -14.553 -13.463  1.00  0.00    -0.398 OA
ATOM     43  H1  UNL     1      16.599 -14.813 -14.044  1.00  0.00     0.209 HD
ENDBRANCH  41  42
ENDBRANCH  21  41
ENDBRANCH  19  21
ENDBRANCH  16  19
ENDBRANCH   1  15
BRANCH  14  44
HETATM   44  O9  UNL     1      20.705 -11.398  -8.007  1.00  0.00    -0.348 OA
ATOM     45  H9  UNL     1      20.078 -11.810  -7.425  1.00  0.00     0.219 HD
ENDBRANCH  14  44
BRANCH  12  46
HETATM   46  C17 UNL     1      20.805 -13.744  -5.775  1.00  0.00     0.306 C 
BRANCH  46  47
HETATM   47  N6  UNL     1      20.513 -14.818  -4.889  1.00  0.00    -0.063 N 
ATOM     48  H63 UNL     1      19.512 -15.012  -4.895  1.00  0.00     0.275 HD
ATOM     49  H62 UNL     1      20.870 -15.692  -5.273  1.00  0.00     0.275 HD
ATOM     50  H61 UNL     1      20.839 -14.701  -3.930  1.00  0.00     0.275 HD
ENDBRANCH  46  47
BRANCH  46  51
HETATM   51  C18 UNL     1      20.719 -12.481  -4.950  1.00  0.00     0.206 C 
HETATM   52  O7  UNL     1      20.018 -11.494  -5.333  1.00  0.00    -0.646 OA
HETATM   53  O8  UNL     1      21.413 -12.402  -3.765  1.00  0.00    -0.646 OA
ENDBRANCH  46  51
ENDBRANCH  12  46
BRANCH   9  54
HETATM   54  O6  UNL     1      24.882 -14.737  -6.603  1.00  0.00    -0.348 OA
ATOM     55  H6  UNL     1      24.865 -15.632  -6.922  1.00  0.00     0.219 HD
ENDBRANCH   9  54
BRANCH   6  56
HETATM   56  C12 UNL     1      25.467 -11.068  -6.112  1.00  0.00     0.197 C 
HETATM   57  O4  UNL     1      25.044 -11.796  -5.185  1.00  0.00    -0.646 OA
HETATM   58  O5  UNL     1      25.789  -9.764  -5.823  1.00  0.00    -0.646 OA
ENDBRANCH   6  56
TORSDOF 16
ENDMDL
MODEL 3
REMARK VINA RESULT: -6.152620121      3.095      7.661
REMARK  16 active torsions:
REMARK  status: ('A' for Active; 'I' for Inactive)
REMARK    1  A    between atoms: C2_5  and  C3_6 
REMARK    2  A    between atoms: C3_6  and  N3_7 
REMARK    3  A    between atoms: N3_7  and  C4_10 
REMARK    4  A    between atoms: C4_10  and  C5_11 
REMARK    5  A    between atoms: C4_10  and  C6_14 
REMARK    6  A    between atoms: C5_11  and  O1_12 
REMARK    7  A    between atoms: C6_14  and  C7_16 
REMARK       I    between atoms: C7_16  and  N4_18 
REMARK    8  A    between atoms: N4_18  and  C8_20 
REMARK    9  A    between atoms: C11_25  and  C12_26 
REMARK   10  A    between atoms: C13_31  and  O6_32 
REMARK   11  A    between atoms: C16_36  and  C17_37 
REMARK   12  A    between atoms: C17_37  and  N6_38 
REMARK   13  A    between atoms: C17_37  and  C18_42 
REMARK   14  A    between atoms: C19_46  and  O9_47 
REMARK   15  A    between atoms: C20_49  and  N8_50 
REMARK   16  A    between atoms: C21_54  and  O10_55 
ROOT
HETATM    1  C8  UNL     1      20.790 -14.501  -8.528  1.00  0.00     0.169 C 
HETATM    2  C9  UNL     1      20.866 -15.300  -9.812  1.00  0.00     0.119 C 
HETATM    3  S1  UNL     1      19.433 -16.243 -10.230  1.00  0.00    -0.095 SA
HETATM    4  S2  UNL     1      17.747 -15.675  -9.139  1.00  0.00    -0.095 SA
HETATM    5  C10 UNL     1      17.238 -13.992  -9.365  1.00  0.00     0.122 C 
HETATM    6  C11 UNL     1      16.249 -13.505  -8.338  1.00  0.00     0.194 C 
HETATM    7  N5  UNL     1      16.851 -12.643  -7.374  1.00  0.00    -0.357 N 
ATOM      8  H5  UNL     1      16.650 -11.656  -7.535  1.00  0.00     0.162 HD
HETATM    9  C13 UNL     1      17.660 -12.867  -6.254  1.00  0.00     0.135 C 
HETATM   10  C14 UNL     1      19.035 -13.336  -6.100  1.00  0.00     0.163 C 
HETATM   11  C15 UNL     1      19.258 -13.703  -4.576  1.00  0.00     0.061 C 
HETATM   12  C16 UNL     1      18.683 -15.011  -5.109  1.00  0.00     0.130 C 
HETATM   13  N7  UNL     1      19.362 -14.681  -6.408  1.00  0.00    -0.344 N 
HETATM   14  C19 UNL     1      20.079 -15.217  -7.486  1.00  0.00     0.139 C 
ENDROOT
BRANCH   1  15
HETATM   15  N4  UNL     1      22.198 -14.278  -8.180  1.00  0.00    -0.342 N 
HETATM   16  C7  UNL     1      23.008 -13.271  -8.720  1.00  0.00     0.290 C 
HETATM   17  O3  UNL     1      22.556 -12.487  -9.577  1.00  0.00    -0.264 OA
ATOM     18  H4  UNL     1      22.618 -14.903  -7.492  1.00  0.00     0.163 HD
BRANCH  16  19
HETATM   19  C6  UNL     1      24.386 -13.115  -8.305  1.00  0.00     0.249 C 
HETATM   20  O2  UNL     1      25.231 -14.035  -8.582  1.00  0.00    -0.285 OA
BRANCH  19  21
HETATM   21  C4  UNL     1      24.918 -11.940  -7.556  1.00  0.00     0.288 C 
BRANCH  21  22
HETATM   22  N3  UNL     1      23.785 -11.209  -6.965  1.00  0.00    -0.060 N 
ATOM     23  H32 UNL     1      23.849 -11.158  -5.949  1.00  0.00     0.278 HD
ATOM     24  H31 UNL     1      22.913 -11.733  -7.032  1.00  0.00     0.278 HD
BRANCH  22  25
HETATM   25  C3  UNL     1      23.683  -9.910  -7.566  1.00  0.00     0.260 C 
BRANCH  25  26
HETATM   26  C2  UNL     1      22.390  -9.244  -7.264  1.00  0.00     0.144 C 
HETATM   27  N2  UNL     1      21.294 -10.204  -7.449  1.00  0.00    -0.356 N 
HETATM   28  C1  UNL     1      20.663 -10.322  -8.551  1.00  0.00     0.186 C 
ATOM     29  H2  UNL     1      21.027 -10.801  -6.666  1.00  0.00     0.162 HD
HETATM   30  N1  UNL     1      19.602 -11.268  -8.690  1.00  0.00    -0.064 NA
HETATM   31  N9  UNL     1      21.029  -9.503  -9.645  1.00  0.00    -0.337 N 
HETATM   32  C21 UNL     1      21.603  -8.213  -9.432  1.00  0.00     0.252 C 
ATOM     33  H9  UNL     1      20.880  -9.837 -10.597  1.00  0.00     0.164 HD
HETATM   34  C20 UNL     1      22.088  -7.997  -8.018  1.00  0.00     0.255 C 
BRANCH  32  35
HETATM   35  O10 UNL     1      20.676  -7.185  -9.723  1.00  0.00    -0.375 OA
ATOM     36  H10 UNL     1      20.944  -6.414  -9.237  1.00  0.00     0.212 HD
ENDBRANCH  32  35
BRANCH  34  37
HETATM   37  N8  UNL     1      23.237  -7.110  -8.052  1.00  0.00    -0.069 N 
ATOM     38  H83 UNL     1      24.089  -7.611  -8.306  1.00  0.00     0.275 HD
ATOM     39  H82 UNL     1      23.190  -6.468  -8.843  1.00  0.00     0.275 HD
ATOM     40  H81 UNL     1      23.345  -6.611  -7.170  1.00  0.00     0.275 HD
ENDBRANCH  34  37
ENDBRANCH  25  26
ENDBRANCH  22  25
ENDBRANCH  21  22
BRANCH  21  41
HETATM   41  C5  UNL     1      25.656 -12.565  -6.362  1.00  0.00     0.205 C 
BRANCH  41  42
HETATM   42  O1  UNL     1      25.211 -12.115  -5.146  1.00  0.00    -0.398 OA
ATOM     43  H1  UNL     1      25.412 -11.201  -4.982  1.00  0.00     0.209 HD
ENDBRANCH  41  42
ENDBRANCH  21  41
ENDBRANCH  19  21
ENDBRANCH  16  19
ENDBRANCH   1  15
BRANCH  14  44
HETATM   44  O9  UNL     1      20.110 -16.522  -7.551  1.00  0.00    -0.348 OA
ATOM     45  H9  UNL     1      20.744 -16.901  -8.148  1.00  0.00     0.219 HD
ENDBRANCH  14  44
BRANCH  12  46
HETATM   46  C17 UNL     1      19.230 -16.221  -4.448  1.00  0.00     0.306 C 
BRANCH  46  47
HETATM   47  N6  UNL     1      19.410 -16.126  -3.040  1.00  0.00    -0.063 N 
ATOM     48  H63 UNL     1      18.708 -15.504  -2.640  1.00  0.00     0.275 HD
ATOM     49  H62 UNL     1      19.147 -17.006  -2.597  1.00  0.00     0.275 HD
ATOM     50  H61 UNL     1      20.340 -15.845  -2.730  1.00  0.00     0.275 HD
ENDBRANCH  46  47
BRANCH  46  51
HETATM   51  C18 UNL     1      18.260 -17.358  -4.673  1.00  0.00     0.206 C 
HETATM   52  O7  UNL     1      17.918 -18.127  -3.722  1.00  0.00    -0.646 OA
HETATM   53  O8  UNL     1      17.742 -17.562  -5.931  1.00  0.00    -0.646 OA
ENDBRANCH  46  51
ENDBRANCH  12  46
BRANCH   9  54
HETATM   54  O6  UNL     1      17.064 -12.595  -5.128  1.00  0.00    -0.348 OA
ATOM     55  H6  UNL     1      17.313 -11.752  -4.768  1.00  0.00     0.219 HD
ENDBRANCH   9  54
BRANCH   6  56
HETATM   56  C12 UNL     1      15.366 -14.574  -7.821  1.00  0.00     0.197 C 
HETATM   57  O4  UNL     1      15.429 -15.044  -6.662  1.00  0.00    -0.646 OA
HETATM   58  O5  UNL     1      14.422 -15.079  -8.680  1.00  0.00    -0.646 OA
ENDBRANCH   6  56
TORSDOF 16
ENDMDL
MODEL 4
REMARK VINA RESULT: -6.151088304      3.222      7.487
REMARK  16 active torsions:
REMARK  status: ('A' for Active; 'I' for Inactive)
REMARK    1  A    between atoms: C2_5  and  C3_6 
REMARK    2  A    between atoms: C3_6  and  N3_7 
REMARK    3  A    between atoms: N3_7  and  C4_10 
REMARK    4  A    between atoms: C4_10  and  C5_11 
REMARK    5  A    between atoms: C4_10  and  C6_14 
REMARK    6  A    between atoms: C5_11  and  O1_12 
REMARK    7  A    between atoms: C6_14  and  C7_16 
REMARK       I    between atoms: C7_16  and  N4_18 
REMARK    8  A    between atoms: N4_18  and  C8_20 
REMARK    9  A    between atoms: C11_25  and  C12_26 
REMARK   10  A    between atoms: C13_31  and  O6_32 
REMARK   11  A    between atoms: C16_36  and  C17_37 
REMARK   12  A    between atoms: C17_37  and  N6_38 
REMARK   13  A    between atoms: C17_37  and  C18_42 
REMARK   14  A    between atoms: C19_46  and  O9_47 
REMARK   15  A    between atoms: C20_49  and  N8_50 
REMARK   16  A    between atoms: C21_54  and  O10_55 
ROOT
HETATM    1  C8  UNL     1      19.737 -13.577 -10.293  1.00  0.00     0.169 C 
HETATM    2  C9  UNL     1      18.786 -14.136 -11.331  1.00  0.00     0.119 C 
HETATM    3  S1  UNL     1      17.335 -14.928 -10.713  1.00  0.00    -0.095 SA
HETATM    4  S2  UNL     1      16.973 -14.495  -8.703  1.00  0.00    -0.095 SA
HETATM    5  C10 UNL     1      16.717 -12.779  -8.340  1.00  0.00     0.122 C 
HETATM    6  C11 UNL     1      16.794 -12.442  -6.873  1.00  0.00     0.194 C 
HETATM    7  N5  UNL     1      18.017 -11.792  -6.531  1.00  0.00    -0.357 N 
ATOM      8  H5  UNL     1      17.916 -10.785  -6.406  1.00  0.00     0.162 HD
HETATM    9  C13 UNL     1      19.326 -12.247  -6.332  1.00  0.00     0.135 C 
HETATM   10  C14 UNL     1      20.336 -12.793  -7.235  1.00  0.00     0.163 C 
HETATM   11  C15 UNL     1      21.483 -13.435  -6.352  1.00  0.00     0.061 C 
HETATM   12  C16 UNL     1      20.506 -14.602  -6.454  1.00  0.00     0.130 C 
HETATM   13  N7  UNL     1      20.148 -14.073  -7.814  1.00  0.00    -0.344 N 
HETATM   14  C19 UNL     1      19.835 -14.437  -9.130  1.00  0.00     0.139 C 
ENDROOT
BRANCH   1  15
HETATM   15  N4  UNL     1      21.011 -13.479 -11.014  1.00  0.00    -0.342 N 
HETATM   16  C7  UNL     1      21.431 -12.365 -11.754  1.00  0.00     0.290 C 
HETATM   17  O3  UNL     1      20.700 -11.360 -11.855  1.00  0.00    -0.264 OA
ATOM     18  H4  UNL     1      21.639 -14.282 -10.974  1.00  0.00     0.163 HD
BRANCH  16  19
HETATM   19  C6  UNL     1      22.715 -12.351 -12.422  1.00  0.00     0.249 C 
HETATM   20  O2  UNL     1      22.957 -13.218 -13.331  1.00  0.00    -0.285 OA
BRANCH  19  21
HETATM   21  C4  UNL     1      23.812 -11.385 -12.128  1.00  0.00     0.288 C 
BRANCH  21  22
HETATM   22  N3  UNL     1      24.311 -11.641 -10.766  1.00  0.00    -0.060 N 
ATOM     23  H32 UNL     1      25.283 -11.950 -10.764  1.00  0.00     0.278 HD
ATOM     24  H31 UNL     1      23.891 -12.473 -10.354  1.00  0.00     0.278 HD
BRANCH  22  25
HETATM   25  C3  UNL     1      24.114 -10.476  -9.953  1.00  0.00     0.260 C 
BRANCH  25  26
HETATM   26  C2  UNL     1      22.888 -10.565  -9.119  1.00  0.00     0.144 C 
HETATM   27  N2  UNL     1      21.899  -9.593  -9.602  1.00  0.00    -0.356 N 
HETATM   28  C1  UNL     1      21.806  -8.414  -9.126  1.00  0.00     0.186 C 
ATOM     29  H2  UNL     1      21.261  -9.872 -10.348  1.00  0.00     0.162 HD
HETATM   30  N1  UNL     1      20.829  -7.498  -9.624  1.00  0.00    -0.064 NA
HETATM   31  N9  UNL     1      22.688  -8.016  -8.095  1.00  0.00    -0.337 N 
HETATM   32  C21 UNL     1      23.230  -8.975  -7.186  1.00  0.00     0.252 C 
ATOM     33  H9  UNL     1      22.941  -7.032  -7.999  1.00  0.00     0.164 HD
HETATM   34  C20 UNL     1      23.065 -10.403  -7.649  1.00  0.00     0.255 C 
BRANCH  32  35
HETATM   35  O10 UNL     1      22.624  -8.871  -5.912  1.00  0.00    -0.375 OA
ATOM     36  H10 UNL     1      21.815  -8.386  -6.021  1.00  0.00     0.212 HD
ENDBRANCH  32  35
BRANCH  34  37
HETATM   37  N8  UNL     1      24.190 -11.181  -7.165  1.00  0.00    -0.069 N 
ATOM     38  H83 UNL     1      23.969 -12.176  -7.126  1.00  0.00     0.275 HD
ATOM     39  H82 UNL     1      24.945 -11.214  -7.851  1.00  0.00     0.275 HD
ATOM     40  H81 UNL     1      24.518 -10.835  -6.263  1.00  0.00     0.275 HD
ENDBRANCH  34  37
ENDBRANCH  25  26
ENDBRANCH  22  25
ENDBRANCH  21  22
BRANCH  21  41
HETATM   41  C5  UNL     1      24.953 -11.824 -13.059  1.00  0.00     0.205 C 
BRANCH  41  42
HETATM   42  O1  UNL     1      24.977 -11.152 -14.253  1.00  0.00    -0.398 OA
ATOM     43  H1  UNL     1      25.795 -10.699 -14.418  1.00  0.00     0.209 HD
ENDBRANCH  41  42
ENDBRANCH  21  41
ENDBRANCH  19  21
ENDBRANCH  16  19
ENDBRANCH   1  15
BRANCH  14  44
HETATM   44  O9  UNL     1      19.611 -15.710  -9.326  1.00  0.00    -0.348 OA
ATOM     45  H9  UNL     1      19.674 -16.273  -8.564  1.00  0.00     0.219 HD
ENDBRANCH  14  44
BRANCH  12  46
HETATM   46  C17 UNL     1      21.161 -15.932  -6.490  1.00  0.00     0.306 C 
BRANCH  46  47
HETATM   47  N6  UNL     1      22.258 -16.104  -5.602  1.00  0.00    -0.063 N 
ATOM     48  H63 UNL     1      21.962 -15.923  -4.643  1.00  0.00     0.275 HD
ATOM     49  H62 UNL     1      22.500 -17.092  -5.536  1.00  0.00     0.275 HD
ATOM     50  H61 UNL     1      23.092 -15.556  -5.817  1.00  0.00     0.275 HD
ENDBRANCH  46  47
BRANCH  46  51
HETATM   51  C18 UNL     1      20.135 -16.971  -6.098  1.00  0.00     0.206 C 
HETATM   52  O7  UNL     1      19.099 -17.169  -6.806  1.00  0.00    -0.646 OA
HETATM   53  O8  UNL     1      20.330 -17.713  -4.956  1.00  0.00    -0.646 OA
ENDBRANCH  46  51
ENDBRANCH  12  46
BRANCH   9  54
HETATM   54  O6  UNL     1      19.716 -12.156  -5.092  1.00  0.00    -0.348 OA
ATOM     55  H6  UNL     1      20.553 -12.576  -4.933  1.00  0.00     0.219 HD
ENDBRANCH   9  54
BRANCH   6  56
HETATM   56  C12 UNL     1      16.356 -13.548  -5.994  1.00  0.00     0.197 C 
HETATM   57  O4  UNL     1      17.104 -14.464  -5.584  1.00  0.00    -0.646 OA
HETATM   58  O5  UNL     1      15.036 -13.563  -5.613  1.00  0.00    -0.646 OA
ENDBRANCH   6  56
TORSDOF 16
ENDMDL
MODEL 5
REMARK VINA RESULT: -6.113267303      2.666      5.249
REMARK  16 active torsions:
REMARK  status: ('A' for Active; 'I' for Inactive)
REMARK    1  A    between atoms: C2_5  and  C3_6 
REMARK    2  A    between atoms: C3_6  and  N3_7 
REMARK    3  A    between atoms: N3_7  and  C4_10 
REMARK    4  A    between atoms: C4_10  and  C5_11 
REMARK    5  A    between atoms: C4_10  and  C6_14 
REMARK    6  A    between atoms: C5_11  and  O1_12 
REMARK    7  A    between atoms: C6_14  and  C7_16 
REMARK       I    between atoms: C7_16  and  N4_18 
REMARK    8  A    between atoms: N4_18  and  C8_20 
REMARK    9  A    between atoms: C11_25  and  C12_26 
REMARK   10  A    between atoms: C13_31  and  O6_32 
REMARK   11  A    between atoms: C16_36  and  C17_37 
REMARK   12  A    between atoms: C17_37  and  N6_38 
REMARK   13  A    between atoms: C17_37  and  C18_42 
REMARK   14  A    between atoms: C19_46  and  O9_47 
REMARK   15  A    between atoms: C20_49  and  N8_50 
REMARK   16  A    between atoms: C21_54  and  O10_55 
ROOT
HETATM    1  C8  UNL     1      23.389 -12.550  -6.319  1.00  0.00     0.169 C 
HETATM    2  C9  UNL     1      24.555 -13.423  -5.904  1.00  0.00     0.119 C 
HETATM    3  S1  UNL     1      26.001 -13.323  -6.911  1.00  0.00    -0.095 SA
HETATM    4  S2  UNL     1      25.994 -11.659  -8.170  1.00  0.00    -0.095 SA
HETATM    5  C10 UNL     1      25.936 -10.092  -7.343  1.00  0.00     0.122 C 
HETATM    6  C11 UNL     1      25.594  -8.933  -8.243  1.00  0.00     0.194 C 
HETATM    7  N5  UNL     1      24.251  -8.487  -8.064  1.00  0.00    -0.357 N 
ATOM      8  H5  UNL     1      24.180  -7.633  -7.510  1.00  0.00     0.162 HD
HETATM    9  C13 UNL     1      23.009  -8.975  -8.488  1.00  0.00     0.135 C 
HETATM   10  C14 UNL     1      22.236 -10.163  -8.135  1.00  0.00     0.163 C 
HETATM   11  C15 UNL     1      21.080 -10.328  -9.205  1.00  0.00     0.061 C 
HETATM   12  C16 UNL     1      22.225 -11.061  -9.898  1.00  0.00     0.130 C 
HETATM   13  N7  UNL     1      22.696 -11.447  -8.524  1.00  0.00    -0.344 N 
HETATM   14  C19 UNL     1      23.250 -12.482  -7.760  1.00  0.00     0.139 C 
ENDROOT
BRANCH   1  15
HETATM   15  N4  UNL     1      22.235 -13.197  -5.684  1.00  0.00    -0.342 N 
HETATM   16  C7  UNL     1      21.126 -12.522  -5.158  1.00  0.00     0.290 C 
HETATM   17  O3  UNL     1      21.069 -11.277  -5.190  1.00  0.00    -0.264 OA
ATOM     18  H4  UNL     1      22.241 -14.215  -5.621  1.00  0.00     0.163 HD
BRANCH  16  19
HETATM   19  C6  UNL     1      20.022 -13.245  -4.563  1.00  0.00     0.249 C 
HETATM   20  O2  UNL     1      20.200 -13.856  -3.453  1.00  0.00    -0.285 OA
BRANCH  19  21
HETATM   21  C4  UNL     1      18.657 -13.344  -5.154  1.00  0.00     0.288 C 
BRANCH  21  22
HETATM   22  N3  UNL     1      18.585 -12.451  -6.323  1.00  0.00    -0.060 N 
ATOM     23  H32 UNL     1      19.458 -11.946  -6.475  1.00  0.00     0.278 HD
ATOM     24  H31 UNL     1      17.979 -11.649  -6.156  1.00  0.00     0.278 HD
BRANCH  22  25
HETATM   25  C3  UNL     1      18.186 -13.200  -7.479  1.00  0.00     0.260 C 
BRANCH  25  26
HETATM   26  C2  UNL     1      16.885 -12.743  -8.031  1.00  0.00     0.144 C 
HETATM   27  N2  UNL     1      15.864 -12.797  -6.977  1.00  0.00    -0.356 N 
HETATM   28  C1  UNL     1      15.118 -13.815  -6.795  1.00  0.00     0.186 C 
ATOM     29  H2  UNL     1      15.747 -11.988  -6.366  1.00  0.00     0.162 HD
HETATM   30  N1  UNL     1      14.135 -13.827  -5.758  1.00  0.00    -0.064 NA
HETATM   31  N9  UNL     1      15.276 -14.943  -7.634  1.00  0.00    -0.337 N 
HETATM   32  C21 UNL     1      15.756 -14.798  -8.971  1.00  0.00     0.252 C 
ATOM     33  H9  UNL     1      15.044 -15.871  -7.279  1.00  0.00     0.164 HD
HETATM   34  C20 UNL     1      16.385 -13.453  -9.241  1.00  0.00     0.255 C 
BRANCH  32  35
HETATM   35  O10 UNL     1      14.713 -14.974  -9.910  1.00  0.00    -0.375 OA
ATOM     36  H10 UNL     1      13.933 -14.569  -9.548  1.00  0.00     0.212 HD
ENDBRANCH  32  35
BRANCH  34  37
HETATM   37  N8  UNL     1      17.439 -13.624 -10.224  1.00  0.00    -0.069 N 
ATOM     38  H83 UNL     1      18.194 -12.950 -10.086  1.00  0.00     0.275 HD
ATOM     39  H82 UNL     1      17.965 -14.483 -10.065  1.00  0.00     0.275 HD
ATOM     40  H81 UNL     1      17.070 -13.582 -11.174  1.00  0.00     0.275 HD
ENDBRANCH  34  37
ENDBRANCH  25  26
ENDBRANCH  22  25
ENDBRANCH  21  22
BRANCH  21  41
HETATM   41  C5  UNL     1      18.606 -14.766  -5.736  1.00  0.00     0.205 C 
BRANCH  41  42
HETATM   42  O1  UNL     1      18.238 -15.719  -4.823  1.00  0.00    -0.398 OA
ATOM     43  H1  UNL     1      18.711 -16.537  -4.915  1.00  0.00     0.209 HD
ENDBRANCH  41  42
ENDBRANCH  21  41
ENDBRANCH  19  21
ENDBRANCH  16  19
ENDBRANCH   1  15
BRANCH  14  44
HETATM   44  O9  UNL     1      23.688 -13.511  -8.437  1.00  0.00    -0.348 OA
ATOM     45  H9  UNL     1      24.271 -13.324  -9.163  1.00  0.00     0.219 HD
ENDBRANCH  14  44
BRANCH  12  46
HETATM   46  C17 UNL     1      21.788 -12.216 -10.719  1.00  0.00     0.306 C 
BRANCH  46  47
HETATM   47  N6  UNL     1      20.581 -12.034 -11.448  1.00  0.00    -0.063 N 
ATOM     48  H63 UNL     1      19.784 -12.054 -10.812  1.00  0.00     0.275 HD
ATOM     49  H62 UNL     1      20.520 -11.074 -11.785  1.00  0.00     0.275 HD
ATOM     50  H61 UNL     1      20.426 -12.684 -12.219  1.00  0.00     0.275 HD
ENDBRANCH  46  47
BRANCH  46  51
HETATM   51  C18 UNL     1      22.862 -12.495 -11.746  1.00  0.00     0.206 C 
HETATM   52  O7  UNL     1      23.828 -13.279 -11.487  1.00  0.00    -0.646 OA
HETATM   53  O8  UNL     1      22.790 -11.889 -12.978  1.00  0.00    -0.646 OA
ENDBRANCH  46  51
ENDBRANCH  12  46
BRANCH   9  54
HETATM   54  O6  UNL     1      22.431  -8.208  -9.368  1.00  0.00    -0.348 OA
ATOM     55  H6  UNL     1      22.363  -8.611 -10.226  1.00  0.00     0.219 HD
ENDBRANCH   9  54
BRANCH   6  56
HETATM   56  C12 UNL     1      26.058  -9.116  -9.636  1.00  0.00     0.197 C 
HETATM   57  O4  UNL     1      25.515  -9.878 -10.467  1.00  0.00    -0.646 OA
HETATM   58  O5  UNL     1      27.162  -8.399 -10.029  1.00  0.00    -0.646 OA
ENDBRANCH   6  56
TORSDOF 16
ENDMDL
