MODEL 1
REMARK VINA RESULT: -7.145544893      0.000      0.000
REMARK  16 active torsions:
REMARK  status: ('A' for Active; 'I' for Inactive)
REMARK    1  A    between atoms: S1_2  and  N1_5 
REMARK       I    between atoms: N1_5  and  C2_7 
REMARK    2  A    between atoms: C2_7  and  C3_9 
REMARK    3  A    between atoms: C4_12  and  C5_13 
REMARK    4  A    between atoms: C5_13  and  N3_14 
REMARK    5  A    between atoms: N3_14  and  C6_16 
REMARK    6  A    between atoms: C6_16  and  C7_17 
REMARK    7  A    between atoms: C6_16  and  C12_28 
REMARK    8  A    between atoms: C7_17  and  N4_18 
REMARK       I    between atoms: N4_18  and  C8_20 
REMARK    9  A    between atoms: C8_20  and  C9_22 
REMARK   10  A    between atoms: C12_28  and  C13_29 
REMARK   11  A    between atoms: C12_28  and  N7_32 
REMARK   12  A    between atoms: C14_33  and  O7_34 
REMARK   13  A    between atoms: C17_38  and  O8_39 
REMARK   14  A    between atoms: C18_41  and  O9_42 
REMARK   15  A    between atoms: C19_44  and  O10_45 
REMARK   16  A    between atoms: C22_52  and  O12_53 
ROOT
HETATM    1  C5  UNL     1      22.009  -9.978  -6.820  1.00  0.00     0.151 C 
ENDROOT
BRANCH   1   2
HETATM    2  C4  UNL     1      21.084 -11.050  -7.292  1.00  0.00     0.205 C 
HETATM    3  O4  UNL     1      19.993 -10.299  -7.879  1.00  0.00    -0.275 OA
HETATM    4  N2  UNL     1      19.300 -11.131  -8.648  1.00  0.00    -0.082 NA
HETATM    5  C3  UNL     1      18.438 -11.945  -7.776  1.00  0.00     0.246 C 
HETATM    6  C22 UNL     1      19.254 -12.701  -6.824  1.00  0.00     0.203 C 
HETATM    7  C18 UNL     1      20.500 -11.968  -6.294  1.00  0.00     0.156 C 
HETATM    8  C21 UNL     1      18.558 -13.050  -5.542  1.00  0.00     0.258 C 
HETATM    9  C19 UNL     1      21.394 -13.021  -5.745  1.00  0.00     0.176 C 
HETATM   10  C20 UNL     1      20.765 -13.792  -4.623  1.00  0.00     0.157 C 
HETATM   11  N8  UNL     1      19.317 -13.843  -4.647  1.00  0.00    -0.356 N 
ATOM     12  H8  UNL     1      18.831 -14.467  -4.003  1.00  0.00     0.162 HD
HETATM   13  O11 UNL     1      17.431 -12.673  -5.297  1.00  0.00    -0.270 OA
BRANCH   5  14
HETATM   14  C2  UNL     1      17.618 -12.761  -8.678  1.00  0.00     0.256 C 
HETATM   15  N1  UNL     1      16.462 -13.495  -8.413  1.00  0.00    -0.253 N 
ATOM     16  H1  UNL     1      16.092 -13.522  -7.463  1.00  0.00     0.181 HD
HETATM   17  O3  UNL     1      18.009 -12.815  -9.916  1.00  0.00    -0.270 OA
BRANCH  15  18
HETATM   18  S1  UNL     1      15.633 -14.372  -9.690  1.00  0.00     0.229 S 
HETATM   19  C1  UNL     1      16.555 -15.866 -10.043  1.00  0.00     0.186 C 
HETATM   20  O1  UNL     1      14.267 -14.694  -9.176  1.00  0.00    -0.206 OA
HETATM   21  O2  UNL     1      15.522 -13.536 -10.922  1.00  0.00    -0.206 OA
ENDBRANCH  15  18
ENDBRANCH   5  14
BRANCH   6  22
HETATM   22  O12 UNL     1      19.640 -13.923  -7.398  1.00  0.00    -0.375 OA
ATOM     23  H12 UNL     1      18.872 -14.462  -7.548  1.00  0.00     0.211 HD
ENDBRANCH   6  22
BRANCH   7  24
HETATM   24  O9  UNL     1      19.993 -11.237  -5.179  1.00  0.00    -0.381 OA
ATOM     25  H9  UNL     1      19.081 -11.011  -5.316  1.00  0.00     0.211 HD
ENDBRANCH   7  24
BRANCH   9  26
HETATM   26  O10 UNL     1      21.876 -13.920  -6.689  1.00  0.00    -0.391 OA
ATOM     27  H10 UNL     1      22.065 -14.787  -6.349  1.00  0.00     0.210 HD
ENDBRANCH   9  26
ENDBRANCH   1   2
BRANCH   1  28
HETATM   28  N3  UNL     1      22.897  -9.442  -7.819  1.00  0.00    -0.410 N 
ATOM     29  H3  UNL     1      23.081  -8.443  -7.911  1.00  0.00     0.153 HD
BRANCH  28  30
HETATM   30  C6  UNL     1      23.505 -10.422  -8.676  1.00  0.00     0.126 C 
BRANCH  30  31
HETATM   31  C7  UNL     1      22.905 -10.176 -10.049  1.00  0.00     0.149 C 
BRANCH  31  32
HETATM   32  N4  UNL     1      21.933 -11.094 -10.504  1.00  0.00    -0.357 N 
HETATM   33  C8  UNL     1      21.989 -11.706 -11.805  1.00  0.00     0.248 C 
HETATM   34  O5  UNL     1      22.954 -11.379 -12.533  1.00  0.00    -0.271 OA
ATOM     35  H4  UNL     1      21.159 -11.334  -9.884  1.00  0.00     0.162 HD
BRANCH  33  36
HETATM   36  C9  UNL     1      20.937 -12.690 -12.246  1.00  0.00     0.278 C 
HETATM   37  C10 UNL     1      20.873 -13.879 -11.321  1.00  0.00     0.070 C 
HETATM   38  C11 UNL     1      20.997 -14.691 -12.569  1.00  0.00     0.236 C 
HETATM   39  N5  UNL     1      21.489 -13.530 -13.266  1.00  0.00    -0.062 N 
ATOM     40  H52 UNL     1      21.241 -13.378 -14.244  1.00  0.00     0.278 HD
ATOM     41  H51 UNL     1      22.477 -13.459 -13.508  1.00  0.00     0.278 HD
ENDBRANCH  33  36
ENDBRANCH  31  32
ENDBRANCH  30  31
BRANCH  30  42
HETATM   42  C12 UNL     1      24.973 -10.479  -8.774  1.00  0.00     0.207 C 
BRANCH  42  43
HETATM   43  C13 UNL     1      25.692  -9.211  -8.880  1.00  0.00     0.256 C 
HETATM   44  N6  UNL     1      26.577  -9.027 -10.006  1.00  0.00    -0.060 NA
HETATM   45  O6  UNL     1      25.644  -8.233  -8.106  1.00  0.00    -0.274 OA
ENDBRANCH  42  43
BRANCH  42  46
HETATM   46  N7  UNL     1      25.566 -11.409  -7.806  1.00  0.00    -0.293 N 
HETATM   47  C14 UNL     1      26.099 -12.625  -8.027  1.00  0.00     0.144 A 
HETATM   48  C15 UNL     1      26.541 -13.184  -6.870  1.00  0.00     0.060 A 
HETATM   49  C16 UNL     1      26.281 -12.288  -5.877  1.00  0.00     0.060 A 
HETATM   50  C17 UNL     1      25.669 -11.188  -6.493  1.00  0.00     0.144 A 
BRANCH  47  51
HETATM   51  O7  UNL     1      26.182 -13.224  -9.273  1.00  0.00    -0.346 OA
ATOM     52  H7  UNL     1      25.715 -14.014  -9.518  1.00  0.00     0.219 HD
ENDBRANCH  47  51
BRANCH  50  53
HETATM   53  O8  UNL     1      25.281 -10.101  -5.727  1.00  0.00    -0.346 OA
ATOM     54  H8  UNL     1      25.677  -9.715  -4.954  1.00  0.00     0.219 HD
ENDBRANCH  50  53
ENDBRANCH  42  46
ENDBRANCH  30  42
ENDBRANCH  28  30
ENDBRANCH   1  28
TORSDOF 16
ENDMDL
MODEL 2
REMARK VINA RESULT: -7.132738661      0.025      1.173
REMARK  16 active torsions:
REMARK  status: ('A' for Active; 'I' for Inactive)
REMARK    1  A    between atoms: S1_2  and  N1_5 
REMARK       I    between atoms: N1_5  and  C2_7 
REMARK    2  A    between atoms: C2_7  and  C3_9 
REMARK    3  A    between atoms: C4_12  and  C5_13 
REMARK    4  A    between atoms: C5_13  and  N3_14 
REMARK    5  A    between atoms: N3_14  and  C6_16 
REMARK    6  A    between atoms: C6_16  and  C7_17 
REMARK    7  A    between atoms: C6_16  and  C12_28 
REMARK    8  A    between atoms: C7_17  and  N4_18 
REMARK       I    between atoms: N4_18  and  C8_20 
REMARK    9  A    between atoms: C8_20  and  C9_22 
REMARK   10  A    between atoms: C12_28  and  C13_29 
REMARK   11  A    between atoms: C12_28  and  N7_32 
REMARK   12  A    between atoms: C14_33  and  O7_34 
REMARK   13  A    between atoms: C17_38  and  O8_39 
REMARK   14  A    between atoms: C18_41  and  O9_42 
REMARK   15  A    between atoms: C19_44  and  O10_45 
REMARK   16  A    between atoms: C22_52  and  O12_53 
ROOT
HETATM    1  C5  UNL     1      22.012  -9.984  -6.821  1.00  0.00     0.151 C 
ENDROOT
BRANCH   1   2
HETATM    2  C4  UNL     1      21.086 -11.056  -7.293  1.00  0.00     0.205 C 
HETATM    3  O4  UNL     1      19.996 -10.305  -7.882  1.00  0.00    -0.275 OA
HETATM    4  N2  UNL     1      19.303 -11.137  -8.650  1.00  0.00    -0.082 NA
HETATM    5  C3  UNL     1      18.440 -11.949  -7.778  1.00  0.00     0.246 C 
HETATM    6  C22 UNL     1      19.254 -12.705  -6.825  1.00  0.00     0.203 C 
HETATM    7  C18 UNL     1      20.501 -11.973  -6.295  1.00  0.00     0.156 C 
HETATM    8  C21 UNL     1      18.558 -13.053  -5.543  1.00  0.00     0.258 C 
HETATM    9  C19 UNL     1      21.394 -13.025  -5.744  1.00  0.00     0.176 C 
HETATM   10  C20 UNL     1      20.763 -13.796  -4.622  1.00  0.00     0.157 C 
HETATM   11  N8  UNL     1      19.315 -13.846  -4.647  1.00  0.00    -0.356 N 
ATOM     12  H8  UNL     1      18.829 -14.469  -4.003  1.00  0.00     0.162 HD
HETATM   13  O11 UNL     1      17.431 -12.675  -5.300  1.00  0.00    -0.270 OA
BRANCH   5  14
HETATM   14  C2  UNL     1      17.620 -12.766  -8.680  1.00  0.00     0.256 C 
HETATM   15  N1  UNL     1      16.466 -13.503  -8.414  1.00  0.00    -0.253 N 
ATOM     16  H1  UNL     1      16.098 -13.533  -7.464  1.00  0.00     0.181 HD
HETATM   17  O3  UNL     1      18.009 -12.817  -9.919  1.00  0.00    -0.270 OA
BRANCH  15  18
HETATM   18  S1  UNL     1      15.637 -14.380  -9.692  1.00  0.00     0.229 S 
HETATM   19  C1  UNL     1      16.571 -15.863 -10.061  1.00  0.00     0.186 C 
HETATM   20  O1  UNL     1      14.278 -14.719  -9.170  1.00  0.00    -0.206 OA
HETATM   21  O2  UNL     1      15.509 -13.537 -10.917  1.00  0.00    -0.206 OA
ENDBRANCH  15  18
ENDBRANCH   5  14
BRANCH   6  22
HETATM   22  O12 UNL     1      19.640 -13.928  -7.398  1.00  0.00    -0.375 OA
ATOM     23  H12 UNL     1      20.587 -13.974  -7.446  1.00  0.00     0.211 HD
ENDBRANCH   6  22
BRANCH   7  24
HETATM   24  O9  UNL     1      19.994 -11.241  -5.180  1.00  0.00    -0.381 OA
ATOM     25  H9  UNL     1      19.123 -10.909  -5.368  1.00  0.00     0.211 HD
ENDBRANCH   7  24
BRANCH   9  26
HETATM   26  O10 UNL     1      21.876 -13.926  -6.687  1.00  0.00    -0.391 OA
ATOM     27  H10 UNL     1      22.529 -13.569  -7.277  1.00  0.00     0.210 HD
ENDBRANCH   9  26
ENDBRANCH   1   2
BRANCH   1  28
HETATM   28  N3  UNL     1      22.893  -9.441  -7.822  1.00  0.00    -0.410 N 
ATOM     29  H3  UNL     1      23.061  -8.440  -7.921  1.00  0.00     0.153 HD
BRANCH  28  30
HETATM   30  C6  UNL     1      23.516 -10.418  -8.673  1.00  0.00     0.126 C 
BRANCH  30  31
HETATM   31  C7  UNL     1      22.930 -10.175 -10.052  1.00  0.00     0.149 C 
BRANCH  31  32
HETATM   32  N4  UNL     1      21.950 -11.084 -10.508  1.00  0.00    -0.357 N 
HETATM   33  C8  UNL     1      22.007 -11.705 -11.805  1.00  0.00     0.248 C 
HETATM   34  O5  UNL     1      22.980 -11.394 -12.529  1.00  0.00    -0.271 OA
ATOM     35  H4  UNL     1      21.170 -11.311  -9.891  1.00  0.00     0.162 HD
BRANCH  33  36
HETATM   36  C9  UNL     1      20.946 -12.679 -12.247  1.00  0.00     0.278 C 
HETATM   37  C10 UNL     1      20.876 -13.871 -11.326  1.00  0.00     0.070 C 
HETATM   38  C11 UNL     1      20.991 -14.679 -12.577  1.00  0.00     0.236 C 
HETATM   39  N5  UNL     1      21.489 -13.520 -13.271  1.00  0.00    -0.062 N 
ATOM     40  H52 UNL     1      21.239 -13.362 -14.248  1.00  0.00     0.278 HD
ATOM     41  H51 UNL     1      22.477 -13.455 -13.516  1.00  0.00     0.278 HD
ENDBRANCH  33  36
ENDBRANCH  31  32
ENDBRANCH  30  31
BRANCH  30  42
HETATM   42  C12 UNL     1      24.985 -10.466  -8.754  1.00  0.00     0.207 C 
BRANCH  42  43
HETATM   43  C13 UNL     1      25.697  -9.194  -8.857  1.00  0.00     0.256 C 
HETATM   44  N6  UNL     1      26.572  -8.998  -9.989  1.00  0.00    -0.060 NA
HETATM   45  O6  UNL     1      25.651  -8.222  -8.076  1.00  0.00    -0.274 OA
ENDBRANCH  42  43
BRANCH  42  46
HETATM   46  N7  UNL     1      25.573 -11.388  -7.776  1.00  0.00    -0.293 N 
HETATM   47  C14 UNL     1      25.699 -11.232  -6.445  1.00  0.00     0.144 A 
HETATM   48  C15 UNL     1      26.307 -12.309  -5.881  1.00  0.00     0.060 A 
HETATM   49  C16 UNL     1      26.575 -13.182  -6.892  1.00  0.00     0.060 A 
HETATM   50  C17 UNL     1      26.106 -12.578  -8.066  1.00  0.00     0.144 A 
BRANCH  47  51
HETATM   51  O7  UNL     1      25.266 -10.117  -5.747  1.00  0.00    -0.346 OA
ATOM     52  H7  UNL     1      25.603  -9.854  -4.898  1.00  0.00     0.219 HD
ENDBRANCH  47  51
BRANCH  50  53
HETATM   53  O8  UNL     1      26.241 -13.235  -9.278  1.00  0.00    -0.346 OA
ATOM     54  H8  UNL     1      26.953 -13.233  -9.907  1.00  0.00     0.219 HD
ENDBRANCH  50  53
ENDBRANCH  42  46
ENDBRANCH  30  42
ENDBRANCH  28  30
ENDBRANCH   1  28
TORSDOF 16
ENDMDL
MODEL 3
REMARK VINA RESULT: -7.106736602      2.244      5.504
REMARK  16 active torsions:
REMARK  status: ('A' for Active; 'I' for Inactive)
REMARK    1  A    between atoms: S1_2  and  N1_5 
REMARK       I    between atoms: N1_5  and  C2_7 
REMARK    2  A    between atoms: C2_7  and  C3_9 
REMARK    3  A    between atoms: C4_12  and  C5_13 
REMARK    4  A    between atoms: C5_13  and  N3_14 
REMARK    5  A    between atoms: N3_14  and  C6_16 
REMARK    6  A    between atoms: C6_16  and  C7_17 
REMARK    7  A    between atoms: C6_16  and  C12_28 
REMARK    8  A    between atoms: C7_17  and  N4_18 
REMARK       I    between atoms: N4_18  and  C8_20 
REMARK    9  A    between atoms: C8_20  and  C9_22 
REMARK   10  A    between atoms: C12_28  and  C13_29 
REMARK   11  A    between atoms: C12_28  and  N7_32 
REMARK   12  A    between atoms: C14_33  and  O7_34 
REMARK   13  A    between atoms: C17_38  and  O8_39 
REMARK   14  A    between atoms: C18_41  and  O9_42 
REMARK   15  A    between atoms: C19_44  and  O10_45 
REMARK   16  A    between atoms: C22_52  and  O12_53 
ROOT
HETATM    1  C5  UNL     1      23.786 -14.224  -9.753  1.00  0.00     0.151 C 
ENDROOT
BRANCH   1   2
HETATM    2  C4  UNL     1      22.385 -14.025 -10.230  1.00  0.00     0.205 C 
HETATM    3  O4  UNL     1      21.610 -14.809  -9.291  1.00  0.00    -0.275 OA
HETATM    4  N2  UNL     1      20.345 -14.419  -9.388  1.00  0.00    -0.082 NA
HETATM    5  C3  UNL     1      19.765 -15.047 -10.585  1.00  0.00     0.246 C 
HETATM    6  C22 UNL     1      20.510 -14.641 -11.778  1.00  0.00     0.203 C 
HETATM    7  C18 UNL     1      22.029 -14.485 -11.587  1.00  0.00     0.156 C 
HETATM    8  C21 UNL     1      20.461 -15.623 -12.912  1.00  0.00     0.258 C 
HETATM    9  C19 UNL     1      22.505 -13.655 -12.725  1.00  0.00     0.176 C 
HETATM   10  C20 UNL     1      22.241 -14.288 -14.059  1.00  0.00     0.157 C 
HETATM   11  N8  UNL     1      21.119 -15.204 -14.094  1.00  0.00    -0.356 N 
ATOM     12  H8  UNL     1      20.794 -15.557 -14.994  1.00  0.00     0.162 HD
HETATM   13  O11 UNL     1      19.902 -16.695 -12.811  1.00  0.00    -0.270 OA
BRANCH   5  14
HETATM   14  C2  UNL     1      18.346 -14.674 -10.582  1.00  0.00     0.256 C 
HETATM   15  N1  UNL     1      17.280 -15.217 -11.299  1.00  0.00    -0.253 N 
ATOM     16  H1  UNL     1      17.453 -15.978 -11.956  1.00  0.00     0.181 HD
HETATM   17  O3  UNL     1      18.012 -13.699  -9.791  1.00  0.00    -0.270 OA
BRANCH  15  18
HETATM   18  S1  UNL     1      15.644 -14.610 -11.089  1.00  0.00     0.229 S 
HETATM   19  C1  UNL     1      15.121 -14.958  -9.412  1.00  0.00     0.186 C 
HETATM   20  O1  UNL     1      15.695 -13.137 -11.340  1.00  0.00    -0.206 OA
HETATM   21  O2  UNL     1      14.711 -15.253 -12.061  1.00  0.00    -0.206 OA
ENDBRANCH  15  18
ENDBRANCH   5  14
BRANCH   6  22
HETATM   22  O12 UNL     1      19.978 -13.444 -12.284  1.00  0.00    -0.375 OA
ATOM     23  H12 UNL     1      19.592 -12.941 -11.576  1.00  0.00     0.211 HD
ENDBRANCH   6  22
BRANCH   7  24
HETATM   24  O9  UNL     1      22.519 -15.806 -11.812  1.00  0.00    -0.381 OA
ATOM     25  H9  UNL     1      22.286 -16.104 -12.683  1.00  0.00     0.211 HD
ENDBRANCH   7  24
BRANCH   9  26
HETATM   26  O10 UNL     1      22.006 -12.357 -12.741  1.00  0.00    -0.391 OA
ATOM     27  H10 UNL     1      21.308 -12.210 -13.369  1.00  0.00     0.210 HD
ENDBRANCH   9  26
ENDBRANCH   1   2
BRANCH   1  28
HETATM   28  N3  UNL     1      24.359 -13.115  -9.035  1.00  0.00    -0.410 N 
ATOM     29  H3  UNL     1      25.306 -13.137  -8.657  1.00  0.00     0.153 HD
BRANCH  28  30
HETATM   30  C6  UNL     1      23.494 -11.976  -8.891  1.00  0.00     0.126 C 
BRANCH  30  31
HETATM   31  C7  UNL     1      23.098 -11.961  -7.425  1.00  0.00     0.149 C 
BRANCH  31  32
HETATM   32  N4  UNL     1      21.791 -12.386  -7.105  1.00  0.00    -0.357 N 
HETATM   33  C8  UNL     1      20.869 -11.573  -6.356  1.00  0.00     0.248 C 
HETATM   34  O5  UNL     1      21.287 -10.451  -5.989  1.00  0.00    -0.271 OA
ATOM     35  H4  UNL     1      21.486 -13.308  -7.417  1.00  0.00     0.162 HD
BRANCH  33  36
HETATM   36  C9  UNL     1      19.478 -12.061  -6.045  1.00  0.00     0.278 C 
HETATM   37  C10 UNL     1      19.499 -13.173  -5.027  1.00  0.00     0.070 C 
HETATM   38  C11 UNL     1      18.663 -13.917  -6.016  1.00  0.00     0.236 C 
HETATM   39  N5  UNL     1      19.084 -13.005  -7.048  1.00  0.00    -0.062 N 
ATOM     40  H52 UNL     1      18.433 -12.728  -7.783  1.00  0.00     0.278 HD
ATOM     41  H51 UNL     1      19.753 -13.307  -7.756  1.00  0.00     0.278 HD
ENDBRANCH  33  36
ENDBRANCH  31  32
ENDBRANCH  30  31
BRANCH  30  42
HETATM   42  C12 UNL     1      23.986 -10.647  -9.291  1.00  0.00     0.207 C 
BRANCH  42  43
HETATM   43  C13 UNL     1      24.771 -10.560 -10.519  1.00  0.00     0.256 C 
HETATM   44  N6  UNL     1      26.024  -9.843 -10.472  1.00  0.00    -0.060 NA
HETATM   45  O6  UNL     1      24.500 -11.035 -11.641  1.00  0.00    -0.274 OA
ENDBRANCH  42  43
BRANCH  42  46
HETATM   46  N7  UNL     1      22.954  -9.609  -9.181  1.00  0.00    -0.293 N 
HETATM   47  C14 UNL     1      23.034  -8.406  -8.582  1.00  0.00     0.144 A 
HETATM   48  C15 UNL     1      21.860  -7.729  -8.686  1.00  0.00     0.060 A 
HETATM   49  C16 UNL     1      21.004  -8.531  -9.378  1.00  0.00     0.060 A 
HETATM   50  C17 UNL     1      21.716  -9.702  -9.673  1.00  0.00     0.144 A 
BRANCH  47  51
HETATM   51  O7  UNL     1      24.165  -7.927  -7.944  1.00  0.00    -0.346 OA
ATOM     52  H7  UNL     1      24.995  -7.766  -8.377  1.00  0.00     0.219 HD
ENDBRANCH  47  51
BRANCH  50  53
HETATM   53  O8  UNL     1      21.099 -10.722 -10.378  1.00  0.00    -0.346 OA
ATOM     54  H8  UNL     1      21.436 -11.299 -11.054  1.00  0.00     0.219 HD
ENDBRANCH  50  53
ENDBRANCH  42  46
ENDBRANCH  30  42
ENDBRANCH  28  30
ENDBRANCH   1  28
TORSDOF 16
ENDMDL
MODEL 4
REMARK VINA RESULT: -7.105922781      1.257      1.393
REMARK  16 active torsions:
REMARK  status: ('A' for Active; 'I' for Inactive)
REMARK    1  A    between atoms: S1_2  and  N1_5 
REMARK       I    between atoms: N1_5  and  C2_7 
REMARK    2  A    between atoms: C2_7  and  C3_9 
REMARK    3  A    between atoms: C4_12  and  C5_13 
REMARK    4  A    between atoms: C5_13  and  N3_14 
REMARK    5  A    between atoms: N3_14  and  C6_16 
REMARK    6  A    between atoms: C6_16  and  C7_17 
REMARK    7  A    between atoms: C6_16  and  C12_28 
REMARK    8  A    between atoms: C7_17  and  N4_18 
REMARK       I    between atoms: N4_18  and  C8_20 
REMARK    9  A    between atoms: C8_20  and  C9_22 
REMARK   10  A    between atoms: C12_28  and  C13_29 
REMARK   11  A    between atoms: C12_28  and  N7_32 
REMARK   12  A    between atoms: C14_33  and  O7_34 
REMARK   13  A    between atoms: C17_38  and  O8_39 
REMARK   14  A    between atoms: C18_41  and  O9_42 
REMARK   15  A    between atoms: C19_44  and  O10_45 
REMARK   16  A    between atoms: C22_52  and  O12_53 
ROOT
HETATM    1  C5  UNL     1      22.072 -10.026  -6.881  1.00  0.00     0.151 C 
ENDROOT
BRANCH   1   2
HETATM    2  C4  UNL     1      21.130 -11.091  -7.336  1.00  0.00     0.205 C 
HETATM    3  O4  UNL     1      20.053 -10.333  -7.940  1.00  0.00    -0.275 OA
HETATM    4  N2  UNL     1      19.348 -11.167  -8.695  1.00  0.00    -0.082 NA
HETATM    5  C3  UNL     1      18.469 -11.949  -7.810  1.00  0.00     0.246 C 
HETATM    6  C22 UNL     1      19.269 -12.700  -6.841  1.00  0.00     0.203 C 
HETATM    7  C18 UNL     1      20.526 -11.979  -6.322  1.00  0.00     0.156 C 
HETATM    8  C21 UNL     1      18.564 -13.013  -5.555  1.00  0.00     0.258 C 
HETATM    9  C19 UNL     1      21.401 -13.037  -5.750  1.00  0.00     0.176 C 
HETATM   10  C20 UNL     1      20.755 -13.776  -4.615  1.00  0.00     0.157 C 
HETATM   11  N8  UNL     1      19.306 -13.802  -4.643  1.00  0.00    -0.356 N 
ATOM     12  H8  UNL     1      18.808 -14.405  -3.988  1.00  0.00     0.162 HD
HETATM   13  O11 UNL     1      17.443 -12.612  -5.321  1.00  0.00    -0.270 OA
BRANCH   5  14
HETATM   14  C2  UNL     1      17.638 -12.768  -8.699  1.00  0.00     0.256 C 
HETATM   15  N1  UNL     1      16.459 -13.462  -8.428  1.00  0.00    -0.253 N 
ATOM     16  H1  UNL     1      16.077 -13.452  -7.482  1.00  0.00     0.181 HD
HETATM   17  O3  UNL     1      18.041 -12.868  -9.930  1.00  0.00    -0.270 OA
BRANCH  15  18
HETATM   18  S1  UNL     1      15.621 -14.353  -9.690  1.00  0.00     0.229 S 
HETATM   19  C1  UNL     1      16.531 -15.860 -10.020  1.00  0.00     0.186 C 
HETATM   20  O1  UNL     1      14.253 -14.656  -9.169  1.00  0.00    -0.206 OA
HETATM   21  O2  UNL     1      15.515 -13.535 -10.935  1.00  0.00    -0.206 OA
ENDBRANCH  15  18
ENDBRANCH   5  14
BRANCH   6  22
HETATM   22  O12 UNL     1      19.635 -13.940  -7.391  1.00  0.00    -0.375 OA
ATOM     23  H12 UNL     1      20.299 -14.347  -6.847  1.00  0.00     0.211 HD
ENDBRANCH   6  22
BRANCH   7  24
HETATM   24  O9  UNL     1      20.030 -11.219  -5.222  1.00  0.00    -0.381 OA
ATOM     25  H9  UNL     1      20.723 -10.695  -4.839  1.00  0.00     0.211 HD
ENDBRANCH   7  24
BRANCH   9  26
HETATM   26  O10 UNL     1      21.869 -13.963  -6.675  1.00  0.00    -0.391 OA
ATOM     27  H10 UNL     1      22.816 -14.004  -6.748  1.00  0.00     0.210 HD
ENDBRANCH   9  26
ENDBRANCH   1   2
BRANCH   1  28
HETATM   28  N3  UNL     1      23.164  -9.743  -7.775  1.00  0.00    -0.410 N 
ATOM     29  H3  UNL     1      23.330  -8.815  -8.163  1.00  0.00     0.153 HD
BRANCH  28  30
HETATM   30  C6  UNL     1      24.004 -10.870  -8.079  1.00  0.00     0.126 C 
BRANCH  30  31
HETATM   31  C7  UNL     1      23.960 -11.001  -9.591  1.00  0.00     0.149 C 
BRANCH  31  32
HETATM   32  N4  UNL     1      22.882 -11.725 -10.146  1.00  0.00    -0.357 N 
HETATM   33  C8  UNL     1      22.678 -13.128  -9.901  1.00  0.00     0.248 C 
HETATM   34  O5  UNL     1      23.518 -13.692  -9.164  1.00  0.00    -0.271 OA
ATOM     35  H4  UNL     1      22.219 -11.232 -10.745  1.00  0.00     0.162 HD
BRANCH  33  36
HETATM   36  C9  UNL     1      21.507 -13.860 -10.504  1.00  0.00     0.278 C 
HETATM   37  C10 UNL     1      21.835 -14.384 -11.879  1.00  0.00     0.070 C 
HETATM   38  C11 UNL     1      20.579 -13.694 -12.299  1.00  0.00     0.236 C 
HETATM   39  N5  UNL     1      20.619 -12.904 -11.095  1.00  0.00    -0.062 N 
ATOM     40  H52 UNL     1      19.753 -12.650 -10.621  1.00  0.00     0.278 HD
ATOM     41  H51 UNL     1      20.882 -11.920 -11.138  1.00  0.00     0.278 HD
ENDBRANCH  33  36
ENDBRANCH  31  32
ENDBRANCH  30  31
BRANCH  30  42
HETATM   42  C12 UNL     1      25.401 -10.869  -7.617  1.00  0.00     0.207 C 
BRANCH  42  43
HETATM   43  C13 UNL     1      25.810  -9.802  -6.706  1.00  0.00     0.256 C 
HETATM   44  N6  UNL     1      26.439  -8.632  -7.274  1.00  0.00    -0.060 NA
HETATM   45  O6  UNL     1      25.687  -9.762  -5.465  1.00  0.00    -0.274 OA
ENDBRANCH  42  43
BRANCH  42  46
HETATM   46  N7  UNL     1      25.857 -12.201  -7.201  1.00  0.00    -0.293 N 
HETATM   47  C14 UNL     1      26.800 -12.979  -7.764  1.00  0.00     0.144 A 
HETATM   48  C15 UNL     1      26.933 -14.153  -7.090  1.00  0.00     0.060 A 
HETATM   49  C16 UNL     1      26.043 -14.116  -6.060  1.00  0.00     0.060 A 
HETATM   50  C17 UNL     1      25.383 -12.883  -6.156  1.00  0.00     0.144 A 
BRANCH  47  51
HETATM   51  O7  UNL     1      27.534 -12.628  -8.884  1.00  0.00    -0.346 OA
ATOM     52  H7  UNL     1      28.123 -13.215  -9.344  1.00  0.00     0.219 HD
ENDBRANCH  47  51
BRANCH  50  53
HETATM   53  O8  UNL     1      24.405 -12.554  -5.232  1.00  0.00    -0.346 OA
ATOM     54  H8  UNL     1      24.450 -12.026  -4.444  1.00  0.00     0.219 HD
ENDBRANCH  50  53
ENDBRANCH  42  46
ENDBRANCH  30  42
ENDBRANCH  28  30
ENDBRANCH   1  28
TORSDOF 16
ENDMDL
MODEL 5
REMARK VINA RESULT: -7.052011293      1.145      1.638
REMARK  16 active torsions:
REMARK  status: ('A' for Active; 'I' for Inactive)
REMARK    1  A    between atoms: S1_2  and  N1_5 
REMARK       I    between atoms: N1_5  and  C2_7 
REMARK    2  A    between atoms: C2_7  and  C3_9 
REMARK    3  A    between atoms: C4_12  and  C5_13 
REMARK    4  A    between atoms: C5_13  and  N3_14 
REMARK    5  A    between atoms: N3_14  and  C6_16 
REMARK    6  A    between atoms: C6_16  and  C7_17 
REMARK    7  A    between atoms: C6_16  and  C12_28 
REMARK    8  A    between atoms: C7_17  and  N4_18 
REMARK       I    between atoms: N4_18  and  C8_20 
REMARK    9  A    between atoms: C8_20  and  C9_22 
REMARK   10  A    between atoms: C12_28  and  C13_29 
REMARK   11  A    between atoms: C12_28  and  N7_32 
REMARK   12  A    between atoms: C14_33  and  O7_34 
REMARK   13  A    between atoms: C17_38  and  O8_39 
REMARK   14  A    between atoms: C18_41  and  O9_42 
REMARK   15  A    between atoms: C19_44  and  O10_45 
REMARK   16  A    between atoms: C22_52  and  O12_53 
ROOT
HETATM    1  C5  UNL     1      21.911  -9.864  -7.021  1.00  0.00     0.151 C 
ENDROOT
BRANCH   1   2
HETATM    2  C4  UNL     1      20.992 -10.953  -7.465  1.00  0.00     0.205 C 
HETATM    3  O4  UNL     1      19.821 -10.224  -7.909  1.00  0.00    -0.275 OA
HETATM    4  N2  UNL     1      19.095 -11.047  -8.656  1.00  0.00    -0.082 NA
HETATM    5  C3  UNL     1      18.352 -11.943  -7.756  1.00  0.00     0.246 C 
HETATM    6  C22 UNL     1      19.283 -12.708  -6.924  1.00  0.00     0.203 C 
HETATM    7  C18 UNL     1      20.541 -11.946  -6.470  1.00  0.00     0.156 C 
HETATM    8  C21 UNL     1      18.725 -13.155  -5.606  1.00  0.00     0.258 C 
HETATM    9  C19 UNL     1      21.526 -12.983  -6.063  1.00  0.00     0.176 C 
HETATM   10  C20 UNL     1      21.036 -13.839  -4.932  1.00  0.00     0.157 C 
HETATM   11  N8  UNL     1      19.595 -13.956  -4.828  1.00  0.00    -0.356 N 
ATOM     12  H8  UNL     1      19.198 -14.634  -4.178  1.00  0.00     0.162 HD
HETATM   13  O11 UNL     1      17.611 -12.843  -5.240  1.00  0.00    -0.270 OA
BRANCH   5  14
HETATM   14  C2  UNL     1      17.486 -12.750  -8.623  1.00  0.00     0.256 C 
HETATM   15  N1  UNL     1      16.404 -13.565  -8.293  1.00  0.00    -0.253 N 
ATOM     16  H1  UNL     1      16.136 -13.672  -7.315  1.00  0.00     0.181 HD
HETATM   17  O3  UNL     1      17.748 -12.705  -9.895  1.00  0.00    -0.270 OA
BRANCH  15  18
HETATM   18  S1  UNL     1      15.494 -14.410  -9.536  1.00  0.00     0.229 S 
HETATM   19  C1  UNL     1      16.376 -15.908  -9.966  1.00  0.00     0.186 C 
HETATM   20  O1  UNL     1      14.155 -14.726  -8.951  1.00  0.00    -0.206 OA
HETATM   21  O2  UNL     1      15.323 -13.551 -10.745  1.00  0.00    -0.206 OA
ENDBRANCH  15  18
ENDBRANCH   5  14
BRANCH   6  22
HETATM   22  O12 UNL     1      19.664 -13.880  -7.597  1.00  0.00    -0.375 OA
ATOM     23  H12 UNL     1      20.312 -14.348  -7.084  1.00  0.00     0.211 HD
ENDBRANCH   6  22
BRANCH   7  24
HETATM   24  O9  UNL     1      20.111 -11.298  -5.275  1.00  0.00    -0.381 OA
ATOM     25  H9  UNL     1      19.891 -11.939  -4.609  1.00  0.00     0.211 HD
ENDBRANCH   7  24
BRANCH   9  26
HETATM   26  O10 UNL     1      21.955 -13.810  -7.095  1.00  0.00    -0.391 OA
ATOM     27  H10 UNL     1      22.520 -14.523  -6.821  1.00  0.00     0.210 HD
ENDBRANCH   9  26
ENDBRANCH   1   2
BRANCH   1  28
HETATM   28  N3  UNL     1      23.097  -9.690  -7.818  1.00  0.00    -0.410 N 
ATOM     29  H3  UNL     1      23.373  -8.787  -8.203  1.00  0.00     0.153 HD
BRANCH  28  30
HETATM   30  C6  UNL     1      23.863 -10.888  -8.031  1.00  0.00     0.126 C 
BRANCH  30  31
HETATM   31  C7  UNL     1      23.701 -11.205  -9.507  1.00  0.00     0.149 C 
BRANCH  31  32
HETATM   32  N4  UNL     1      23.219 -12.489  -9.843  1.00  0.00    -0.357 N 
HETATM   33  C8  UNL     1      22.037 -12.693 -10.638  1.00  0.00     0.248 C 
HETATM   34  O5  UNL     1      21.441 -11.663 -11.024  1.00  0.00    -0.271 OA
ATOM     35  H4  UNL     1      23.729 -13.306  -9.508  1.00  0.00     0.162 HD
BRANCH  33  36
HETATM   36  C9  UNL     1      21.563 -14.081 -10.983  1.00  0.00     0.278 C 
HETATM   37  C10 UNL     1      21.068 -14.156 -12.405  1.00  0.00     0.070 C 
HETATM   38  C11 UNL     1      19.841 -14.764 -11.807  1.00  0.00     0.236 C 
HETATM   39  N5  UNL     1      20.217 -14.238 -10.520  1.00  0.00    -0.062 N 
ATOM     40  H52 UNL     1      20.027 -14.774  -9.673  1.00  0.00     0.278 HD
ATOM     41  H51 UNL     1      19.716 -13.443 -10.126  1.00  0.00     0.278 HD
ENDBRANCH  33  36
ENDBRANCH  31  32
ENDBRANCH  30  31
BRANCH  30  42
HETATM   42  C12 UNL     1      25.290 -10.901  -7.670  1.00  0.00     0.207 C 
BRANCH  42  43
HETATM   43  C13 UNL     1      25.780  -9.821  -6.815  1.00  0.00     0.256 C 
HETATM   44  N6  UNL     1      26.424  -8.695  -7.450  1.00  0.00    -0.060 NA
HETATM   45  O6  UNL     1      25.716  -9.736  -5.572  1.00  0.00    -0.274 OA
ENDBRANCH  42  43
BRANCH  42  46
HETATM   46  N7  UNL     1      25.754 -12.231  -7.257  1.00  0.00    -0.293 N 
HETATM   47  C14 UNL     1      25.451 -12.915  -6.138  1.00  0.00     0.144 A 
HETATM   48  C15 UNL     1      26.088 -14.116  -6.112  1.00  0.00     0.060 A 
HETATM   49  C16 UNL     1      26.820 -14.197  -7.258  1.00  0.00     0.060 A 
HETATM   50  C17 UNL     1      26.593 -13.002  -7.953  1.00  0.00     0.144 A 
BRANCH  47  51
HETATM   51  O7  UNL     1      24.603 -12.452  -5.146  1.00  0.00    -0.346 OA
ATOM     52  H7  UNL     1      23.673 -12.641  -5.107  1.00  0.00     0.219 HD
ENDBRANCH  47  51
BRANCH  50  53
HETATM   53  O8  UNL     1      27.213 -12.788  -9.173  1.00  0.00    -0.346 OA
ATOM     54  H8  UNL     1      27.663 -12.023  -9.513  1.00  0.00     0.219 HD
ENDBRANCH  50  53
ENDBRANCH  42  46
ENDBRANCH  30  42
ENDBRANCH  28  30
ENDBRANCH   1  28
TORSDOF 16
ENDMDL
