MODEL 1
REMARK VINA RESULT: -6.727605885      0.000      0.000
REMARK  19 active torsions:
REMARK  status: ('A' for Active; 'I' for Inactive)
REMARK    1  A    between atoms: N1_2  and  C2_5 
REMARK    2  A    between atoms: C2_5  and  C3_6 
REMARK    3  A    between atoms: C4_7  and  N2_8 
REMARK    4  A    between atoms: N2_8  and  C5_10 
REMARK    5  A    between atoms: C7_17  and  N5_18 
REMARK    6  A    between atoms: N5_18  and  N6_20 
REMARK    7  A    between atoms: C9_26  and  C10_27 
REMARK    8  A    between atoms: C10_27  and  N8_28 
REMARK    9  A    between atoms: C11_33  and  N9_34 
REMARK   10  A    between atoms: N9_34  and  O3_35 
REMARK   11  A    between atoms: N9_34  and  C12_37 
REMARK   12  A    between atoms: C12_37  and  C13_38 
REMARK   13  A    between atoms: C13_38  and  O4_39 
REMARK   14  A    between atoms: N10_41  and  C14_43 
REMARK   15  A    between atoms: C16_45  and  O5_46 
REMARK   16  A    between atoms: C17_48  and  C18_49 
REMARK   17  A    between atoms: C22_55  and  C23_56 
REMARK   18  A    between atoms: C23_56  and  N12_57 
REMARK   19  A    between atoms: C24_63  and  O7_64 
ROOT
HETATM    1  C3  UNL     1      25.504 -13.101  -6.112  1.00  0.00     0.080 C 
HETATM    2  C4  UNL     1      24.154 -13.527  -6.529  1.00  0.00     0.111 C 
HETATM    3  C8  UNL     1      24.112 -14.113  -7.923  1.00  0.00     0.060 C 
HETATM    4  C9  UNL     1      25.118 -13.540  -8.842  1.00  0.00     0.151 C 
HETATM    5  O2  UNL     1      26.181 -12.889  -8.322  1.00  0.00    -0.362 OA
HETATM    6  C11 UNL     1      26.056 -12.152  -7.197  1.00  0.00     0.229 C 
ENDROOT
BRANCH   6   7
HETATM    7  N9  UNL     1      25.392 -10.928  -7.222  1.00  0.00    -0.162 NA
BRANCH   7   8
HETATM    8  O3  UNL     1      25.694 -10.087  -6.206  1.00  0.00    -0.310 OA
ATOM      9  H3  UNL     1      25.345 -10.334  -5.357  1.00  0.00     0.237 HD
ENDBRANCH   7   8
BRANCH   7  10
HETATM   10  C12 UNL     1      25.448 -10.147  -8.430  1.00  0.00     0.207 C 
BRANCH  10  11
HETATM   11  C13 UNL     1      25.003  -8.730  -8.319  1.00  0.00     0.127 C 
HETATM   12  N10 UNL     1      23.868  -8.486  -7.605  1.00  0.00    -0.366 N 
ATOM     13  H10 UNL     1      24.013  -8.034  -6.702  1.00  0.00     0.161 HD
BRANCH  11  14
HETATM   14  O4  UNL     1      26.136  -7.912  -8.083  1.00  0.00    -0.349 OA
ATOM     15  H4  UNL     1      25.887  -7.204  -7.500  1.00  0.00     0.219 HD
ENDBRANCH  11  14
BRANCH  12  16
HETATM   16  C14 UNL     1      22.565  -8.757  -7.915  1.00  0.00     0.115 C 
HETATM   17  C15 UNL     1      22.211  -8.480  -9.395  1.00  0.00     0.060 C 
HETATM   18  C16 UNL     1      20.700  -8.585  -9.280  1.00  0.00     0.128 C 
HETATM   19  C17 UNL     1      20.477  -9.709  -8.311  1.00  0.00     0.068 C 
HETATM   20  C24 UNL     1      21.869 -10.025  -7.698  1.00  0.00     0.149 C 
BRANCH  18  21
HETATM   21  O5  UNL     1      20.277  -7.356  -8.720  1.00  0.00    -0.395 OA
ATOM     22  H5  UNL     1      20.829  -7.220  -7.959  1.00  0.00     0.210 HD
ENDBRANCH  18  21
BRANCH  19  23
HETATM   23  C18 UNL     1      19.953 -10.928  -9.082  1.00  0.00     0.100 C 
HETATM   24  C19 UNL     1      20.977 -12.006  -9.041  1.00  0.00     0.129 C 
HETATM   25  C20 UNL     1      20.464 -13.354  -8.726  1.00  0.00     0.226 C 
HETATM   26  O6  UNL     1      21.173 -14.390  -8.907  1.00  0.00    -0.273 OA
HETATM   27  N11 UNL     1      19.159 -13.515  -8.208  1.00  0.00    -0.311 N 
HETATM   28  C21 UNL     1      18.644 -14.785  -7.733  1.00  0.00     0.160 C 
HETATM   29  C22 UNL     1      18.272 -12.404  -8.129  1.00  0.00     0.107 C 
HETATM   30  N13 UNL     1      18.680 -11.247  -8.537  1.00  0.00    -0.372 N 
ATOM     31  H13 UNL     1      18.014 -10.479  -8.459  1.00  0.00     0.161 HD
BRANCH  29  32
HETATM   32  C23 UNL     1      16.906 -12.538  -7.592  1.00  0.00     0.305 C 
BRANCH  32  33
HETATM   33  N12 UNL     1      16.827 -12.249  -6.174  1.00  0.00    -0.073 N 
ATOM     34 3H12 UNL     1      17.407 -12.894  -5.637  1.00  0.00     0.274 HD
ATOM     35 2H12 UNL     1      17.304 -11.375  -5.953  1.00  0.00     0.274 HD
ATOM     36 1H12 UNL     1      15.869 -12.241  -5.824  1.00  0.00     0.274 HD
ENDBRANCH  32  33
ENDBRANCH  29  32
ENDBRANCH  19  23
BRANCH  20  37
HETATM   37  O7  UNL     1      21.701 -10.323  -6.352  1.00  0.00    -0.393 OA
ATOM     38  H7  UNL     1      22.275 -11.019  -6.055  1.00  0.00     0.210 HD
ENDBRANCH  20  37
ENDBRANCH  12  16
ENDBRANCH  10  11
ENDBRANCH   7  10
ENDBRANCH   6   7
BRANCH   1  39
HETATM   39  C2  UNL     1      26.540 -14.112  -5.868  1.00  0.00     0.242 C 
BRANCH  39  40
HETATM   40  N1  UNL     1      27.878 -13.774  -6.266  1.00  0.00    -0.079 N 
HETATM   41  C1  UNL     1      28.537 -14.985  -6.747  1.00  0.00     0.267 C 
ATOM     42  H12 UNL     1      28.402 -13.312  -5.524  1.00  0.00     0.276 HD
ATOM     43  H11 UNL     1      27.903 -13.017  -6.949  1.00  0.00     0.276 HD
ENDBRANCH  39  40
ENDBRANCH   1  39
BRANCH   2  44
HETATM   44  N2  UNL     1      23.481 -14.481  -5.683  1.00  0.00    -0.220 N 
ATOM     45  H2  UNL     1      23.935 -15.380  -5.529  1.00  0.00     0.178 HD
BRANCH  44  46
HETATM   46  C5  UNL     1      22.361 -14.280  -5.117  1.00  0.00     0.697 A 
HETATM   47  N3  UNL     1      21.553 -13.265  -5.437  1.00  0.00    -0.140 N 
HETATM   48  C6  UNL     1      20.345 -13.062  -4.808  1.00  0.00     0.352 A 
ATOM     49  H3  UNL     1      21.841 -12.619  -6.172  1.00  0.00     0.189 HD
HETATM   50  O1  UNL     1      19.599 -12.111  -5.115  1.00  0.00    -0.246 OA
HETATM   51  N4  UNL     1      19.989 -13.938  -3.836  1.00  0.00    -0.139 N 
HETATM   52  C7  UNL     1      20.784 -14.962  -3.501  1.00  0.00     0.715 A 
ATOM     53  H4  UNL     1      19.100 -13.814  -3.351  1.00  0.00     0.189 HD
HETATM   54  N7  UNL     1      21.941 -15.102  -4.148  1.00  0.00    -0.021 N 
ATOM     55  H7  UNL     1      22.543 -15.884  -3.889  1.00  0.00     0.203 HD
BRANCH  52  56
HETATM   56  N5  UNL     1      20.365 -15.750  -2.557  1.00  0.00    -0.138 N 
ATOM     57  H5  UNL     1      20.713 -15.684  -1.601  1.00  0.00     0.205 HD
BRANCH  56  58
HETATM   58  N6  UNL     1      19.403 -16.697  -2.935  1.00  0.00    -0.331 N 
ATOM     59  H62 UNL     1      19.579 -17.354  -3.695  1.00  0.00     0.177 HD
ATOM     60  H61 UNL     1      18.532 -16.681  -2.404  1.00  0.00     0.177 HD
ENDBRANCH  56  58
ENDBRANCH  52  56
ENDBRANCH  44  46
ENDBRANCH   2  44
BRANCH   4  61
HETATM   61  C10 UNL     1      25.657 -14.693  -9.711  1.00  0.00     0.261 C 
BRANCH  61  62
HETATM   62  N8  UNL     1      25.741 -15.915  -8.930  1.00  0.00    -0.077 N 
ATOM     63  H83 UNL     1      25.776 -16.744  -9.524  1.00  0.00     0.274 HD
ATOM     64  H82 UNL     1      26.649 -16.017  -8.477  1.00  0.00     0.274 HD
ATOM     65  H81 UNL     1      24.973 -15.961  -8.260  1.00  0.00     0.274 HD
ENDBRANCH  61  62
ENDBRANCH   4  61
TORSDOF 19
ENDMDL
MODEL 2
REMARK VINA RESULT: -6.340783682      3.397      6.658
REMARK  19 active torsions:
REMARK  status: ('A' for Active; 'I' for Inactive)
REMARK    1  A    between atoms: N1_2  and  C2_5 
REMARK    2  A    between atoms: C2_5  and  C3_6 
REMARK    3  A    between atoms: C4_7  and  N2_8 
REMARK    4  A    between atoms: N2_8  and  C5_10 
REMARK    5  A    between atoms: C7_17  and  N5_18 
REMARK    6  A    between atoms: N5_18  and  N6_20 
REMARK    7  A    between atoms: C9_26  and  C10_27 
REMARK    8  A    between atoms: C10_27  and  N8_28 
REMARK    9  A    between atoms: C11_33  and  N9_34 
REMARK   10  A    between atoms: N9_34  and  O3_35 
REMARK   11  A    between atoms: N9_34  and  C12_37 
REMARK   12  A    between atoms: C12_37  and  C13_38 
REMARK   13  A    between atoms: C13_38  and  O4_39 
REMARK   14  A    between atoms: N10_41  and  C14_43 
REMARK   15  A    between atoms: C16_45  and  O5_46 
REMARK   16  A    between atoms: C17_48  and  C18_49 
REMARK   17  A    between atoms: C22_55  and  C23_56 
REMARK   18  A    between atoms: C23_56  and  N12_57 
REMARK   19  A    between atoms: C24_63  and  O7_64 
ROOT
HETATM    1  C3  UNL     1      23.165 -10.773  -8.854  1.00  0.00     0.080 C 
HETATM    2  C4  UNL     1      22.131 -10.843  -9.905  1.00  0.00     0.111 C 
HETATM    3  C8  UNL     1      21.230  -9.628  -9.942  1.00  0.00     0.060 C 
HETATM    4  C9  UNL     1      21.024  -8.996  -8.622  1.00  0.00     0.151 C 
HETATM    5  O2  UNL     1      21.897  -9.265  -7.628  1.00  0.00    -0.362 OA
HETATM    6  C11 UNL     1      22.457 -10.488  -7.512  1.00  0.00     0.229 C 
ENDROOT
BRANCH   6   7
HETATM    7  N9  UNL     1      21.705 -11.572  -7.066  1.00  0.00    -0.162 NA
BRANCH   7   8
HETATM    8  O3  UNL     1      22.393 -12.726  -6.906  1.00  0.00    -0.310 OA
ATOM      9  H3  UNL     1      22.420 -13.063  -6.018  1.00  0.00     0.237 HD
ENDBRANCH   7   8
BRANCH   7  10
HETATM   10  C12 UNL     1      20.905 -11.405  -5.881  1.00  0.00     0.207 C 
BRANCH  10  11
HETATM   11  C13 UNL     1      20.191 -12.617  -5.391  1.00  0.00     0.127 C 
HETATM   12  N10 UNL     1      19.541 -13.375  -6.320  1.00  0.00    -0.366 N 
ATOM     13  H10 UNL     1      19.977 -14.273  -6.527  1.00  0.00     0.161 HD
BRANCH  11  14
HETATM   14  O4  UNL     1      21.006 -13.274  -4.437  1.00  0.00    -0.349 OA
ATOM     15  H4  UNL     1      21.324 -14.087  -4.812  1.00  0.00     0.219 HD
ENDBRANCH  11  14
BRANCH  12  16
HETATM   16  C14 UNL     1      18.394 -13.113  -7.014  1.00  0.00     0.115 C 
HETATM   17  C15 UNL     1      18.634 -12.785  -8.506  1.00  0.00     0.060 C 
HETATM   18  C16 UNL     1      17.246 -12.269  -8.841  1.00  0.00     0.128 C 
HETATM   19  C17 UNL     1      16.320 -13.164  -8.071  1.00  0.00     0.068 C 
HETATM   20  C24 UNL     1      17.222 -13.984  -7.110  1.00  0.00     0.149 C 
BRANCH  18  21
HETATM   21  O5  UNL     1      17.199 -10.950  -8.331  1.00  0.00    -0.395 OA
ATOM     22  H5  UNL     1      16.912 -10.407  -9.056  1.00  0.00     0.210 HD
ENDBRANCH  18  21
BRANCH  19  23
HETATM   23  C18 UNL     1      15.610 -14.104  -9.056  1.00  0.00     0.100 C 
HETATM   24  C19 UNL     1      16.014 -13.749 -10.443  1.00  0.00     0.129 C 
HETATM   25  C20 UNL     1      16.372 -14.889 -11.308  1.00  0.00     0.226 C 
HETATM   26  O6  UNL     1      16.485 -14.756 -12.565  1.00  0.00    -0.273 OA
HETATM   27  N11 UNL     1      16.600 -16.165 -10.745  1.00  0.00    -0.311 N 
HETATM   28  C21 UNL     1      17.104 -17.292 -11.508  1.00  0.00     0.160 C 
HETATM   29  C22 UNL     1      16.340 -16.402  -9.366  1.00  0.00     0.107 C 
HETATM   30  N13 UNL     1      15.892 -15.432  -8.638  1.00  0.00    -0.372 N 
ATOM     31  H13 UNL     1      15.722 -15.644  -7.655  1.00  0.00     0.161 HD
BRANCH  29  32
HETATM   32  C23 UNL     1      16.570 -17.721  -8.747  1.00  0.00     0.305 C 
BRANCH  32  33
HETATM   33  N12 UNL     1      16.842 -17.636  -7.327  1.00  0.00    -0.073 N 
ATOM     34 3H12 UNL     1      15.977 -17.546  -6.794  1.00  0.00     0.274 HD
ATOM     35 2H12 UNL     1      17.168 -18.531  -6.964  1.00  0.00     0.274 HD
ATOM     36 1H12 UNL     1      17.495 -16.888  -7.092  1.00  0.00     0.274 HD
ENDBRANCH  32  33
ENDBRANCH  29  32
ENDBRANCH  19  23
BRANCH  20  37
HETATM   37  O7  UNL     1      16.559 -14.129  -5.898  1.00  0.00    -0.393 OA
ATOM     38  H7  UNL     1      15.694 -13.736  -5.903  1.00  0.00     0.210 HD
ENDBRANCH  20  37
ENDBRANCH  12  16
ENDBRANCH  10  11
ENDBRANCH   7  10
ENDBRANCH   6   7
BRANCH   1  39
HETATM   39  C2  UNL     1      24.254  -9.797  -8.973  1.00  0.00     0.242 C 
BRANCH  39  40
HETATM   40  N1  UNL     1      24.968  -9.476  -7.768  1.00  0.00    -0.079 N 
HETATM   41  C1  UNL     1      26.307  -9.021  -8.131  1.00  0.00     0.267 C 
ATOM     42  H12 UNL     1      24.984 -10.250  -7.105  1.00  0.00     0.276 HD
ATOM     43  H11 UNL     1      24.470  -8.803  -7.186  1.00  0.00     0.276 HD
ENDBRANCH  39  40
ENDBRANCH   1  39
BRANCH   2  44
HETATM   44  N2  UNL     1      22.588 -11.034 -11.258  1.00  0.00    -0.220 N 
ATOM     45  H2  UNL     1      23.173 -10.305 -11.667  1.00  0.00     0.178 HD
BRANCH  44  46
HETATM   46  C5  UNL     1      22.315 -12.044 -11.977  1.00  0.00     0.697 A 
HETATM   47  N3  UNL     1      23.170 -12.560 -12.866  1.00  0.00    -0.140 N 
HETATM   48  C6  UNL     1      22.852 -13.654 -13.640  1.00  0.00     0.352 A 
ATOM     49  H3  UNL     1      24.087 -12.128 -12.975  1.00  0.00     0.189 HD
HETATM   50  O1  UNL     1      23.658 -14.126 -14.466  1.00  0.00    -0.246 OA
HETATM   51  N4  UNL     1      21.626 -14.207 -13.472  1.00  0.00    -0.139 N 
HETATM   52  C7  UNL     1      20.756 -13.706 -12.586  1.00  0.00     0.715 A 
ATOM     53  H4  UNL     1      21.361 -15.018 -14.031  1.00  0.00     0.189 HD
HETATM   54  N7  UNL     1      21.124 -12.645 -11.868  1.00  0.00    -0.021 N 
ATOM     55  H7  UNL     1      20.457 -12.268 -11.195  1.00  0.00     0.203 HD
BRANCH  52  56
HETATM   56  N5  UNL     1      19.603 -14.297 -12.493  1.00  0.00    -0.138 N 
ATOM     57  H5  UNL     1      18.897 -14.005 -11.817  1.00  0.00     0.205 HD
BRANCH  56  58
HETATM   58  N6  UNL     1      19.388 -15.360 -13.380  1.00  0.00    -0.331 N 
ATOM     59  H62 UNL     1      18.618 -15.344 -14.048  1.00  0.00     0.177 HD
ATOM     60  H61 UNL     1      20.045 -16.138 -13.309  1.00  0.00     0.177 HD
ENDBRANCH  56  58
ENDBRANCH  52  56
ENDBRANCH  44  46
ENDBRANCH   2  44
BRANCH   4  61
HETATM   61  C10 UNL     1      21.021  -7.470  -8.839  1.00  0.00     0.261 C 
BRANCH  61  62
HETATM   62  N8  UNL     1      22.308  -6.906  -8.471  1.00  0.00    -0.077 N 
ATOM     63  H83 UNL     1      22.979  -7.628  -8.207  1.00  0.00     0.274 HD
ATOM     64  H82 UNL     1      22.804  -6.528  -9.278  1.00  0.00     0.274 HD
ATOM     65  H81 UNL     1      22.192  -6.208  -7.735  1.00  0.00     0.274 HD
ENDBRANCH  61  62
ENDBRANCH   4  61
TORSDOF 19
ENDMDL
MODEL 3
REMARK VINA RESULT: -6.251313348      3.299      6.087
REMARK  19 active torsions:
REMARK  status: ('A' for Active; 'I' for Inactive)
REMARK    1  A    between atoms: N1_2  and  C2_5 
REMARK    2  A    between atoms: C2_5  and  C3_6 
REMARK    3  A    between atoms: C4_7  and  N2_8 
REMARK    4  A    between atoms: N2_8  and  C5_10 
REMARK    5  A    between atoms: C7_17  and  N5_18 
REMARK    6  A    between atoms: N5_18  and  N6_20 
REMARK    7  A    between atoms: C9_26  and  C10_27 
REMARK    8  A    between atoms: C10_27  and  N8_28 
REMARK    9  A    between atoms: C11_33  and  N9_34 
REMARK   10  A    between atoms: N9_34  and  O3_35 
REMARK   11  A    between atoms: N9_34  and  C12_37 
REMARK   12  A    between atoms: C12_37  and  C13_38 
REMARK   13  A    between atoms: C13_38  and  O4_39 
REMARK   14  A    between atoms: N10_41  and  C14_43 
REMARK   15  A    between atoms: C16_45  and  O5_46 
REMARK   16  A    between atoms: C17_48  and  C18_49 
REMARK   17  A    between atoms: C22_55  and  C23_56 
REMARK   18  A    between atoms: C23_56  and  N12_57 
REMARK   19  A    between atoms: C24_63  and  O7_64 
ROOT
HETATM    1  C3  UNL     1      20.723 -10.204  -8.894  1.00  0.00     0.080 C 
HETATM    2  C4  UNL     1      21.012 -11.231  -7.874  1.00  0.00     0.111 C 
HETATM    3  C8  UNL     1      22.438 -11.191  -7.370  1.00  0.00     0.060 C 
HETATM    4  C9  UNL     1      23.416 -10.730  -8.378  1.00  0.00     0.151 C 
HETATM    5  O2  UNL     1      22.970 -10.044  -9.453  1.00  0.00    -0.362 OA
HETATM    6  C11 UNL     1      21.777 -10.339 -10.013  1.00  0.00     0.229 C 
ENDROOT
BRANCH   6   7
HETATM    7  N9  UNL     1      21.614 -11.502 -10.761  1.00  0.00    -0.162 NA
BRANCH   7   8
HETATM    8  O3  UNL     1      20.987 -11.341 -11.950  1.00  0.00    -0.310 OA
ATOM      9  H3  UNL     1      20.141 -11.766 -12.023  1.00  0.00     0.237 HD
ENDBRANCH   7   8
BRANCH   7  10
HETATM   10  C12 UNL     1      22.772 -12.317 -11.016  1.00  0.00     0.207 C 
BRANCH  10  11
HETATM   11  C13 UNL     1      22.743 -13.698 -10.459  1.00  0.00     0.127 C 
HETATM   12  N10 UNL     1      22.364 -14.702 -11.302  1.00  0.00    -0.366 N 
ATOM     13  H10 UNL     1      23.115 -15.326 -11.596  1.00  0.00     0.161 HD
BRANCH  11  14
HETATM   14  O4  UNL     1      23.893 -13.893  -9.655  1.00  0.00    -0.349 OA
ATOM     15  H4  UNL     1      23.809 -14.720  -9.195  1.00  0.00     0.219 HD
ENDBRANCH  11  14
BRANCH  12  16
HETATM   16  C14 UNL     1      21.131 -14.997 -11.810  1.00  0.00     0.115 C 
HETATM   17  C15 UNL     1      20.993 -16.462 -12.287  1.00  0.00     0.060 C 
HETATM   18  C16 UNL     1      19.678 -16.324 -13.034  1.00  0.00     0.128 C 
HETATM   19  C17 UNL     1      18.867 -15.386 -12.190  1.00  0.00     0.068 C 
HETATM   20  C24 UNL     1      19.848 -14.807 -11.134  1.00  0.00     0.149 C 
BRANCH  18  21
HETATM   21  O5  UNL     1      20.006 -15.721 -14.271  1.00  0.00    -0.395 OA
ATOM     22  H5  UNL     1      19.262 -15.884 -14.839  1.00  0.00     0.210 HD
ENDBRANCH  18  21
BRANCH  19  23
HETATM   23  C18 UNL     1      17.755 -16.184 -11.494  1.00  0.00     0.100 C 
HETATM   24  C19 UNL     1      18.039 -16.241 -10.035  1.00  0.00     0.129 C 
HETATM   25  C20 UNL     1      16.887 -15.961  -9.156  1.00  0.00     0.226 C 
HETATM   26  O6  UNL     1      16.924 -16.223  -7.914  1.00  0.00    -0.273 OA
HETATM   27  N11 UNL     1      15.710 -15.388  -9.687  1.00  0.00    -0.311 N 
HETATM   28  C21 UNL     1      14.600 -14.945  -8.863  1.00  0.00     0.160 C 
HETATM   29  C22 UNL     1      15.561 -15.217 -11.092  1.00  0.00     0.107 C 
HETATM   30  N13 UNL     1      16.520 -15.592 -11.873  1.00  0.00    -0.372 N 
ATOM     31  H13 UNL     1      16.374 -15.448 -12.871  1.00  0.00     0.161 HD
BRANCH  29  32
HETATM   32  C23 UNL     1      14.347 -14.620 -11.677  1.00  0.00     0.305 C 
BRANCH  32  33
HETATM   33  N12 UNL     1      14.537 -13.243 -12.087  1.00  0.00    -0.073 N 
ATOM     34 3H12 UNL     1      15.527 -13.038 -12.227  1.00  0.00     0.274 HD
ATOM     35 2H12 UNL     1      14.201 -13.095 -13.038  1.00  0.00     0.274 HD
ATOM     36 1H12 UNL     1      14.113 -12.575 -11.442  1.00  0.00     0.274 HD
ENDBRANCH  32  33
ENDBRANCH  29  32
ENDBRANCH  19  23
BRANCH  20  37
HETATM   37  O7  UNL     1      19.539 -13.467 -10.933  1.00  0.00    -0.393 OA
ATOM     38  H7  UNL     1      19.303 -13.275 -10.033  1.00  0.00     0.210 HD
ENDBRANCH  20  37
ENDBRANCH  12  16
ENDBRANCH  10  11
ENDBRANCH   7  10
ENDBRANCH   6   7
BRANCH   1  39
HETATM   39  C2  UNL     1      20.695  -8.788  -8.508  1.00  0.00     0.242 C 
BRANCH  39  40
HETATM   40  N1  UNL     1      21.228  -7.850  -9.457  1.00  0.00    -0.079 N 
HETATM   41  C1  UNL     1      21.859  -6.757  -8.723  1.00  0.00     0.267 C 
ATOM     42  H12 UNL     1      20.526  -7.522 -10.120  1.00  0.00     0.276 HD
ATOM     43  H11 UNL     1      21.859  -8.288 -10.127  1.00  0.00     0.276 HD
ENDBRANCH  39  40
ENDBRANCH   1  39
BRANCH   2  44
HETATM   44  N2  UNL     1      20.181 -11.233  -6.697  1.00  0.00    -0.220 N 
ATOM     45  H2  UNL     1      20.280 -10.455  -6.045  1.00  0.00     0.178 HD
BRANCH  44  46
HETATM   46  C5  UNL     1      19.334 -12.136  -6.413  1.00  0.00     0.697 A 
HETATM   47  N3  UNL     1      19.680 -13.343  -5.954  1.00  0.00    -0.140 N 
HETATM   48  C6  UNL     1      18.745 -14.310  -5.656  1.00  0.00     0.352 A 
ATOM     49  H3  UNL     1      20.668 -13.554  -5.819  1.00  0.00     0.189 HD
HETATM   50  O1  UNL     1      19.079 -15.432  -5.228  1.00  0.00    -0.246 OA
HETATM   51  N4  UNL     1      17.439 -13.999  -5.844  1.00  0.00    -0.139 N 
HETATM   52  C7  UNL     1      17.072 -12.796  -6.302  1.00  0.00     0.715 A 
ATOM     53  H4  UNL     1      16.723 -14.695  -5.633  1.00  0.00     0.189 HD
HETATM   54  N7  UNL     1      18.025 -11.904  -6.572  1.00  0.00    -0.021 N 
ATOM     55  H7  UNL     1      17.740 -10.989  -6.921  1.00  0.00     0.203 HD
BRANCH  52  56
HETATM   56  N5  UNL     1      15.799 -12.586  -6.455  1.00  0.00    -0.138 N 
ATOM     57  H5  UNL     1      15.436 -11.955  -7.169  1.00  0.00     0.205 HD
BRANCH  56  58
HETATM   58  N6  UNL     1      14.956 -13.280  -5.577  1.00  0.00    -0.331 N 
ATOM     59  H62 UNL     1      15.316 -14.017  -4.971  1.00  0.00     0.177 HD
ATOM     60  H61 UNL     1      13.975 -12.999  -5.588  1.00  0.00     0.177 HD
ENDBRANCH  56  58
ENDBRANCH  52  56
ENDBRANCH  44  46
ENDBRANCH   2  44
BRANCH   4  61
HETATM   61  C10 UNL     1      24.442  -9.840  -7.651  1.00  0.00     0.261 C 
BRANCH  61  62
HETATM   62  N8  UNL     1      24.869  -8.753  -8.515  1.00  0.00    -0.077 N 
ATOM     63  H83 UNL     1      25.880  -8.753  -8.655  1.00  0.00     0.274 HD
ATOM     64  H82 UNL     1      24.584  -8.903  -9.484  1.00  0.00     0.274 HD
ATOM     65  H81 UNL     1      24.535  -7.860  -8.154  1.00  0.00     0.274 HD
ENDBRANCH  61  62
ENDBRANCH   4  61
TORSDOF 19
ENDMDL
MODEL 4
REMARK VINA RESULT: -6.195982031      3.034      5.771
REMARK  19 active torsions:
REMARK  status: ('A' for Active; 'I' for Inactive)
REMARK    1  A    between atoms: N1_2  and  C2_5 
REMARK    2  A    between atoms: C2_5  and  C3_6 
REMARK    3  A    between atoms: C4_7  and  N2_8 
REMARK    4  A    between atoms: N2_8  and  C5_10 
REMARK    5  A    between atoms: C7_17  and  N5_18 
REMARK    6  A    between atoms: N5_18  and  N6_20 
REMARK    7  A    between atoms: C9_26  and  C10_27 
REMARK    8  A    between atoms: C10_27  and  N8_28 
REMARK    9  A    between atoms: C11_33  and  N9_34 
REMARK   10  A    between atoms: N9_34  and  O3_35 
REMARK   11  A    between atoms: N9_34  and  C12_37 
REMARK   12  A    between atoms: C12_37  and  C13_38 
REMARK   13  A    between atoms: C13_38  and  O4_39 
REMARK   14  A    between atoms: N10_41  and  C14_43 
REMARK   15  A    between atoms: C16_45  and  O5_46 
REMARK   16  A    between atoms: C17_48  and  C18_49 
REMARK   17  A    between atoms: C22_55  and  C23_56 
REMARK   18  A    between atoms: C23_56  and  N12_57 
REMARK   19  A    between atoms: C24_63  and  O7_64 
ROOT
HETATM    1  C3  UNL     1      21.136 -10.560  -8.342  1.00  0.00     0.080 C 
HETATM    2  C4  UNL     1      22.007 -11.615  -7.787  1.00  0.00     0.111 C 
HETATM    3  C8  UNL     1      23.446 -11.506  -8.241  1.00  0.00     0.060 C 
HETATM    4  C9  UNL     1      23.605 -10.930  -9.593  1.00  0.00     0.151 C 
HETATM    5  O2  UNL     1      22.584 -10.223 -10.124  1.00  0.00    -0.362 OA
HETATM    6  C11 UNL     1      21.303 -10.569  -9.877  1.00  0.00     0.229 C 
ENDROOT
BRANCH   6   7
HETATM    7  N9  UNL     1      20.748 -11.702 -10.467  1.00  0.00    -0.162 NA
BRANCH   7   8
HETATM    8  O3  UNL     1      19.473 -11.976 -10.104  1.00  0.00    -0.310 OA
ATOM      9  H3  UNL     1      19.352 -12.793  -9.633  1.00  0.00     0.237 HD
ENDBRANCH   7   8
BRANCH   7  10
HETATM   10  C12 UNL     1      20.799 -11.818 -11.900  1.00  0.00     0.207 C 
BRANCH  10  11
HETATM   11  C13 UNL     1      21.762 -12.814 -12.447  1.00  0.00     0.127 C 
HETATM   12  N10 UNL     1      21.240 -13.918 -13.054  1.00  0.00    -0.366 N 
ATOM     13  H10 UNL     1      21.341 -13.942 -14.069  1.00  0.00     0.161 HD
BRANCH  11  14
HETATM   14  O4  UNL     1      22.816 -12.124 -13.096  1.00  0.00    -0.349 OA
ATOM     15  H4  UNL     1      22.636 -12.096 -14.028  1.00  0.00     0.219 HD
ENDBRANCH  11  14
BRANCH  12  16
HETATM   16  C14 UNL     1      20.603 -14.996 -12.509  1.00  0.00     0.115 C 
HETATM   17  C15 UNL     1      20.937 -15.223 -11.016  1.00  0.00     0.060 C 
HETATM   18  C16 UNL     1      20.332 -16.608 -10.866  1.00  0.00     0.128 C 
HETATM   19  C17 UNL     1      19.082 -16.560 -11.694  1.00  0.00     0.068 C 
HETATM   20  C24 UNL     1      19.160 -15.239 -12.507  1.00  0.00     0.149 C 
BRANCH  18  21
HETATM   21  O5  UNL     1      21.273 -17.496 -11.439  1.00  0.00    -0.395 OA
ATOM     22  H5  UNL     1      21.517 -18.093 -10.741  1.00  0.00     0.210 HD
ENDBRANCH  18  21
BRANCH  19  23
HETATM   23  C18 UNL     1      17.869 -16.528 -10.754  1.00  0.00     0.100 C 
HETATM   24  C19 UNL     1      18.345 -16.542  -9.346  1.00  0.00     0.129 C 
HETATM   25  C20 UNL     1      17.690 -15.571  -8.448  1.00  0.00     0.226 C 
HETATM   26  O6  UNL     1      17.814 -15.647  -7.187  1.00  0.00    -0.273 OA
HETATM   27  N11 UNL     1      16.906 -14.524  -8.983  1.00  0.00    -0.311 N 
HETATM   28  C21 UNL     1      16.361 -13.447  -8.177  1.00  0.00     0.160 C 
HETATM   29  C22 UNL     1      16.612 -14.482 -10.375  1.00  0.00     0.107 C 
HETATM   30  N13 UNL     1      17.074 -15.415 -11.141  1.00  0.00    -0.372 N 
ATOM     31  H13 UNL     1      16.843 -15.345 -12.131  1.00  0.00     0.161 HD
BRANCH  29  32
HETATM   32  C23 UNL     1      15.799 -13.402 -10.965  1.00  0.00     0.305 C 
BRANCH  32  33
HETATM   33  N12 UNL     1      15.355 -13.703 -12.311  1.00  0.00    -0.073 N 
ATOM     34 3H12 UNL     1      14.700 -14.485 -12.313  1.00  0.00     0.274 HD
ATOM     35 2H12 UNL     1      14.740 -12.971 -12.664  1.00  0.00     0.274 HD
ATOM     36 1H12 UNL     1      16.128 -13.873 -12.955  1.00  0.00     0.274 HD
ENDBRANCH  32  33
ENDBRANCH  29  32
ENDBRANCH  19  23
BRANCH  20  37
HETATM   37  O7  UNL     1      18.652 -15.473 -13.779  1.00  0.00    -0.393 OA
ATOM     38  H7  UNL     1      18.637 -16.395 -14.005  1.00  0.00     0.210 HD
ENDBRANCH  20  37
ENDBRANCH  12  16
ENDBRANCH  10  11
ENDBRANCH   7  10
ENDBRANCH   6   7
BRANCH   1  39
HETATM   39  C2  UNL     1      21.313  -9.171  -7.905  1.00  0.00     0.242 C 
BRANCH  39  40
HETATM   40  N1  UNL     1      20.929  -8.147  -8.837  1.00  0.00    -0.079 N 
HETATM   41  C1  UNL     1      21.806  -6.995  -8.647  1.00  0.00     0.267 C 
ATOM     42  H12 UNL     1      19.942  -7.903  -8.765  1.00  0.00     0.276 HD
ATOM     43  H11 UNL     1      20.922  -8.479  -9.801  1.00  0.00     0.276 HD
ENDBRANCH  39  40
ENDBRANCH   1  39
BRANCH   2  44
HETATM   44  N2  UNL     1      22.056 -11.732  -6.352  1.00  0.00    -0.220 N 
ATOM     45  H2  UNL     1      22.806 -11.245  -5.862  1.00  0.00     0.178 HD
BRANCH  44  46
HETATM   46  C5  UNL     1      21.232 -12.400  -5.653  1.00  0.00     0.697 A 
HETATM   47  N3  UNL     1      19.907 -12.310  -5.804  1.00  0.00    -0.140 N 
HETATM   48  C6  UNL     1      19.030 -13.040  -5.033  1.00  0.00     0.352 A 
ATOM     49  H3  UNL     1      19.533 -11.681  -6.515  1.00  0.00     0.189 HD
HETATM   50  O1  UNL     1      17.795 -12.948  -5.183  1.00  0.00    -0.246 OA
HETATM   51  N4  UNL     1      19.556 -13.869  -4.098  1.00  0.00    -0.139 N 
HETATM   52  C7  UNL     1      20.880 -13.973  -3.931  1.00  0.00     0.715 A 
ATOM     53  H4  UNL     1      18.931 -14.422  -3.511  1.00  0.00     0.189 HD
HETATM   54  N7  UNL     1      21.675 -13.240  -4.710  1.00  0.00    -0.021 N 
ATOM     55  H7  UNL     1      22.683 -13.323  -4.579  1.00  0.00     0.203 HD
BRANCH  52  56
HETATM   56  N5  UNL     1      21.296 -14.790  -3.010  1.00  0.00    -0.138 N 
ATOM     57  H5  UNL     1      22.230 -14.720  -2.606  1.00  0.00     0.205 HD
BRANCH  56  58
HETATM   58  N6  UNL     1      20.382 -15.772  -2.606  1.00  0.00    -0.331 N 
ATOM     59  H62 UNL     1      19.471 -15.519  -2.221  1.00  0.00     0.177 HD
ATOM     60  H61 UNL     1      20.687 -16.738  -2.723  1.00  0.00     0.177 HD
ENDBRANCH  56  58
ENDBRANCH  52  56
ENDBRANCH  44  46
ENDBRANCH   2  44
BRANCH   4  61
HETATM   61  C10 UNL     1      24.841 -10.010  -9.559  1.00  0.00     0.261 C 
BRANCH  61  62
HETATM   62  N8  UNL     1      24.813  -9.172  -8.372  1.00  0.00    -0.077 N 
ATOM     63  H83 UNL     1      24.724  -9.724  -7.519  1.00  0.00     0.274 HD
ATOM     64  H82 UNL     1      25.722  -8.749  -8.184  1.00  0.00     0.274 HD
ATOM     65  H81 UNL     1      24.076  -8.471  -8.450  1.00  0.00     0.274 HD
ENDBRANCH  61  62
ENDBRANCH   4  61
TORSDOF 19
ENDMDL
MODEL 5
REMARK VINA RESULT: -6.152188283      2.252      7.931
REMARK  19 active torsions:
REMARK  status: ('A' for Active; 'I' for Inactive)
REMARK    1  A    between atoms: N1_2  and  C2_5 
REMARK    2  A    between atoms: C2_5  and  C3_6 
REMARK    3  A    between atoms: C4_7  and  N2_8 
REMARK    4  A    between atoms: N2_8  and  C5_10 
REMARK    5  A    between atoms: C7_17  and  N5_18 
REMARK    6  A    between atoms: N5_18  and  N6_20 
REMARK    7  A    between atoms: C9_26  and  C10_27 
REMARK    8  A    between atoms: C10_27  and  N8_28 
REMARK    9  A    between atoms: C11_33  and  N9_34 
REMARK   10  A    between atoms: N9_34  and  O3_35 
REMARK   11  A    between atoms: N9_34  and  C12_37 
REMARK   12  A    between atoms: C12_37  and  C13_38 
REMARK   13  A    between atoms: C13_38  and  O4_39 
REMARK   14  A    between atoms: N10_41  and  C14_43 
REMARK   15  A    between atoms: C16_45  and  O5_46 
REMARK   16  A    between atoms: C17_48  and  C18_49 
REMARK   17  A    between atoms: C22_55  and  C23_56 
REMARK   18  A    between atoms: C23_56  and  N12_57 
REMARK   19  A    between atoms: C24_63  and  O7_64 
ROOT
HETATM    1  C3  UNL     1      18.131 -12.517  -6.255  1.00  0.00     0.080 C 
HETATM    2  C4  UNL     1      19.188 -12.449  -7.284  1.00  0.00     0.111 C 
HETATM    3  C8  UNL     1      19.071 -13.529  -8.337  1.00  0.00     0.060 C 
HETATM    4  C9  UNL     1      18.486 -14.791  -7.837  1.00  0.00     0.151 C 
HETATM    5  O2  UNL     1      17.778 -14.770  -6.687  1.00  0.00    -0.362 OA
HETATM    6  C11 UNL     1      18.129 -13.947  -5.675  1.00  0.00     0.229 C 
ENDROOT
BRANCH   6   7
HETATM    7  N9  UNL     1      19.259 -14.212  -4.906  1.00  0.00    -0.162 NA
BRANCH   7   8
HETATM    8  O3  UNL     1      19.428 -13.407  -3.831  1.00  0.00    -0.310 OA
ATOM      9  H3  UNL     1      19.566 -13.857  -3.005  1.00  0.00     0.237 HD
ENDBRANCH   7   8
BRANCH   7  10
HETATM   10  C12 UNL     1      19.470 -15.559  -4.445  1.00  0.00     0.207 C 
BRANCH  10  11
HETATM   11  C13 UNL     1      20.623 -15.769  -3.526  1.00  0.00     0.127 C 
HETATM   12  N10 UNL     1      21.730 -14.998  -3.728  1.00  0.00    -0.366 N 
ATOM     13  H10 UNL     1      21.888 -14.275  -3.027  1.00  0.00     0.161 HD
BRANCH  11  14
HETATM   14  O4  UNL     1      20.134 -15.911  -2.204  1.00  0.00    -0.349 OA
ATOM     15  H4  UNL     1      20.813 -15.645  -1.596  1.00  0.00     0.219 HD
ENDBRANCH  11  14
BRANCH  12  16
HETATM   16  C14 UNL     1      22.659 -15.048  -4.728  1.00  0.00     0.115 C 
HETATM   17  C15 UNL     1      22.678 -16.394  -5.490  1.00  0.00     0.060 C 
HETATM   18  C16 UNL     1      23.972 -16.192  -6.257  1.00  0.00     0.128 C 
HETATM   19  C17 UNL     1      23.957 -14.740  -6.637  1.00  0.00     0.068 C 
HETATM   20  C24 UNL     1      22.787 -14.104  -5.838  1.00  0.00     0.149 C 
BRANCH  18  21
HETATM   21  O5  UNL     1      25.008 -16.451  -5.328  1.00  0.00    -0.395 OA
ATOM     22  H5  UNL     1      25.755 -15.950  -5.634  1.00  0.00     0.210 HD
ENDBRANCH  18  21
BRANCH  19  23
HETATM   23  C18 UNL     1      23.688 -14.628  -8.144  1.00  0.00     0.100 C 
HETATM   24  C19 UNL     1      22.561 -13.682  -8.367  1.00  0.00     0.129 C 
HETATM   25  C20 UNL     1      22.772 -12.689  -9.438  1.00  0.00     0.226 C 
HETATM   26  O6  UNL     1      21.812 -12.000  -9.900  1.00  0.00    -0.273 OA
HETATM   27  N11 UNL     1      24.064 -12.483  -9.973  1.00  0.00    -0.311 N 
HETATM   28  C21 UNL     1      24.375 -11.423 -10.913  1.00  0.00     0.160 C 
HETATM   29  C22 UNL     1      25.143 -13.333  -9.599  1.00  0.00     0.107 C 
HETATM   30  N13 UNL     1      24.923 -14.293  -8.762  1.00  0.00    -0.372 N 
ATOM     31  H13 UNL     1      25.724 -14.874  -8.519  1.00  0.00     0.161 HD
BRANCH  29  32
HETATM   32  C23 UNL     1      26.503 -13.143 -10.136  1.00  0.00     0.305 C 
BRANCH  32  33
HETATM   33  N12 UNL     1      27.416 -12.569  -9.169  1.00  0.00    -0.073 N 
ATOM     34 3H12 UNL     1      26.960 -11.836  -8.626  1.00  0.00     0.274 HD
ATOM     35 2H12 UNL     1      27.615 -13.231  -8.418  1.00  0.00     0.274 HD
ATOM     36 1H12 UNL     1      28.279 -12.228  -9.592  1.00  0.00     0.274 HD
ENDBRANCH  32  33
ENDBRANCH  29  32
ENDBRANCH  19  23
BRANCH  20  37
HETATM   37  O7  UNL     1      23.175 -12.835  -5.424  1.00  0.00    -0.393 OA
ATOM     38  H7  UNL     1      23.213 -12.211  -6.138  1.00  0.00     0.210 HD
ENDBRANCH  20  37
ENDBRANCH  12  16
ENDBRANCH  10  11
ENDBRANCH   7  10
ENDBRANCH   6   7
BRANCH   1  39
HETATM   39  C2  UNL     1      16.744 -12.206  -6.620  1.00  0.00     0.242 C 
BRANCH  39  40
HETATM   40  N1  UNL     1      15.716 -12.794  -5.806  1.00  0.00    -0.079 N 
HETATM   41  C1  UNL     1      14.601 -13.171  -6.670  1.00  0.00     0.267 C 
ATOM     42  H12 UNL     1      15.429 -12.186  -5.039  1.00  0.00     0.276 HD
ATOM     43  H11 UNL     1      16.059 -13.574  -5.246  1.00  0.00     0.276 HD
ENDBRANCH  39  40
ENDBRANCH   1  39
BRANCH   2  44
HETATM   44  N2  UNL     1      19.314 -11.209  -8.008  1.00  0.00    -0.220 N 
ATOM     45  H2  UNL     1      18.561 -10.955  -8.647  1.00  0.00     0.178 HD
BRANCH  44  46
HETATM   46  C5  UNL     1      20.297 -10.411  -7.906  1.00  0.00     0.697 A 
HETATM   47  N3  UNL     1      21.355 -10.652  -7.126  1.00  0.00    -0.140 N 
HETATM   48  C6  UNL     1      22.409  -9.770  -7.026  1.00  0.00     0.352 A 
ATOM     49  H3  UNL     1      21.382 -11.516  -6.586  1.00  0.00     0.189 HD
HETATM   50  O1  UNL     1      23.391 -10.006  -6.295  1.00  0.00    -0.246 OA
HETATM   51  N4  UNL     1      22.344  -8.630  -7.756  1.00  0.00    -0.139 N 
HETATM   52  C7  UNL     1      21.294  -8.370  -8.545  1.00  0.00     0.715 A 
ATOM     53  H4  UNL     1      23.109  -7.957  -7.703  1.00  0.00     0.189 HD
HETATM   54  N7  UNL     1      20.306  -9.264  -8.596  1.00  0.00    -0.021 N 
ATOM     55  H7  UNL     1      19.508  -9.061  -9.199  1.00  0.00     0.203 HD
BRANCH  52  56
HETATM   56  N5  UNL     1      21.315  -7.253  -9.206  1.00  0.00    -0.138 N 
ATOM     57  H5  UNL     1      20.597  -7.015  -9.891  1.00  0.00     0.205 HD
BRANCH  56  58
HETATM   58  N6  UNL     1      22.384  -6.394  -8.921  1.00  0.00    -0.331 N 
ATOM     59  H62 UNL     1      22.775  -6.332  -7.981  1.00  0.00     0.177 HD
ATOM     60  H61 UNL     1      22.736  -5.846  -9.707  1.00  0.00     0.177 HD
ENDBRANCH  56  58
ENDBRANCH  52  56
ENDBRANCH  44  46
ENDBRANCH   2  44
BRANCH   4  61
HETATM   61  C10 UNL     1      17.563 -15.340  -8.942  1.00  0.00     0.261 C 
BRANCH  61  62
HETATM   62  N8  UNL     1      16.862 -14.251  -9.600  1.00  0.00    -0.077 N 
ATOM     63  H83 UNL     1      15.872 -14.459  -9.730  1.00  0.00     0.274 HD
ATOM     64  H82 UNL     1      16.767 -13.437  -8.993  1.00  0.00     0.274 HD
ATOM     65  H81 UNL     1      17.320 -14.017 -10.482  1.00  0.00     0.274 HD
ENDBRANCH  61  62
ENDBRANCH   4  61
TORSDOF 19
ENDMDL
