MODEL 1
REMARK VINA RESULT: -6.849328344      0.000      0.000
REMARK  14 active torsions:
REMARK  status: ('A' for Active; 'I' for Inactive)
REMARK    1  A    between atoms: N1_1  and  C1_5 
REMARK    2  A    between atoms: C1_5  and  C2_6 
REMARK       I    between atoms: C2_6  and  N2_8 
REMARK       I    between atoms: N2_8  and  C3_10 
REMARK       I    between atoms: C3_10  and  N3_12 
REMARK    3  A    between atoms: N3_12  and  C4_14 
REMARK    4  A    between atoms: C6_17  and  O4_18 
REMARK    5  A    between atoms: C7_20  and  C8_21 
REMARK    6  A    between atoms: C8_21  and  N4_22 
REMARK    7  A    between atoms: C8_21  and  C9_26 
REMARK    8  A    between atoms: C12_29  and  O5_30 
REMARK    9  A    between atoms: O5_30  and  S1_31 
REMARK   10  A    between atoms: C13_35  and  O9_36 
REMARK   11  A    between atoms: O9_36  and  C14_37 
REMARK   12  A    between atoms: C16_41  and  O10_42 
REMARK   13  A    between atoms: C17_44  and  O11_45 
REMARK   14  A    between atoms: C18_47  and  N6_48 
ROOT
HETATM    1  C9  UNL     1      18.672 -12.652  -9.597  1.00  0.00    -0.021 A 
HETATM    2  C10 UNL     1      18.575 -13.629 -10.576  1.00  0.00     0.012 A 
HETATM    3  C11 UNL     1      19.595 -13.907 -11.449  1.00  0.00     0.042 A 
HETATM    4  C12 UNL     1      20.754 -13.201 -11.356  1.00  0.00     0.125 A 
HETATM    5  C13 UNL     1      20.909 -12.207 -10.390  1.00  0.00     0.107 A 
HETATM    6  C20 UNL     1      19.871 -11.959  -9.542  1.00  0.00     0.049 A 
ENDROOT
BRANCH   1   7
HETATM    7  C8  UNL     1      17.526 -12.436  -8.712  1.00  0.00     0.251 C 
BRANCH   7   8
HETATM    8  C7  UNL     1      17.591 -13.333  -7.520  1.00  0.00     0.021 A 
HETATM    9  C6  UNL     1      17.753 -12.919  -6.121  1.00  0.00     0.176 A 
HETATM   10  C5  UNL     1      19.109 -12.526  -5.685  1.00  0.00     0.193 C 
HETATM   11  C22 UNL     1      17.852 -14.215  -5.327  1.00  0.00     0.204 A 
HETATM   12  C4  UNL     1      19.299 -13.859  -5.065  1.00  0.00     0.193 C 
HETATM   13  O3  UNL     1      19.787 -11.521  -5.792  1.00  0.00    -0.292 OA
HETATM   14  O12 UNL     1      17.608 -15.184  -6.296  1.00  0.00    -0.351 OA
HETATM   15  C21 UNL     1      17.512 -14.659  -7.564  1.00  0.00     0.144 A 
BRANCH   9  16
HETATM   16  O4  UNL     1      16.716 -12.149  -5.602  1.00  0.00    -0.374 OA
ATOM     17  H4  UNL     1      15.866 -12.573  -5.586  1.00  0.00     0.211 HD
ENDBRANCH   9  16
BRANCH  12  18
HETATM   18  N3  UNL     1      20.274 -14.702  -5.758  1.00  0.00    -0.329 N 
HETATM   19  C3  UNL     1      21.292 -15.344  -5.083  1.00  0.00     0.323 C 
HETATM   20  N2  UNL     1      22.292 -16.165  -5.601  1.00  0.00    -0.278 N 
HETATM   21  O2  UNL     1      21.325 -15.164  -3.804  1.00  0.00    -0.247 OA
HETATM   22  C2  UNL     1      22.569 -16.562  -6.920  1.00  0.00     0.251 C 
ATOM     23  H2  UNL     1      22.934 -16.541  -4.904  1.00  0.00     0.173 HD
HETATM   24  O1  UNL     1      23.590 -17.326  -7.087  1.00  0.00    -0.271 OA
ATOM     25  H3  UNL     1      20.199 -14.820  -6.769  1.00  0.00     0.165 HD
BRANCH  22  26
HETATM   26  C1  UNL     1      21.839 -16.217  -8.144  1.00  0.00     0.332 C 
BRANCH  26  27
HETATM   27  N1  UNL     1      22.236 -17.062  -9.268  1.00  0.00    -0.071 N 
ATOM     28  H13 UNL     1      23.191 -17.404  -9.156  1.00  0.00     0.274 HD
ATOM     29  H12 UNL     1      21.745 -17.955  -9.254  1.00  0.00     0.274 HD
ATOM     30  H11 UNL     1      22.115 -16.585 -10.161  1.00  0.00     0.274 HD
ENDBRANCH  26  27
ENDBRANCH  22  26
ENDBRANCH  12  18
ENDBRANCH   7   8
BRANCH   7  31
HETATM   31  N4  UNL     1      17.589 -11.043  -8.277  1.00  0.00    -0.067 N 
ATOM     32  H43 UNL     1      17.031 -10.874  -7.441  1.00  0.00     0.275 HD
ATOM     33  H42 UNL     1      18.503 -10.801  -7.894  1.00  0.00     0.275 HD
ATOM     34  H41 UNL     1      17.321 -10.433  -9.049  1.00  0.00     0.275 HD
ENDBRANCH   7  31
ENDBRANCH   1   7
BRANCH   5  35
HETATM   35  O9  UNL     1      22.121 -11.557 -10.382  1.00  0.00    -0.321 OA
BRANCH  35  36
HETATM   36  C14 UNL     1      23.051 -11.526  -9.332  1.00  0.00     0.248 C 
HETATM   37  N5  UNL     1      23.262 -12.770  -8.665  1.00  0.00    -0.392 N 
HETATM   38  C15 UNL     1      22.919 -12.807  -7.281  1.00  0.00     0.150 C 
ATOM     39  H5  UNL     1      23.636 -13.586  -9.151  1.00  0.00     0.155 HD
HETATM   40  C16 UNL     1      23.533 -11.748  -6.428  1.00  0.00     0.166 C 
HETATM   41  C17 UNL     1      23.750 -10.493  -7.236  1.00  0.00     0.175 C 
HETATM   42  C18 UNL     1      22.657 -10.467  -8.289  1.00  0.00     0.164 C 
BRANCH  40  43
HETATM   43  O10 UNL     1      24.750 -12.127  -5.861  1.00  0.00    -0.391 OA
ATOM     44  H10 UNL     1      25.425 -11.462  -5.932  1.00  0.00     0.210 HD
ENDBRANCH  40  43
BRANCH  41  45
HETATM   45  O11 UNL     1      23.706  -9.398  -6.401  1.00  0.00    -0.391 OA
ATOM     46  H11 UNL     1      23.113  -8.749  -6.762  1.00  0.00     0.210 HD
ENDBRANCH  41  45
BRANCH  42  47
HETATM   47  N6  UNL     1      22.560  -9.173  -8.914  1.00  0.00    -0.355 N 
HETATM   48  C19 UNL     1      21.460  -8.522  -8.922  1.00  0.00     0.197 C 
HETATM   49  N7  UNL     1      20.317  -9.122  -8.288  1.00  0.00    -0.067 NA
HETATM   50  N8  UNL     1      21.304  -7.239  -9.524  1.00  0.00    -0.067 NA
ATOM     51  H6  UNL     1      23.384  -8.768  -9.358  1.00  0.00     0.162 HD
ENDBRANCH  42  47
ENDBRANCH  35  36
ENDBRANCH   5  35
BRANCH   4  52
HETATM   52  O5  UNL     1      21.774 -13.499 -12.250  1.00  0.00    -0.211 OA
BRANCH  52  53
HETATM   53  S1  UNL     1      22.847 -14.788 -12.096  1.00  0.00     0.257 S 
HETATM   54  O6  UNL     1      23.613 -14.735 -10.785  1.00  0.00    -0.572 OA
HETATM   55  O7  UNL     1      23.859 -14.663 -13.226  1.00  0.00    -0.572 OA
HETATM   56  O8  UNL     1      22.108 -16.281 -12.220  1.00  0.00    -0.572 OA
ENDBRANCH  52  53
ENDBRANCH   4  52
TORSDOF 14
ENDMDL
MODEL 2
REMARK VINA RESULT: -6.806924497      2.633      5.154
REMARK  14 active torsions:
REMARK  status: ('A' for Active; 'I' for Inactive)
REMARK    1  A    between atoms: N1_1  and  C1_5 
REMARK    2  A    between atoms: C1_5  and  C2_6 
REMARK       I    between atoms: C2_6  and  N2_8 
REMARK       I    between atoms: N2_8  and  C3_10 
REMARK       I    between atoms: C3_10  and  N3_12 
REMARK    3  A    between atoms: N3_12  and  C4_14 
REMARK    4  A    between atoms: C6_17  and  O4_18 
REMARK    5  A    between atoms: C7_20  and  C8_21 
REMARK    6  A    between atoms: C8_21  and  N4_22 
REMARK    7  A    between atoms: C8_21  and  C9_26 
REMARK    8  A    between atoms: C12_29  and  O5_30 
REMARK    9  A    between atoms: O5_30  and  S1_31 
REMARK   10  A    between atoms: C13_35  and  O9_36 
REMARK   11  A    between atoms: O9_36  and  C14_37 
REMARK   12  A    between atoms: C16_41  and  O10_42 
REMARK   13  A    between atoms: C17_44  and  O11_45 
REMARK   14  A    between atoms: C18_47  and  N6_48 
ROOT
HETATM    1  C9  UNL     1      18.580 -12.427  -6.285  1.00  0.00    -0.021 A 
HETATM    2  C10 UNL     1      18.992 -13.203  -5.212  1.00  0.00     0.012 A 
HETATM    3  C11 UNL     1      20.313 -13.362  -4.878  1.00  0.00     0.042 A 
HETATM    4  C12 UNL     1      21.262 -12.735  -5.623  1.00  0.00     0.125 A 
HETATM    5  C13 UNL     1      20.906 -11.941  -6.713  1.00  0.00     0.107 A 
HETATM    6  C20 UNL     1      19.584 -11.809  -7.014  1.00  0.00     0.049 A 
ENDROOT
BRANCH   1   7
HETATM    7  C8  UNL     1      17.145 -12.318  -6.556  1.00  0.00     0.251 C 
BRANCH   7   8
HETATM    8  C7  UNL     1      16.816 -12.832  -7.919  1.00  0.00     0.021 A 
HETATM    9  C6  UNL     1      16.573 -14.230  -8.292  1.00  0.00     0.176 A 
HETATM   10  C5  UNL     1      17.754 -15.108  -8.434  1.00  0.00     0.193 C 
HETATM   11  C22 UNL     1      16.377 -14.216  -9.802  1.00  0.00     0.204 A 
HETATM   12  C4  UNL     1      17.695 -14.952  -9.907  1.00  0.00     0.193 C 
HETATM   13  O3  UNL     1      18.474 -15.707  -7.659  1.00  0.00    -0.292 OA
HETATM   14  O12 UNL     1      16.392 -12.855 -10.097  1.00  0.00    -0.351 OA
HETATM   15  C21 UNL     1      16.698 -12.076  -9.006  1.00  0.00     0.144 A 
BRANCH   9  16
HETATM   16  O4  UNL     1      15.462 -14.823  -7.698  1.00  0.00    -0.374 OA
ATOM     17  H4  UNL     1      15.172 -14.417  -6.889  1.00  0.00     0.211 HD
ENDBRANCH   9  16
BRANCH  12  18
HETATM   18  N3  UNL     1      18.795 -14.165 -10.466  1.00  0.00    -0.329 N 
HETATM   19  C3  UNL     1      19.169 -14.271 -11.790  1.00  0.00     0.323 C 
HETATM   20  N2  UNL     1      20.192 -13.601 -12.458  1.00  0.00    -0.278 N 
HETATM   21  O2  UNL     1      18.482 -15.099 -12.507  1.00  0.00    -0.247 OA
HETATM   22  C2  UNL     1      21.130 -12.659 -12.002  1.00  0.00     0.251 C 
ATOM     23  H2  UNL     1      20.275 -13.834 -13.447  1.00  0.00     0.173 HD
HETATM   24  O1  UNL     1      21.975 -12.225 -12.869  1.00  0.00    -0.271 OA
ATOM     25  H3  UNL     1      19.300 -13.518  -9.859  1.00  0.00     0.165 HD
BRANCH  22  26
HETATM   26  C1  UNL     1      21.273 -12.100 -10.654  1.00  0.00     0.332 C 
BRANCH  26  27
HETATM   27  N1  UNL     1      22.186 -12.893  -9.834  1.00  0.00    -0.071 N 
ATOM     28  H13 UNL     1      23.157 -12.747 -10.112  1.00  0.00     0.274 HD
ATOM     29  H12 UNL     1      22.238 -12.534  -8.881  1.00  0.00     0.274 HD
ATOM     30  H11 UNL     1      21.941 -13.883  -9.845  1.00  0.00     0.274 HD
ENDBRANCH  26  27
ENDBRANCH  22  26
ENDBRANCH  12  18
ENDBRANCH   7   8
BRANCH   7  31
HETATM   31  N4  UNL     1      16.465 -13.132  -5.552  1.00  0.00    -0.067 N 
ATOM     32  H43 UNL     1      16.714 -14.118  -5.622  1.00  0.00     0.275 HD
ATOM     33  H42 UNL     1      16.820 -12.959  -4.611  1.00  0.00     0.275 HD
ATOM     34  H41 UNL     1      15.459 -12.983  -5.618  1.00  0.00     0.275 HD
ENDBRANCH   7  31
ENDBRANCH   1   7
BRANCH   5  35
HETATM   35  O9  UNL     1      21.945 -11.352  -7.395  1.00  0.00    -0.321 OA
BRANCH  35  36
HETATM   36  C14 UNL     1      22.200  -9.977  -7.514  1.00  0.00     0.248 C 
HETATM   37  N5  UNL     1      21.119  -9.198  -8.026  1.00  0.00    -0.392 N 
HETATM   38  C15 UNL     1      21.360  -8.525  -9.260  1.00  0.00     0.150 C 
ATOM     39  H5  UNL     1      20.226  -9.126  -7.537  1.00  0.00     0.155 HD
HETATM   40  C16 UNL     1      22.577  -7.664  -9.308  1.00  0.00     0.166 C 
HETATM   41  C17 UNL     1      23.644  -8.225  -8.402  1.00  0.00     0.175 C 
HETATM   42  C18 UNL     1      23.443  -9.729  -8.384  1.00  0.00     0.164 C 
BRANCH  40  43
HETATM   43  O10 UNL     1      22.335  -6.339  -8.943  1.00  0.00    -0.391 OA
ATOM     44  H10 UNL     1      23.088  -5.771  -9.058  1.00  0.00     0.210 HD
ENDBRANCH  40  43
BRANCH  41  45
HETATM   45  O11 UNL     1      24.886  -7.863  -8.879  1.00  0.00    -0.391 OA
ATOM     46  H11 UNL     1      25.358  -7.390  -8.203  1.00  0.00     0.210 HD
ENDBRANCH  41  45
BRANCH  42  47
HETATM   47  N6  UNL     1      24.582 -10.405  -7.818  1.00  0.00    -0.355 N 
HETATM   48  C19 UNL     1      25.275 -11.228  -8.508  1.00  0.00     0.197 C 
HETATM   49  N7  UNL     1      24.883 -11.461  -9.872  1.00  0.00    -0.067 NA
HETATM   50  N8  UNL     1      26.412 -11.925  -8.002  1.00  0.00    -0.067 NA
ATOM     51  H6  UNL     1      24.841 -10.224  -6.847  1.00  0.00     0.162 HD
ENDBRANCH  42  47
ENDBRANCH  35  36
ENDBRANCH   5  35
BRANCH   4  52
HETATM   52  O5  UNL     1      22.593 -12.911  -5.266  1.00  0.00    -0.211 OA
BRANCH  52  53
HETATM   53  S1  UNL     1      23.623 -14.070  -5.921  1.00  0.00     0.257 S 
HETATM   54  O6  UNL     1      23.490 -14.161  -7.431  1.00  0.00    -0.572 OA
HETATM   55  O7  UNL     1      23.206 -15.415  -5.341  1.00  0.00    -0.572 OA
HETATM   56  O8  UNL     1      25.230 -13.815  -5.542  1.00  0.00    -0.572 OA
ENDBRANCH  52  53
ENDBRANCH   4  52
TORSDOF 14
ENDMDL
MODEL 3
REMARK VINA RESULT: -6.737717416      2.514      6.659
REMARK  14 active torsions:
REMARK  status: ('A' for Active; 'I' for Inactive)
REMARK    1  A    between atoms: N1_1  and  C1_5 
REMARK    2  A    between atoms: C1_5  and  C2_6 
REMARK       I    between atoms: C2_6  and  N2_8 
REMARK       I    between atoms: N2_8  and  C3_10 
REMARK       I    between atoms: C3_10  and  N3_12 
REMARK    3  A    between atoms: N3_12  and  C4_14 
REMARK    4  A    between atoms: C6_17  and  O4_18 
REMARK    5  A    between atoms: C7_20  and  C8_21 
REMARK    6  A    between atoms: C8_21  and  N4_22 
REMARK    7  A    between atoms: C8_21  and  C9_26 
REMARK    8  A    between atoms: C12_29  and  O5_30 
REMARK    9  A    between atoms: O5_30  and  S1_31 
REMARK   10  A    between atoms: C13_35  and  O9_36 
REMARK   11  A    between atoms: O9_36  and  C14_37 
REMARK   12  A    between atoms: C16_41  and  O10_42 
REMARK   13  A    between atoms: C17_44  and  O11_45 
REMARK   14  A    between atoms: C18_47  and  N6_48 
ROOT
HETATM    1  C9  UNL     1      19.380 -14.577 -10.508  1.00  0.00    -0.021 A 
HETATM    2  C10 UNL     1      18.005 -14.731 -10.433  1.00  0.00     0.012 A 
HETATM    3  C11 UNL     1      17.321 -14.711  -9.244  1.00  0.00     0.042 A 
HETATM    4  C12 UNL     1      18.013 -14.531  -8.088  1.00  0.00     0.125 A 
HETATM    5  C13 UNL     1      19.398 -14.369  -8.102  1.00  0.00     0.107 A 
HETATM    6  C20 UNL     1      20.042 -14.397  -9.304  1.00  0.00     0.049 A 
ENDROOT
BRANCH   1   7
HETATM    7  C8  UNL     1      20.015 -14.610 -11.827  1.00  0.00     0.251 C 
BRANCH   7   8
HETATM    8  C7  UNL     1      20.951 -13.460 -12.002  1.00  0.00     0.021 A 
HETATM    9  C6  UNL     1      22.399 -13.537 -12.230  1.00  0.00     0.176 A 
HETATM   10  C5  UNL     1      23.254 -13.833 -11.061  1.00  0.00     0.193 C 
HETATM   11  C22 UNL     1      22.882 -12.093 -12.242  1.00  0.00     0.204 A 
HETATM   12  C4  UNL     1      23.589 -12.394 -10.938  1.00  0.00     0.193 C 
HETATM   13  O3  UNL     1      23.555 -14.843 -10.453  1.00  0.00    -0.292 OA
HETATM   14  O12 UNL     1      21.692 -11.374 -12.161  1.00  0.00    -0.351 OA
HETATM   15  C21 UNL     1      20.594 -12.180 -11.970  1.00  0.00     0.144 A 
BRANCH   9  16
HETATM   16  O4  UNL     1      22.785 -14.153 -13.418  1.00  0.00    -0.374 OA
ATOM     17  H4  UNL     1      23.214 -13.585 -14.047  1.00  0.00     0.211 HD
ENDBRANCH   9  16
BRANCH  12  18
HETATM   18  N3  UNL     1      23.007 -11.747  -9.761  1.00  0.00    -0.329 N 
HETATM   19  C3  UNL     1      23.728 -10.862  -8.986  1.00  0.00     0.323 C 
HETATM   20  N2  UNL     1      23.318 -10.181  -7.841  1.00  0.00    -0.278 N 
HETATM   21  O2  UNL     1      24.941 -10.632  -9.368  1.00  0.00    -0.247 OA
HETATM   22  C2  UNL     1      22.098 -10.197  -7.144  1.00  0.00     0.251 C 
ATOM     23  H2  UNL     1      24.025  -9.565  -7.440  1.00  0.00     0.173 HD
HETATM   24  O1  UNL     1      22.027  -9.459  -6.094  1.00  0.00    -0.271 OA
ATOM     25  H3  UNL     1      22.041 -11.956  -9.507  1.00  0.00     0.165 HD
BRANCH  22  26
HETATM   26  C1  UNL     1      20.882 -10.953  -7.461  1.00  0.00     0.332 C 
BRANCH  26  27
HETATM   27  N1  UNL     1      20.236 -11.469  -6.256  1.00  0.00    -0.071 N 
ATOM     28  H13 UNL     1      20.160 -12.486  -6.281  1.00  0.00     0.274 HD
ATOM     29  H12 UNL     1      20.842 -11.376  -5.441  1.00  0.00     0.274 HD
ATOM     30  H11 UNL     1      19.329 -11.032  -6.098  1.00  0.00     0.274 HD
ENDBRANCH  26  27
ENDBRANCH  22  26
ENDBRANCH  12  18
ENDBRANCH   7   8
BRANCH   7  31
HETATM   31  N4  UNL     1      20.763 -15.862 -11.901  1.00  0.00    -0.067 N 
ATOM     32  H43 UNL     1      21.027 -16.098 -12.858  1.00  0.00     0.275 HD
ATOM     33  H42 UNL     1      21.700 -15.775 -11.509  1.00  0.00     0.275 HD
ATOM     34  H41 UNL     1      20.226 -16.606 -11.455  1.00  0.00     0.275 HD
ENDBRANCH   7  31
ENDBRANCH   1   7
BRANCH   5  35
HETATM   35  O9  UNL     1      19.998 -14.191  -6.878  1.00  0.00    -0.321 OA
BRANCH  35  36
HETATM   36  C14 UNL     1      20.294 -15.187  -5.934  1.00  0.00     0.248 C 
HETATM   37  N5  UNL     1      19.329 -15.351  -4.896  1.00  0.00    -0.392 N 
HETATM   38  C15 UNL     1      19.785 -15.097  -3.569  1.00  0.00     0.150 C 
ATOM     39  H5  UNL     1      18.368 -15.634  -5.092  1.00  0.00     0.155 HD
HETATM   40  C16 UNL     1      21.009 -15.838  -3.146  1.00  0.00     0.166 C 
HETATM   41  C17 UNL     1      21.898 -16.091  -4.336  1.00  0.00     0.175 C 
HETATM   42  C18 UNL     1      21.669 -14.937  -5.295  1.00  0.00     0.164 C 
BRANCH  40  43
HETATM   43  O10 UNL     1      20.733 -17.059  -2.529  1.00  0.00    -0.391 OA
ATOM     44  H10 UNL     1      19.842 -17.127  -2.206  1.00  0.00     0.210 HD
ENDBRANCH  40  43
BRANCH  41  45
HETATM   45  O11 UNL     1      23.209 -16.179  -3.917  1.00  0.00    -0.391 OA
ATOM     46  H11 UNL     1      23.691 -15.422  -4.229  1.00  0.00     0.210 HD
ENDBRANCH  41  45
BRANCH  42  47
HETATM   47  N6  UNL     1      22.685 -14.892  -6.316  1.00  0.00    -0.355 N 
HETATM   48  C19 UNL     1      23.432 -13.865  -6.462  1.00  0.00     0.197 C 
HETATM   49  N7  UNL     1      23.227 -12.750  -5.576  1.00  0.00    -0.067 NA
HETATM   50  N8  UNL     1      24.453 -13.764  -7.453  1.00  0.00    -0.067 NA
ATOM     51  H6  UNL     1      22.812 -15.695  -6.933  1.00  0.00     0.162 HD
ENDBRANCH  42  47
ENDBRANCH  35  36
ENDBRANCH   5  35
BRANCH   4  52
HETATM   52  O5  UNL     1      17.300 -14.513  -6.896  1.00  0.00    -0.211 OA
BRANCH  52  53
HETATM   53  S1  UNL     1      16.647 -13.135  -6.182  1.00  0.00     0.257 S 
HETATM   54  O6  UNL     1      16.493 -11.998  -7.177  1.00  0.00    -0.572 OA
HETATM   55  O7  UNL     1      17.630 -12.679  -5.113  1.00  0.00    -0.572 OA
HETATM   56  O8  UNL     1      15.170 -13.407  -5.451  1.00  0.00    -0.572 OA
ENDBRANCH  52  53
ENDBRANCH   4  52
TORSDOF 14
ENDMDL
MODEL 4
REMARK VINA RESULT: -6.645278478      2.642      5.630
REMARK  14 active torsions:
REMARK  status: ('A' for Active; 'I' for Inactive)
REMARK    1  A    between atoms: N1_1  and  C1_5 
REMARK    2  A    between atoms: C1_5  and  C2_6 
REMARK       I    between atoms: C2_6  and  N2_8 
REMARK       I    between atoms: N2_8  and  C3_10 
REMARK       I    between atoms: C3_10  and  N3_12 
REMARK    3  A    between atoms: N3_12  and  C4_14 
REMARK    4  A    between atoms: C6_17  and  O4_18 
REMARK    5  A    between atoms: C7_20  and  C8_21 
REMARK    6  A    between atoms: C8_21  and  N4_22 
REMARK    7  A    between atoms: C8_21  and  C9_26 
REMARK    8  A    between atoms: C12_29  and  O5_30 
REMARK    9  A    between atoms: O5_30  and  S1_31 
REMARK   10  A    between atoms: C13_35  and  O9_36 
REMARK   11  A    between atoms: O9_36  and  C14_37 
REMARK   12  A    between atoms: C16_41  and  O10_42 
REMARK   13  A    between atoms: C17_44  and  O11_45 
REMARK   14  A    between atoms: C18_47  and  N6_48 
ROOT
HETATM    1  C9  UNL     1      16.950 -13.149  -9.320  1.00  0.00    -0.021 A 
HETATM    2  C10 UNL     1      16.641 -13.292  -7.976  1.00  0.00     0.012 A 
HETATM    3  C11 UNL     1      17.468 -12.852  -6.974  1.00  0.00     0.042 A 
HETATM    4  C12 UNL     1      18.641 -12.248  -7.305  1.00  0.00     0.125 A 
HETATM    5  C13 UNL     1      19.005 -12.076  -8.640  1.00  0.00     0.107 A 
HETATM    6  C20 UNL     1      18.156 -12.528  -9.606  1.00  0.00     0.049 A 
ENDROOT
BRANCH   1   7
HETATM    7  C8  UNL     1      15.997 -13.649 -10.312  1.00  0.00     0.251 C 
BRANCH   7   8
HETATM    8  C7  UNL     1      16.658 -14.592 -11.264  1.00  0.00     0.021 A 
HETATM    9  C6  UNL     1      17.107 -15.958 -10.971  1.00  0.00     0.176 A 
HETATM   10  C5  UNL     1      18.369 -16.108 -10.214  1.00  0.00     0.193 C 
HETATM   11  C22 UNL     1      17.791 -16.438 -12.244  1.00  0.00     0.204 A 
HETATM   12  C4  UNL     1      19.094 -16.393 -11.475  1.00  0.00     0.193 C 
HETATM   13  O3  UNL     1      18.680 -16.028  -9.041  1.00  0.00    -0.292 OA
HETATM   14  O12 UNL     1      17.547 -15.394 -13.131  1.00  0.00    -0.351 OA
HETATM   15  C21 UNL     1      16.939 -14.316 -12.533  1.00  0.00     0.144 A 
BRANCH   9  16
HETATM   16  O4  UNL     1      16.102 -16.858 -10.630  1.00  0.00    -0.374 OA
ATOM     17  H4  UNL     1      15.750 -16.758  -9.753  1.00  0.00     0.211 HD
ENDBRANCH   9  16
BRANCH  12  18
HETATM   18  N3  UNL     1      20.012 -15.330 -11.886  1.00  0.00    -0.329 N 
HETATM   19  C3  UNL     1      21.200 -15.603 -12.533  1.00  0.00     0.323 C 
HETATM   20  N2  UNL     1      22.172 -14.706 -12.973  1.00  0.00    -0.278 N 
HETATM   21  O2  UNL     1      21.446 -16.850 -12.762  1.00  0.00    -0.247 OA
HETATM   22  C2  UNL     1      22.245 -13.306 -12.884  1.00  0.00     0.251 C 
ATOM     23  H2  UNL     1      22.967 -15.141 -13.440  1.00  0.00     0.173 HD
HETATM   24  O1  UNL     1      23.295 -12.753 -13.379  1.00  0.00    -0.271 OA
ATOM     25  H3  UNL     1      19.767 -14.359 -11.689  1.00  0.00     0.165 HD
BRANCH  22  26
HETATM   26  C1  UNL     1      21.270 -12.382 -12.294  1.00  0.00     0.332 C 
BRANCH  26  27
HETATM   27  N1  UNL     1      21.919 -11.358 -11.479  1.00  0.00    -0.071 N 
ATOM     28  H13 UNL     1      22.156 -11.715 -10.553  1.00  0.00     0.274 HD
ATOM     29  H12 UNL     1      22.860 -11.155 -11.817  1.00  0.00     0.274 HD
ATOM     30  H11 UNL     1      21.355 -10.511 -11.418  1.00  0.00     0.274 HD
ENDBRANCH  26  27
ENDBRANCH  22  26
ENDBRANCH  12  18
ENDBRANCH   7   8
BRANCH   7  31
HETATM   31  N4  UNL     1      14.954 -14.354  -9.573  1.00  0.00    -0.067 N 
ATOM     32  H43 UNL     1      14.652 -15.204 -10.049  1.00  0.00     0.275 HD
ATOM     33  H42 UNL     1      15.310 -14.784  -8.720  1.00  0.00     0.275 HD
ATOM     34  H41 UNL     1      14.178 -13.718  -9.391  1.00  0.00     0.275 HD
ENDBRANCH   7  31
ENDBRANCH   1   7
BRANCH   5  35
HETATM   35  O9  UNL     1      20.209 -11.451  -8.862  1.00  0.00    -0.321 OA
BRANCH  35  36
HETATM   36  C14 UNL     1      20.748 -10.381  -8.131  1.00  0.00     0.248 C 
HETATM   37  N5  UNL     1      20.438  -9.081  -8.632  1.00  0.00    -0.392 N 
HETATM   38  C15 UNL     1      21.547  -8.291  -9.057  1.00  0.00     0.150 C 
ATOM     39  H5  UNL     1      19.478  -8.738  -8.684  1.00  0.00     0.155 HD
HETATM   40  C16 UNL     1      22.646  -8.121  -8.063  1.00  0.00     0.166 C 
HETATM   41  C17 UNL     1      22.736  -9.339  -7.177  1.00  0.00     0.175 C 
HETATM   42  C18 UNL     1      22.275 -10.515  -8.019  1.00  0.00     0.164 C 
BRANCH  40  43
HETATM   43  O10 UNL     1      22.496  -6.994  -7.255  1.00  0.00    -0.391 OA
ATOM     44  H10 UNL     1      23.066  -6.995  -6.494  1.00  0.00     0.210 HD
ENDBRANCH  40  43
BRANCH  41  45
HETATM   45  O11 UNL     1      24.031  -9.484  -6.729  1.00  0.00    -0.391 OA
ATOM     46  H11 UNL     1      24.061 -10.165  -6.067  1.00  0.00     0.210 HD
ENDBRANCH  41  45
BRANCH  42  47
HETATM   47  N6  UNL     1      22.615 -11.770  -7.398  1.00  0.00    -0.355 N 
HETATM   48  C19 UNL     1      23.381 -12.611  -7.979  1.00  0.00     0.197 C 
HETATM   49  N7  UNL     1      23.898 -12.267  -9.277  1.00  0.00    -0.067 NA
HETATM   50  N8  UNL     1      23.753 -13.867  -7.414  1.00  0.00    -0.067 NA
ATOM     51  H6  UNL     1      22.236 -11.992  -6.477  1.00  0.00     0.162 HD
ENDBRANCH  42  47
ENDBRANCH  35  36
ENDBRANCH   5  35
BRANCH   4  52
HETATM   52  O5  UNL     1      19.463 -11.810  -6.274  1.00  0.00    -0.211 OA
BRANCH  52  53
HETATM   53  S1  UNL     1      20.302 -12.815  -5.215  1.00  0.00     0.257 S 
HETATM   54  O6  UNL     1      19.447 -13.234  -4.032  1.00  0.00    -0.572 OA
HETATM   55  O7  UNL     1      21.475 -12.011  -4.673  1.00  0.00    -0.572 OA
HETATM   56  O8  UNL     1      20.906 -14.189  -5.949  1.00  0.00    -0.572 OA
ENDBRANCH  52  53
ENDBRANCH   4  52
TORSDOF 14
ENDMDL
MODEL 5
REMARK VINA RESULT: -6.622396905      2.706      4.650
REMARK  14 active torsions:
REMARK  status: ('A' for Active; 'I' for Inactive)
REMARK    1  A    between atoms: N1_1  and  C1_5 
REMARK    2  A    between atoms: C1_5  and  C2_6 
REMARK       I    between atoms: C2_6  and  N2_8 
REMARK       I    between atoms: N2_8  and  C3_10 
REMARK       I    between atoms: C3_10  and  N3_12 
REMARK    3  A    between atoms: N3_12  and  C4_14 
REMARK    4  A    between atoms: C6_17  and  O4_18 
REMARK    5  A    between atoms: C7_20  and  C8_21 
REMARK    6  A    between atoms: C8_21  and  N4_22 
REMARK    7  A    between atoms: C8_21  and  C9_26 
REMARK    8  A    between atoms: C12_29  and  O5_30 
REMARK    9  A    between atoms: O5_30  and  S1_31 
REMARK   10  A    between atoms: C13_35  and  O9_36 
REMARK   11  A    between atoms: O9_36  and  C14_37 
REMARK   12  A    between atoms: C16_41  and  O10_42 
REMARK   13  A    between atoms: C17_44  and  O11_45 
REMARK   14  A    between atoms: C18_47  and  N6_48 
ROOT
HETATM    1  C9  UNL     1      21.993 -13.887 -10.276  1.00  0.00    -0.021 A 
HETATM    2  C10 UNL     1      23.322 -14.224 -10.480  1.00  0.00     0.012 A 
HETATM    3  C11 UNL     1      24.338 -13.741  -9.696  1.00  0.00     0.042 A 
HETATM    4  C12 UNL     1      24.037 -12.898  -8.673  1.00  0.00     0.125 A 
HETATM    5  C13 UNL     1      22.718 -12.524  -8.419  1.00  0.00     0.107 A 
HETATM    6  C20 UNL     1      21.736 -13.024  -9.222  1.00  0.00     0.049 A 
ENDROOT
BRANCH   1   7
HETATM    7  C8  UNL     1      20.982 -14.460 -11.168  1.00  0.00     0.251 C 
BRANCH   7   8
HETATM    8  C7  UNL     1      19.839 -15.026 -10.390  1.00  0.00     0.021 A 
HETATM    9  C6  UNL     1      18.475 -14.489 -10.325  1.00  0.00     0.176 A 
HETATM   10  C5  UNL     1      18.253 -13.308  -9.464  1.00  0.00     0.193 C 
HETATM   11  C22 UNL     1      17.740 -15.377  -9.330  1.00  0.00     0.204 A 
HETATM   12  C4  UNL     1      17.705 -14.184  -8.400  1.00  0.00     0.193 C 
HETATM   13  O3  UNL     1      18.443 -12.113  -9.582  1.00  0.00    -0.292 OA
HETATM   14  O12 UNL     1      18.682 -16.364  -9.052  1.00  0.00    -0.351 OA
HETATM   15  C21 UNL     1      19.904 -16.115  -9.632  1.00  0.00     0.144 A 
BRANCH   9  16
HETATM   16  O4  UNL     1      17.776 -14.484 -11.529  1.00  0.00    -0.374 OA
ATOM     17  H4  UNL     1      17.437 -15.328 -11.803  1.00  0.00     0.211 HD
ENDBRANCH   9  16
BRANCH  12  18
HETATM   18  N3  UNL     1      18.568 -14.298  -7.223  1.00  0.00    -0.329 N 
HETATM   19  C3  UNL     1      18.055 -14.545  -5.966  1.00  0.00     0.323 C 
HETATM   20  N2  UNL     1      18.742 -14.669  -4.759  1.00  0.00    -0.278 N 
HETATM   21  O2  UNL     1      16.772 -14.679  -5.894  1.00  0.00    -0.247 OA
HETATM   22  C2  UNL     1      20.112 -14.571  -4.462  1.00  0.00     0.251 C 
ATOM     23  H2  UNL     1      18.149 -14.865  -3.953  1.00  0.00     0.173 HD
HETATM   24  O1  UNL     1      20.444 -14.721  -3.229  1.00  0.00    -0.271 OA
ATOM     25  H3  UNL     1      19.576 -14.193  -7.334  1.00  0.00     0.165 HD
BRANCH  22  26
HETATM   26  C1  UNL     1      21.224 -14.317  -5.384  1.00  0.00     0.332 C 
BRANCH  26  27
HETATM   27  N1  UNL     1      22.127 -13.290  -4.871  1.00  0.00    -0.071 N 
ATOM     28  H13 UNL     1      21.614 -12.462  -4.565  1.00  0.00     0.274 HD
ATOM     29  H12 UNL     1      22.533 -13.564  -3.977  1.00  0.00     0.274 HD
ATOM     30  H11 UNL     1      22.850 -13.049  -5.549  1.00  0.00     0.274 HD
ENDBRANCH  26  27
ENDBRANCH  22  26
ENDBRANCH  12  18
ENDBRANCH   7   8
BRANCH   7  31
HETATM   31  N4  UNL     1      20.504 -13.371 -12.014  1.00  0.00    -0.067 N 
ATOM     32  H43 UNL     1      21.268 -12.811 -12.391  1.00  0.00     0.275 HD
ATOM     33  H42 UNL     1      20.122 -13.709 -12.898  1.00  0.00     0.275 HD
ATOM     34  H41 UNL     1      19.832 -12.806 -11.494  1.00  0.00     0.275 HD
ENDBRANCH   7  31
ENDBRANCH   1   7
BRANCH   5  35
HETATM   35  O9  UNL     1      22.526 -11.669  -7.360  1.00  0.00    -0.321 OA
BRANCH  35  36
HETATM   36  C14 UNL     1      21.985 -10.374  -7.411  1.00  0.00     0.248 C 
HETATM   37  N5  UNL     1      20.741 -10.260  -8.102  1.00  0.00    -0.392 N 
HETATM   38  C15 UNL     1      20.741  -9.430  -9.262  1.00  0.00     0.150 C 
ATOM     39  H5  UNL     1      19.901 -10.743  -7.784  1.00  0.00     0.155 HD
HETATM   40  C16 UNL     1      21.263  -8.044  -9.073  1.00  0.00     0.166 C 
HETATM   41  C17 UNL     1      22.317  -8.030  -7.995  1.00  0.00     0.175 C 
HETATM   42  C18 UNL     1      22.988  -9.391  -8.034  1.00  0.00     0.164 C 
BRANCH  40  43
HETATM   43  O10 UNL     1      20.273  -7.119  -8.740  1.00  0.00    -0.391 OA
ATOM     44  H10 UNL     1      20.539  -6.216  -8.875  1.00  0.00     0.210 HD
ENDBRANCH  40  43
BRANCH  41  45
HETATM   45  O11 UNL     1      23.199  -6.998  -8.231  1.00  0.00    -0.391 OA
ATOM     46  H11 UNL     1      23.294  -6.477  -7.441  1.00  0.00     0.210 HD
ENDBRANCH  41  45
BRANCH  42  47
HETATM   47  N6  UNL     1      24.214  -9.394  -7.278  1.00  0.00    -0.355 N 
HETATM   48  C19 UNL     1      25.343  -9.207  -7.846  1.00  0.00     0.197 C 
HETATM   49  N7  UNL     1      25.356  -8.992  -9.268  1.00  0.00    -0.067 NA
HETATM   50  N8  UNL     1      26.588  -9.198  -7.150  1.00  0.00    -0.067 NA
ATOM     51  H6  UNL     1      24.181  -9.549  -6.270  1.00  0.00     0.162 HD
ENDBRANCH  42  47
ENDBRANCH  35  36
ENDBRANCH   5  35
BRANCH   4  52
HETATM   52  O5  UNL     1      25.082 -12.421  -7.892  1.00  0.00    -0.211 OA
BRANCH  52  53
HETATM   53  S1  UNL     1      25.477 -12.990  -6.357  1.00  0.00     0.257 S 
HETATM   54  O6  UNL     1      24.741 -14.275  -6.021  1.00  0.00    -0.572 OA
HETATM   55  O7  UNL     1      25.031 -11.930  -5.360  1.00  0.00    -0.572 OA
HETATM   56  O8  UNL     1      27.115 -13.245  -6.149  1.00  0.00    -0.572 OA
ENDBRANCH  52  53
ENDBRANCH   4  52
TORSDOF 14
ENDMDL
