MODEL 1
REMARK VINA RESULT: -8.736018054      0.000      0.000
REMARK  12 active torsions:
REMARK  status: ('A' for Active; 'I' for Inactive)
REMARK    1  A    between atoms: N1_1  and  C1_5 
REMARK    2  A    between atoms: C2_6  and  O1_7 
REMARK    3  A    between atoms: O1_7  and  C3_8 
REMARK    4  A    between atoms: C5_11  and  O3_12 
REMARK    5  A    between atoms: C6_14  and  O4_15 
REMARK    6  A    between atoms: C7_17  and  O5_18 
REMARK    7  A    between atoms: C8_20  and  O6_21 
REMARK    8  A    between atoms: C10_24  and  O7_25 
REMARK    9  A    between atoms: O7_25  and  C11_26 
REMARK   10  A    between atoms: C15_33  and  O8_34 
REMARK   11  A    between atoms: O8_34  and  C16_35 
REMARK   12  A    between atoms: C16_35  and  C17_36 
ROOT
HETATM    1  C1  UNL     1      11.921  47.796  24.353  1.00  0.00     0.246 C 
HETATM    2  C2  UNL     1      12.742  48.761  25.115  1.00  0.00     0.186 C 
HETATM    3  C8  UNL     1      13.316  48.189  26.407  1.00  0.00     0.151 C 
HETATM    4  C9  UNL     1      12.170  47.694  27.222  1.00  0.00     0.069 C 
HETATM    5  C10 UNL     1      11.620  46.492  26.499  1.00  0.00     0.158 C 
HETATM    6  C15 UNL     1      11.108  46.821  25.126  1.00  0.00     0.183 C 
ENDROOT
BRANCH   2   7
HETATM    7  O1  UNL     1      13.838  49.137  24.378  1.00  0.00    -0.349 OA
BRANCH   7   8
HETATM    8  C3  UNL     1      13.852  50.416  23.922  1.00  0.00     0.291 C 
HETATM    9  O2  UNL     1      15.132  50.934  23.719  1.00  0.00    -0.356 OA
HETATM   10  C4  UNL     1      14.992  52.326  23.726  1.00  0.00     0.205 C 
HETATM   11  C5  UNL     1      14.203  52.800  22.515  1.00  0.00     0.173 C 
HETATM   12  C6  UNL     1      12.829  52.154  22.574  1.00  0.00     0.182 C 
HETATM   13  C7  UNL     1      13.070  50.654  22.662  1.00  0.00     0.204 C 
BRANCH  11  14
HETATM   14  O3  UNL     1      14.015  54.170  22.661  1.00  0.00    -0.391 OA
ATOM     15  H3  UNL     1      14.216  54.570  21.823  1.00  0.00     0.210 HD
ENDBRANCH  11  14
BRANCH  12  16
HETATM   16  O4  UNL     1      12.237  52.529  23.783  1.00  0.00    -0.390 OA
ATOM     17  H4  UNL     1      11.656  53.259  23.604  1.00  0.00     0.210 HD
ENDBRANCH  12  16
BRANCH  13  18
HETATM   18  O5  UNL     1      13.829  50.333  21.514  1.00  0.00    -0.388 OA
ATOM     19  H5  UNL     1      13.396  49.672  20.986  1.00  0.00     0.210 HD
ENDBRANCH  13  18
ENDBRANCH   7   8
ENDBRANCH   2   7
BRANCH   1  20
HETATM   20  N1  UNL     1      12.759  47.060  23.393  1.00  0.00    -0.070 N 
ATOM     21  H13 UNL     1      13.708  47.434  23.350  1.00  0.00     0.274 HD
ATOM     22  H12 UNL     1      12.983  46.121  23.724  1.00  0.00     0.274 HD
ATOM     23  H11 UNL     1      12.315  47.043  22.475  1.00  0.00     0.274 HD
ENDBRANCH   1  20
BRANCH   3  24
HETATM   24  O6  UNL     1      14.219  47.226  26.028  1.00  0.00    -0.393 OA
ATOM     25  H6  UNL     1      13.773  46.393  26.132  1.00  0.00     0.210 HD
ENDBRANCH   3  24
BRANCH   6  26
HETATM   26  O8  UNL     1       9.804  47.259  25.282  1.00  0.00    -0.377 OA
BRANCH  26  27
HETATM   27  C16 UNL     1       9.144  47.634  24.152  1.00  0.00     0.207 C 
BRANCH  27  28
HETATM   28  C17 UNL     1       8.581  48.997  24.225  1.00  0.00    -0.035 A 
HETATM   29  C18 UNL     1       7.270  49.263  24.529  1.00  0.00     0.009 A 
HETATM   30  C19 UNL     1       6.794  50.557  24.587  1.00  0.00     0.001 A 
HETATM   31  C20 UNL     1       7.618  51.643  24.343  1.00  0.00     0.000 A 
HETATM   32  C21 UNL     1       8.937  51.372  24.040  1.00  0.00     0.001 A 
HETATM   33  C22 UNL     1       9.421  50.082  23.979  1.00  0.00     0.009 A 
ENDBRANCH  27  28
ENDBRANCH  26  27
ENDBRANCH   6  26
BRANCH   5  34
HETATM   34  O7  UNL     1      12.620  45.523  26.486  1.00  0.00    -0.351 OA
BRANCH  34  35
HETATM   35  C11 UNL     1      12.188  44.363  25.906  1.00  0.00     0.321 C 
HETATM   36  C12 UNL     1      13.234  43.706  25.026  1.00  0.00     0.063 C 
HETATM   37  C13 UNL     1      12.588  42.342  24.792  1.00  0.00     0.032 C 
HETATM   38  C14 UNL     1      11.939  42.075  26.114  1.00  0.00     0.235 C 
HETATM   39  N2  UNL     1      11.893  43.305  26.847  1.00  0.00    -0.049 N 
ATOM     40  H22 UNL     1      12.505  43.310  27.663  1.00  0.00     0.280 HD
ATOM     41  H21 UNL     1      11.014  43.443  27.345  1.00  0.00     0.280 HD
ENDBRANCH  34  35
ENDBRANCH   5  34
TORSDOF 12
ENDMDL
MODEL 2
REMARK VINA RESULT: -8.028773196      1.300      1.657
REMARK  12 active torsions:
REMARK  status: ('A' for Active; 'I' for Inactive)
REMARK    1  A    between atoms: N1_1  and  C1_5 
REMARK    2  A    between atoms: C2_6  and  O1_7 
REMARK    3  A    between atoms: O1_7  and  C3_8 
REMARK    4  A    between atoms: C5_11  and  O3_12 
REMARK    5  A    between atoms: C6_14  and  O4_15 
REMARK    6  A    between atoms: C7_17  and  O5_18 
REMARK    7  A    between atoms: C8_20  and  O6_21 
REMARK    8  A    between atoms: C10_24  and  O7_25 
REMARK    9  A    between atoms: O7_25  and  C11_26 
REMARK   10  A    between atoms: C15_33  and  O8_34 
REMARK   11  A    between atoms: O8_34  and  C16_35 
REMARK   12  A    between atoms: C16_35  and  C17_36 
ROOT
HETATM    1  C1  UNL     1      11.994  47.616  24.157  1.00  0.00     0.246 C 
HETATM    2  C2  UNL     1      12.528  48.789  24.881  1.00  0.00     0.186 C 
HETATM    3  C8  UNL     1      12.799  48.526  26.358  1.00  0.00     0.151 C 
HETATM    4  C9  UNL     1      11.523  48.052  26.966  1.00  0.00     0.069 C 
HETATM    5  C10 UNL     1      11.258  46.685  26.391  1.00  0.00     0.158 C 
HETATM    6  C15 UNL     1      11.084  46.704  24.899  1.00  0.00     0.183 C 
ENDROOT
BRANCH   2   7
HETATM    7  O1  UNL     1      13.744  49.155  24.358  1.00  0.00    -0.349 OA
BRANCH   7   8
HETATM    8  C3  UNL     1      13.854  50.434  23.913  1.00  0.00     0.291 C 
HETATM    9  O2  UNL     1      15.169  50.861  23.731  1.00  0.00    -0.356 OA
HETATM   10  C4  UNL     1      15.127  52.260  23.748  1.00  0.00     0.205 C 
HETATM   11  C5  UNL     1      14.389  52.798  22.533  1.00  0.00     0.173 C 
HETATM   12  C6  UNL     1      12.972  52.249  22.569  1.00  0.00     0.182 C 
HETATM   13  C7  UNL     1      13.106  50.735  22.647  1.00  0.00     0.204 C 
BRANCH  11  14
HETATM   14  O3  UNL     1      14.295  54.176  22.688  1.00  0.00    -0.391 OA
ATOM     15  H3  UNL     1      14.223  54.348  23.619  1.00  0.00     0.210 HD
ENDBRANCH  11  14
BRANCH  12  16
HETATM   16  O4  UNL     1      12.392  52.655  23.774  1.00  0.00    -0.390 OA
ATOM     17  H4  UNL     1      12.079  51.877  24.219  1.00  0.00     0.210 HD
ENDBRANCH  12  16
BRANCH  13  18
HETATM   18  O5  UNL     1      13.855  50.371  21.505  1.00  0.00    -0.388 OA
ATOM     19  H5  UNL     1      14.691  50.821  21.481  1.00  0.00     0.210 HD
ENDBRANCH  13  18
ENDBRANCH   7   8
ENDBRANCH   2   7
BRANCH   1  20
HETATM   20  N1  UNL     1      13.096  46.824  23.586  1.00  0.00    -0.070 N 
ATOM     21  H13 UNL     1      13.994  47.064  24.005  1.00  0.00     0.274 HD
ATOM     22  H12 UNL     1      13.052  45.847  23.873  1.00  0.00     0.274 HD
ATOM     23  H11 UNL     1      13.112  46.922  22.570  1.00  0.00     0.274 HD
ENDBRANCH   1  20
BRANCH   3  24
HETATM   24  O6  UNL     1      13.833  47.623  26.399  1.00  0.00    -0.393 OA
ATOM     25  H6  UNL     1      13.431  46.763  26.380  1.00  0.00     0.210 HD
ENDBRANCH   3  24
BRANCH   6  26
HETATM   26  O8  UNL     1       9.755  47.007  24.658  1.00  0.00    -0.377 OA
BRANCH  26  27
HETATM   27  C16 UNL     1       9.489  47.764  23.557  1.00  0.00     0.207 C 
BRANCH  27  28
HETATM   28  C17 UNL     1       8.777  49.019  23.866  1.00  0.00    -0.035 A 
HETATM   29  C18 UNL     1       7.471  49.069  24.283  1.00  0.00     0.009 A 
HETATM   30  C19 UNL     1       6.851  50.271  24.562  1.00  0.00     0.001 A 
HETATM   31  C20 UNL     1       7.519  51.476  24.433  1.00  0.00     0.000 A 
HETATM   32  C21 UNL     1       8.833  51.423  24.013  1.00  0.00     0.001 A 
HETATM   33  C22 UNL     1       9.461  50.227  23.732  1.00  0.00     0.009 A 
ENDBRANCH  27  28
ENDBRANCH  26  27
ENDBRANCH   6  26
BRANCH   5  34
HETATM   34  O7  UNL     1      12.295  45.853  26.805  1.00  0.00    -0.351 OA
BRANCH  34  35
HETATM   35  C11 UNL     1      11.893  45.009  27.803  1.00  0.00     0.321 C 
HETATM   36  C12 UNL     1      12.423  45.400  29.170  1.00  0.00     0.063 C 
HETATM   37  C13 UNL     1      11.580  44.495  30.066  1.00  0.00     0.032 C 
HETATM   38  C14 UNL     1      10.263  44.494  29.357  1.00  0.00     0.235 C 
HETATM   39  N2  UNL     1      10.465  45.004  28.035  1.00  0.00    -0.049 N 
ATOM     40  H22 UNL     1      10.030  45.915  27.884  1.00  0.00     0.280 HD
ATOM     41  H21 UNL     1       9.944  44.493  27.323  1.00  0.00     0.280 HD
ENDBRANCH  34  35
ENDBRANCH   5  34
TORSDOF 12
ENDMDL
MODEL 3
REMARK VINA RESULT: -7.808004152      1.922      2.786
REMARK  12 active torsions:
REMARK  status: ('A' for Active; 'I' for Inactive)
REMARK    1  A    between atoms: N1_1  and  C1_5 
REMARK    2  A    between atoms: C2_6  and  O1_7 
REMARK    3  A    between atoms: O1_7  and  C3_8 
REMARK    4  A    between atoms: C5_11  and  O3_12 
REMARK    5  A    between atoms: C6_14  and  O4_15 
REMARK    6  A    between atoms: C7_17  and  O5_18 
REMARK    7  A    between atoms: C8_20  and  O6_21 
REMARK    8  A    between atoms: C10_24  and  O7_25 
REMARK    9  A    between atoms: O7_25  and  C11_26 
REMARK   10  A    between atoms: C15_33  and  O8_34 
REMARK   11  A    between atoms: O8_34  and  C16_35 
REMARK   12  A    between atoms: C16_35  and  C17_36 
ROOT
HETATM    1  C1  UNL     1      11.935  47.790  22.579  1.00  0.00     0.246 C 
HETATM    2  C2  UNL     1      12.583  49.108  22.750  1.00  0.00     0.186 C 
HETATM    3  C8  UNL     1      13.411  49.222  24.025  1.00  0.00     0.151 C 
HETATM    4  C9  UNL     1      12.509  48.911  25.170  1.00  0.00     0.069 C 
HETATM    5  C10 UNL     1      12.184  47.444  25.072  1.00  0.00     0.158 C 
HETATM    6  C15 UNL     1      11.463  47.090  23.803  1.00  0.00     0.183 C 
ENDROOT
BRANCH   2   7
HETATM    7  O1  UNL     1      13.472  49.335  21.729  1.00  0.00    -0.349 OA
BRANCH   7   8
HETATM    8  C3  UNL     1      13.134  50.298  20.832  1.00  0.00     0.291 C 
HETATM    9  O2  UNL     1      12.622  51.459  21.412  1.00  0.00    -0.356 OA
HETATM   10  C4  UNL     1      11.907  52.113  20.402  1.00  0.00     0.205 C 
HETATM   11  C5  UNL     1      12.840  52.620  19.314  1.00  0.00     0.173 C 
HETATM   12  C6  UNL     1      13.563  51.419  18.726  1.00  0.00     0.182 C 
HETATM   13  C7  UNL     1      14.232  50.712  19.895  1.00  0.00     0.204 C 
BRANCH  11  14
HETATM   14  O3  UNL     1      12.043  53.149  18.305  1.00  0.00    -0.391 OA
ATOM     15  H3  UNL     1      12.316  52.741  17.491  1.00  0.00     0.210 HD
ENDBRANCH  11  14
BRANCH  12  16
HETATM   16  O4  UNL     1      12.594  50.540  18.236  1.00  0.00    -0.390 OA
ATOM     17  H4  UNL     1      12.708  49.709  18.682  1.00  0.00     0.210 HD
ENDBRANCH  12  16
BRANCH  13  18
HETATM   18  O5  UNL     1      15.073  51.683  20.483  1.00  0.00    -0.388 OA
ATOM     19  H5  UNL     1      15.767  51.945  19.890  1.00  0.00     0.210 HD
ENDBRANCH  13  18
ENDBRANCH   7   8
ENDBRANCH   2   7
BRANCH   1  20
HETATM   20  N1  UNL     1      12.815  46.884  21.823  1.00  0.00    -0.070 N 
ATOM     21  H13 UNL     1      12.421  46.642  20.913  1.00  0.00     0.274 HD
ATOM     22  H12 UNL     1      13.660  47.355  21.500  1.00  0.00     0.274 HD
ATOM     23  H11 UNL     1      13.030  46.056  22.377  1.00  0.00     0.274 HD
ENDBRANCH   1  20
BRANCH   3  24
HETATM   24  O6  UNL     1      14.470  48.360  23.868  1.00  0.00    -0.393 OA
ATOM     25  H6  UNL     1      14.814  48.207  24.740  1.00  0.00     0.210 HD
ENDBRANCH   3  24
BRANCH   6  26
HETATM   26  O8  UNL     1      10.118  47.320  24.032  1.00  0.00    -0.377 OA
BRANCH  26  27
HETATM   27  C16 UNL     1       9.441  48.007  23.071  1.00  0.00     0.207 C 
BRANCH  27  28
HETATM   28  C17 UNL     1       8.786  49.230  23.574  1.00  0.00    -0.035 A 
HETATM   29  C18 UNL     1       9.395  50.459  23.610  1.00  0.00     0.009 A 
HETATM   30  C19 UNL     1       8.737  51.574  24.088  1.00  0.00     0.001 A 
HETATM   31  C20 UNL     1       7.434  51.502  24.552  1.00  0.00     0.000 A 
HETATM   32  C21 UNL     1       6.824  50.265  24.515  1.00  0.00     0.001 A 
HETATM   33  C22 UNL     1       7.474  49.145  24.038  1.00  0.00     0.009 A 
ENDBRANCH  27  28
ENDBRANCH  26  27
ENDBRANCH   6  26
BRANCH   5  34
HETATM   34  O7  UNL     1      13.378  46.744  25.230  1.00  0.00    -0.351 OA
BRANCH  34  35
HETATM   35  C11 UNL     1      13.248  45.731  26.141  1.00  0.00     0.321 C 
HETATM   36  C12 UNL     1      12.020  45.868  27.020  1.00  0.00     0.063 C 
HETATM   37  C13 UNL     1      11.991  44.489  27.678  1.00  0.00     0.032 C 
HETATM   38  C14 UNL     1      12.452  43.604  26.563  1.00  0.00     0.235 C 
HETATM   39  N2  UNL     1      13.040  44.427  25.550  1.00  0.00    -0.049 N 
ATOM     40  H22 UNL     1      12.493  44.459  24.689  1.00  0.00     0.280 HD
ATOM     41  H21 UNL     1      13.888  44.027  25.149  1.00  0.00     0.280 HD
ENDBRANCH  34  35
ENDBRANCH   5  34
TORSDOF 12
ENDMDL
MODEL 4
REMARK VINA RESULT: -7.761062466      4.021      7.412
REMARK  12 active torsions:
REMARK  status: ('A' for Active; 'I' for Inactive)
REMARK    1  A    between atoms: N1_1  and  C1_5 
REMARK    2  A    between atoms: C2_6  and  O1_7 
REMARK    3  A    between atoms: O1_7  and  C3_8 
REMARK    4  A    between atoms: C5_11  and  O3_12 
REMARK    5  A    between atoms: C6_14  and  O4_15 
REMARK    6  A    between atoms: C7_17  and  O5_18 
REMARK    7  A    between atoms: C8_20  and  O6_21 
REMARK    8  A    between atoms: C10_24  and  O7_25 
REMARK    9  A    between atoms: O7_25  and  C11_26 
REMARK   10  A    between atoms: C15_33  and  O8_34 
REMARK   11  A    between atoms: O8_34  and  C16_35 
REMARK   12  A    between atoms: C16_35  and  C17_36 
ROOT
HETATM    1  C1  UNL     1      10.935  50.837  22.191  1.00  0.00     0.246 C 
HETATM    2  C2  UNL     1      11.598  49.611  22.685  1.00  0.00     0.186 C 
HETATM    3  C8  UNL     1      12.904  49.291  21.966  1.00  0.00     0.151 C 
HETATM    4  C9  UNL     1      12.597  49.189  20.511  1.00  0.00     0.069 C 
HETATM    5  C10 UNL     1      12.255  50.582  20.049  1.00  0.00     0.158 C 
HETATM    6  C15 UNL     1      11.047  51.145  20.741  1.00  0.00     0.183 C 
ENDROOT
BRANCH   2   7
HETATM    7  O1  UNL     1      11.947  49.761  24.004  1.00  0.00    -0.349 OA
BRANCH   7   8
HETATM    8  C3  UNL     1      12.303  48.631  24.669  1.00  0.00     0.291 C 
HETATM    9  O2  UNL     1      12.643  48.841  26.006  1.00  0.00    -0.356 OA
HETATM   10  C4  UNL     1      13.411  47.735  26.388  1.00  0.00     0.205 C 
HETATM   11  C5  UNL     1      12.569  46.470  26.413  1.00  0.00     0.173 C 
HETATM   12  C6  UNL     1      12.024  46.247  25.012  1.00  0.00     0.182 C 
HETATM   13  C7  UNL     1      11.288  47.524  24.635  1.00  0.00     0.204 C 
BRANCH  11  14
HETATM   14  O3  UNL     1      13.428  45.412  26.688  1.00  0.00    -0.391 OA
ATOM     15  H3  UNL     1      12.986  44.616  26.419  1.00  0.00     0.210 HD
ENDBRANCH  11  14
BRANCH  12  16
HETATM   16  O4  UNL     1      13.114  46.149  24.145  1.00  0.00    -0.390 OA
ATOM     17  H4  UNL     1      13.279  45.226  23.992  1.00  0.00     0.210 HD
ENDBRANCH  12  16
BRANCH  13  18
HETATM   18  O5  UNL     1      10.305  47.695  25.636  1.00  0.00    -0.388 OA
ATOM     19  H5  UNL     1       9.920  46.864  25.889  1.00  0.00     0.210 HD
ENDBRANCH  13  18
ENDBRANCH   7   8
ENDBRANCH   2   7
BRANCH   1  20
HETATM   20  N1  UNL     1      11.387  52.007  22.961  1.00  0.00    -0.070 N 
ATOM     21  H13 UNL     1      12.361  51.919  23.250  1.00  0.00     0.274 HD
ATOM     22  H12 UNL     1      11.477  52.837  22.376  1.00  0.00     0.274 HD
ATOM     23  H11 UNL     1      10.767  52.168  23.755  1.00  0.00     0.274 HD
ENDBRANCH   1  20
BRANCH   3  24
HETATM   24  O6  UNL     1      13.780  50.292  22.308  1.00  0.00    -0.393 OA
ATOM     25  H6  UNL     1      13.562  51.031  21.752  1.00  0.00     0.210 HD
ENDBRANCH   3  24
BRANCH   6  26
HETATM   26  O8  UNL     1       9.942  50.696  20.039  1.00  0.00    -0.377 OA
BRANCH  26  27
HETATM   27  C16 UNL     1       9.970  50.850  18.687  1.00  0.00     0.207 C 
BRANCH  27  28
HETATM   28  C17 UNL     1       9.111  51.947  18.202  1.00  0.00    -0.035 A 
HETATM   29  C18 UNL     1       9.438  53.275  18.314  1.00  0.00     0.009 A 
HETATM   30  C19 UNL     1       8.599  54.264  17.841  1.00  0.00     0.001 A 
HETATM   31  C20 UNL     1       7.393  53.961  17.233  1.00  0.00     0.000 A 
HETATM   32  C21 UNL     1       7.067  52.625  17.121  1.00  0.00     0.001 A 
HETATM   33  C22 UNL     1       7.899  51.629  17.590  1.00  0.00     0.009 A 
ENDBRANCH  27  28
ENDBRANCH  26  27
ENDBRANCH   6  26
BRANCH   5  34
HETATM   34  O7  UNL     1      13.393  51.366  20.220  1.00  0.00    -0.351 OA
BRANCH  34  35
HETATM   35  C11 UNL     1      14.230  51.279  19.142  1.00  0.00     0.321 C 
HETATM   36  C12 UNL     1      13.839  52.200  18.002  1.00  0.00     0.063 C 
HETATM   37  C13 UNL     1      15.086  52.105  17.125  1.00  0.00     0.032 C 
HETATM   38  C14 UNL     1      16.177  52.021  18.144  1.00  0.00     0.235 C 
HETATM   39  N2  UNL     1      15.586  51.707  19.410  1.00  0.00    -0.049 N 
ATOM     40  H22 UNL     1      15.640  52.473  20.081  1.00  0.00     0.280 HD
ATOM     41  H21 UNL     1      16.123  51.027  19.947  1.00  0.00     0.280 HD
ENDBRANCH  34  35
ENDBRANCH   5  34
TORSDOF 12
ENDMDL
MODEL 5
REMARK VINA RESULT: -7.747025155      1.873      2.434
REMARK  12 active torsions:
REMARK  status: ('A' for Active; 'I' for Inactive)
REMARK    1  A    between atoms: N1_1  and  C1_5 
REMARK    2  A    between atoms: C2_6  and  O1_7 
REMARK    3  A    between atoms: O1_7  and  C3_8 
REMARK    4  A    between atoms: C5_11  and  O3_12 
REMARK    5  A    between atoms: C6_14  and  O4_15 
REMARK    6  A    between atoms: C7_17  and  O5_18 
REMARK    7  A    between atoms: C8_20  and  O6_21 
REMARK    8  A    between atoms: C10_24  and  O7_25 
REMARK    9  A    between atoms: O7_25  and  C11_26 
REMARK   10  A    between atoms: C15_33  and  O8_34 
REMARK   11  A    between atoms: O8_34  and  C16_35 
REMARK   12  A    between atoms: C16_35  and  C17_36 
ROOT
HETATM    1  C1  UNL     1      11.829  47.816  22.500  1.00  0.00     0.246 C 
HETATM    2  C2  UNL     1      12.650  48.995  22.848  1.00  0.00     0.186 C 
HETATM    3  C8  UNL     1      13.561  48.772  24.050  1.00  0.00     0.151 C 
HETATM    4  C9  UNL     1      12.696  48.360  25.193  1.00  0.00     0.069 C 
HETATM    5  C10 UNL     1      12.180  46.984  24.862  1.00  0.00     0.158 C 
HETATM    6  C15 UNL     1      11.345  46.959  23.614  1.00  0.00     0.183 C 
ENDROOT
BRANCH   2   7
HETATM    7  O1  UNL     1      13.499  49.304  21.813  1.00  0.00    -0.349 OA
BRANCH   7   8
HETATM    8  C3  UNL     1      13.113  50.317  20.994  1.00  0.00     0.291 C 
HETATM    9  O2  UNL     1      12.555  51.407  21.663  1.00  0.00    -0.356 OA
HETATM   10  C4  UNL     1      11.806  52.104  20.708  1.00  0.00     0.205 C 
HETATM   11  C5  UNL     1      12.710  52.733  19.660  1.00  0.00     0.173 C 
HETATM   12  C6  UNL     1      13.480  51.614  18.979  1.00  0.00     0.182 C 
HETATM   13  C7  UNL     1      14.186  50.849  20.089  1.00  0.00     0.204 C 
BRANCH  11  14
HETATM   14  O3  UNL     1      11.884  53.302  18.697  1.00  0.00    -0.391 OA
ATOM     15  H3  UNL     1      11.395  52.594  18.295  1.00  0.00     0.210 HD
ENDBRANCH  11  14
BRANCH  12  16
HETATM   16  O4  UNL     1      12.548  50.733  18.426  1.00  0.00    -0.390 OA
ATOM     17  H4  UNL     1      12.725  49.869  18.777  1.00  0.00     0.210 HD
ENDBRANCH  12  16
BRANCH  13  18
HETATM   18  O5  UNL     1      14.988  51.808  20.748  1.00  0.00    -0.388 OA
ATOM     19  H5  UNL     1      14.539  52.181  21.497  1.00  0.00     0.210 HD
ENDBRANCH  13  18
ENDBRANCH   7   8
ENDBRANCH   2   7
BRANCH   1  20
HETATM   20  N1  UNL     1      12.538  46.971  21.524  1.00  0.00    -0.070 N 
ATOM     21  H13 UNL     1      12.988  46.171  21.970  1.00  0.00     0.274 HD
ATOM     22  H12 UNL     1      11.892  46.463  20.920  1.00  0.00     0.274 HD
ATOM     23  H11 UNL     1      13.200  47.531  20.987  1.00  0.00     0.274 HD
ENDBRANCH   1  20
BRANCH   3  24
HETATM   24  O6  UNL     1      14.488  47.838  23.656  1.00  0.00    -0.393 OA
ATOM     25  H6  UNL     1      15.338  48.213  23.853  1.00  0.00     0.210 HD
ENDBRANCH   3  24
BRANCH   6  26
HETATM   26  O8  UNL     1      10.057  47.296  23.990  1.00  0.00    -0.377 OA
BRANCH  26  27
HETATM   27  C16 UNL     1       9.302  47.958  23.070  1.00  0.00     0.207 C 
BRANCH  27  28
HETATM   28  C17 UNL     1       8.671  49.183  23.599  1.00  0.00    -0.035 A 
HETATM   29  C18 UNL     1       7.415  49.215  24.149  1.00  0.00     0.009 A 
HETATM   30  C19 UNL     1       6.871  50.388  24.633  1.00  0.00     0.001 A 
HETATM   31  C20 UNL     1       7.569  51.582  24.584  1.00  0.00     0.000 A 
HETATM   32  C21 UNL     1       8.832  51.548  24.031  1.00  0.00     0.001 A 
HETATM   33  C22 UNL     1       9.384  50.380  23.545  1.00  0.00     0.009 A 
ENDBRANCH  27  28
ENDBRANCH  26  27
ENDBRANCH   6  26
BRANCH   5  34
HETATM   34  O7  UNL     1      13.280  46.133  24.794  1.00  0.00    -0.351 OA
BRANCH  34  35
HETATM   35  C11 UNL     1      12.898  44.821  24.747  1.00  0.00     0.321 C 
HETATM   36  C12 UNL     1      13.474  44.070  23.561  1.00  0.00     0.063 C 
HETATM   37  C13 UNL     1      13.138  42.632  23.950  1.00  0.00     0.032 C 
HETATM   38  C14 UNL     1      13.331  42.657  25.433  1.00  0.00     0.235 C 
HETATM   39  N2  UNL     1      13.377  44.025  25.856  1.00  0.00    -0.049 N 
ATOM     40  H22 UNL     1      14.297  44.312  26.189  1.00  0.00     0.280 HD
ATOM     41  H21 UNL     1      12.867  44.195  26.723  1.00  0.00     0.280 HD
ENDBRANCH  34  35
ENDBRANCH   5  34
TORSDOF 12
ENDMDL
