MODEL 1
REMARK VINA RESULT: -7.912857042      0.000      0.000
REMARK  14 active torsions:
REMARK  status: ('A' for Active; 'I' for Inactive)
REMARK    1  A    between atoms: C2_2  and  C3_3 
REMARK    2  A    between atoms: C3_3  and  C4_4 
REMARK    3  A    between atoms: C4_4  and  O1_5 
REMARK    4  A    between atoms: O1_5  and  C5_6 
REMARK    5  A    between atoms: C7_9  and  C8_10 
REMARK    6  A    between atoms: C11_13  and  O3_14 
REMARK    7  A    between atoms: C14_18  and  O4_19 
REMARK    8  A    between atoms: O4_19  and  C15_20 
REMARK    9  A    between atoms: C16_22  and  C17_23 
REMARK   10  A    between atoms: C17_23  and  O6_24 
REMARK   11  A    between atoms: C18_26  and  O7_27 
REMARK   12  A    between atoms: C19_29  and  O8_30 
REMARK   13  A    between atoms: C20_32  and  O9_33 
REMARK   14  A    between atoms: C21_35  and  O10_36 
ROOT
HETATM    1  C5  UNL     1      13.052  51.878  21.158  1.00  0.00     0.291 C 
HETATM    2  O2  UNL     1      11.692  51.841  21.468  1.00  0.00    -0.352 OA
HETATM    3  C6  UNL     1      11.567  51.994  22.796  1.00  0.00     0.137 A 
HETATM    4  C7  UNL     1      10.935  51.243  23.842  1.00  0.00     0.028 A 
HETATM    5  C13 UNL     1      12.085  50.613  23.321  1.00  0.00     0.054 A 
HETATM    6  C14 UNL     1      13.534  50.893  23.470  1.00  0.00     0.165 C 
HETATM    7  C21 UNL     1      14.014  51.339  22.110  1.00  0.00     0.202 C 
ENDROOT
BRANCH   6   8
HETATM    8  O4  UNL     1      14.165  49.732  23.913  1.00  0.00    -0.350 OA
BRANCH   8   9
HETATM    9  C15 UNL     1      13.407  48.603  23.744  1.00  0.00     0.292 C 
HETATM   10  O5  UNL     1      13.965  47.687  22.865  1.00  0.00    -0.348 OA
HETATM   11  C16 UNL     1      13.365  46.457  22.892  1.00  0.00     0.179 C 
HETATM   12  C18 UNL     1      12.069  46.384  23.623  1.00  0.00     0.180 C 
HETATM   13  C19 UNL     1      12.071  46.993  24.983  1.00  0.00     0.183 C 
HETATM   14  C20 UNL     1      13.186  47.980  25.107  1.00  0.00     0.204 C 
BRANCH  11  15
HETATM   15  C17 UNL     1      13.075  46.072  21.435  1.00  0.00     0.198 C 
BRANCH  15  16
HETATM   16  O6  UNL     1      13.013  47.177  20.623  1.00  0.00    -0.398 OA
ATOM     17  H6  UNL     1      12.149  47.285  20.245  1.00  0.00     0.209 HD
ENDBRANCH  15  16
ENDBRANCH  11  15
BRANCH  12  18
HETATM   18  O7  UNL     1      10.991  46.861  22.844  1.00  0.00    -0.390 OA
ATOM     19  H7  UNL     1      10.220  47.038  23.369  1.00  0.00     0.210 HD
ENDBRANCH  12  18
BRANCH  13  20
HETATM   20  O8  UNL     1      12.055  46.047  26.003  1.00  0.00    -0.390 OA
ATOM     21  H8  UNL     1      11.610  45.244  25.758  1.00  0.00     0.210 HD
ENDBRANCH  13  20
BRANCH  14  22
HETATM   22  O9  UNL     1      14.352  47.421  25.621  1.00  0.00    -0.388 OA
ATOM     23  H9  UNL     1      14.330  46.471  25.604  1.00  0.00     0.210 HD
ENDBRANCH  14  22
ENDBRANCH   8   9
ENDBRANCH   6   8
BRANCH   7  24
HETATM   24  O10 UNL     1      15.084  52.228  22.345  1.00  0.00    -0.388 OA
ATOM     25  H10 UNL     1      15.602  51.973  23.100  1.00  0.00     0.210 HD
ENDBRANCH   7  24
BRANCH   4  26
HETATM   26  C8  UNL     1       9.563  50.679  23.626  1.00  0.00    -0.005 C 
HETATM   27  C9  UNL     1       8.455  51.544  24.200  1.00  0.00     0.007 C 
HETATM   28  C10 UNL     1       7.249  50.660  24.332  1.00  0.00     0.032 C 
HETATM   29  C11 UNL     1       7.774  49.229  24.293  1.00  0.00     0.118 C 
HETATM   30  C12 UNL     1       9.294  49.375  24.334  1.00  0.00     0.037 C 
BRANCH  29  31
HETATM   31  O3  UNL     1       7.333  48.656  23.116  1.00  0.00    -0.396 OA
ATOM     32  H3  UNL     1       8.081  48.243  22.702  1.00  0.00     0.210 HD
ENDBRANCH  29  31
ENDBRANCH   4  26
BRANCH   1  33
HETATM   33  O1  UNL     1      13.171  51.302  19.896  1.00  0.00    -0.359 OA
BRANCH  33  34
HETATM   34  C4  UNL     1      13.632  52.203  18.976  1.00  0.00     0.171 C 
BRANCH  34  35
HETATM   35  C3  UNL     1      13.098  51.958  17.582  1.00  0.00     0.026 C 
BRANCH  35  36
HETATM   36  C2  UNL     1      11.598  52.220  17.657  1.00  0.00    -0.002 C 
HETATM   37  C1  UNL     1      11.266  53.638  17.961  1.00  0.00     0.005 C 
ENDBRANCH  35  36
ENDBRANCH  34  35
ENDBRANCH  33  34
ENDBRANCH   1  33
TORSDOF 14
ENDMDL
MODEL 2
REMARK VINA RESULT: -7.790085234      2.196      3.952
REMARK  14 active torsions:
REMARK  status: ('A' for Active; 'I' for Inactive)
REMARK    1  A    between atoms: C2_2  and  C3_3 
REMARK    2  A    between atoms: C3_3  and  C4_4 
REMARK    3  A    between atoms: C4_4  and  O1_5 
REMARK    4  A    between atoms: O1_5  and  C5_6 
REMARK    5  A    between atoms: C7_9  and  C8_10 
REMARK    6  A    between atoms: C11_13  and  O3_14 
REMARK    7  A    between atoms: C14_18  and  O4_19 
REMARK    8  A    between atoms: O4_19  and  C15_20 
REMARK    9  A    between atoms: C16_22  and  C17_23 
REMARK   10  A    between atoms: C17_23  and  O6_24 
REMARK   11  A    between atoms: C18_26  and  O7_27 
REMARK   12  A    between atoms: C19_29  and  O8_30 
REMARK   13  A    between atoms: C20_32  and  O9_33 
REMARK   14  A    between atoms: C21_35  and  O10_36 
ROOT
HETATM    1  C5  UNL     1      13.907  52.498  22.174  1.00  0.00     0.291 C 
HETATM    2  O2  UNL     1      12.838  52.772  21.320  1.00  0.00    -0.352 OA
HETATM    3  C6  UNL     1      11.760  52.123  21.786  1.00  0.00     0.137 A 
HETATM    4  C7  UNL     1      10.830  51.183  21.229  1.00  0.00     0.028 A 
HETATM    5  C13 UNL     1      12.114  50.638  21.440  1.00  0.00     0.054 A 
HETATM    6  C14 UNL     1      12.838  50.226  22.669  1.00  0.00     0.165 C 
HETATM    7  C21 UNL     1      13.986  51.194  22.819  1.00  0.00     0.202 C 
ENDROOT
BRANCH   6   8
HETATM    8  O4  UNL     1      13.257  48.907  22.514  1.00  0.00    -0.350 OA
BRANCH   8   9
HETATM    9  C15 UNL     1      13.249  48.193  23.684  1.00  0.00     0.292 C 
HETATM   10  O5  UNL     1      12.541  48.811  24.705  1.00  0.00    -0.348 OA
HETATM   11  C16 UNL     1      12.299  47.999  25.780  1.00  0.00     0.179 C 
HETATM   12  C18 UNL     1      13.056  46.716  25.808  1.00  0.00     0.180 C 
HETATM   13  C19 UNL     1      13.021  45.930  24.543  1.00  0.00     0.183 C 
HETATM   14  C20 UNL     1      12.684  46.818  23.389  1.00  0.00     0.204 C 
BRANCH  11  15
HETATM   15  C17 UNL     1      12.711  48.785  27.032  1.00  0.00     0.198 C 
BRANCH  15  16
HETATM   16  O6  UNL     1      13.841  49.533  26.810  1.00  0.00    -0.398 OA
ATOM     17  H6  UNL     1      14.626  49.000  26.853  1.00  0.00     0.209 HD
ENDBRANCH  15  16
ENDBRANCH  11  15
BRANCH  12  18
HETATM   18  O7  UNL     1      14.378  46.890  26.273  1.00  0.00    -0.390 OA
ATOM     19  H7  UNL     1      15.017  46.488  25.696  1.00  0.00     0.210 HD
ENDBRANCH  12  18
BRANCH  13  20
HETATM   20  O8  UNL     1      12.210  44.802  24.625  1.00  0.00    -0.390 OA
ATOM     21  H8  UNL     1      11.393  44.964  25.081  1.00  0.00     0.210 HD
ENDBRANCH  13  20
BRANCH  14  22
HETATM   22  O9  UNL     1      11.321  46.861  23.115  1.00  0.00    -0.388 OA
ATOM     23  H9  UNL     1      10.850  47.407  23.735  1.00  0.00     0.210 HD
ENDBRANCH  14  22
ENDBRANCH   8   9
ENDBRANCH   6   8
BRANCH   7  24
HETATM   24  O10 UNL     1      14.229  51.300  24.204  1.00  0.00    -0.388 OA
ATOM     25  H10 UNL     1      13.544  51.783  24.652  1.00  0.00     0.210 HD
ENDBRANCH   7  24
BRANCH   4  26
HETATM   26  C8  UNL     1      10.287  51.405  19.849  1.00  0.00    -0.005 C 
HETATM   27  C9  UNL     1      10.752  50.368  18.842  1.00  0.00     0.007 C 
HETATM   28  C10 UNL     1      10.538  50.968  17.483  1.00  0.00     0.032 C 
HETATM   29  C11 UNL     1      10.412  52.471  17.705  1.00  0.00     0.118 C 
HETATM   30  C12 UNL     1      10.756  52.672  19.180  1.00  0.00     0.037 C 
BRANCH  29  31
HETATM   31  O3  UNL     1       9.109  52.826  17.417  1.00  0.00    -0.396 OA
ATOM     32  H3  UNL     1       9.102  53.204  16.546  1.00  0.00     0.210 HD
ENDBRANCH  29  31
ENDBRANCH   4  26
BRANCH   1  33
HETATM   33  O1  UNL     1      15.058  52.809  21.457  1.00  0.00    -0.359 OA
BRANCH  33  34
HETATM   34  C4  UNL     1      14.793  52.955  20.122  1.00  0.00     0.171 C 
BRANCH  34  35
HETATM   35  C3  UNL     1      15.357  51.834  19.276  1.00  0.00     0.026 C 
BRANCH  35  36
HETATM   36  C2  UNL     1      14.211  51.365  18.387  1.00  0.00    -0.002 C 
HETATM   37  C1  UNL     1      14.099  52.137  17.121  1.00  0.00     0.005 C 
ENDBRANCH  35  36
ENDBRANCH  34  35
ENDBRANCH  33  34
ENDBRANCH   1  33
TORSDOF 14
ENDMDL
MODEL 3
REMARK VINA RESULT: -7.682127147      0.550      1.014
REMARK  14 active torsions:
REMARK  status: ('A' for Active; 'I' for Inactive)
REMARK    1  A    between atoms: C2_2  and  C3_3 
REMARK    2  A    between atoms: C3_3  and  C4_4 
REMARK    3  A    between atoms: C4_4  and  O1_5 
REMARK    4  A    between atoms: O1_5  and  C5_6 
REMARK    5  A    between atoms: C7_9  and  C8_10 
REMARK    6  A    between atoms: C11_13  and  O3_14 
REMARK    7  A    between atoms: C14_18  and  O4_19 
REMARK    8  A    between atoms: O4_19  and  C15_20 
REMARK    9  A    between atoms: C16_22  and  C17_23 
REMARK   10  A    between atoms: C17_23  and  O6_24 
REMARK   11  A    between atoms: C18_26  and  O7_27 
REMARK   12  A    between atoms: C19_29  and  O8_30 
REMARK   13  A    between atoms: C20_32  and  O9_33 
REMARK   14  A    between atoms: C21_35  and  O10_36 
ROOT
HETATM    1  C5  UNL     1      13.034  51.790  21.190  1.00  0.00     0.291 C 
HETATM    2  O2  UNL     1      11.674  51.763  21.502  1.00  0.00    -0.352 OA
HETATM    3  C6  UNL     1      11.552  51.921  22.829  1.00  0.00     0.137 A 
HETATM    4  C7  UNL     1      10.916  51.178  23.879  1.00  0.00     0.028 A 
HETATM    5  C13 UNL     1      12.062  50.539  23.358  1.00  0.00     0.054 A 
HETATM    6  C14 UNL     1      13.513  50.811  23.504  1.00  0.00     0.165 C 
HETATM    7  C21 UNL     1      13.994  51.248  22.143  1.00  0.00     0.202 C 
ENDROOT
BRANCH   6   8
HETATM    8  O4  UNL     1      14.137  49.648  23.951  1.00  0.00    -0.350 OA
BRANCH   8   9
HETATM    9  C15 UNL     1      13.379  48.520  23.770  1.00  0.00     0.292 C 
HETATM   10  O5  UNL     1      13.949  47.603  22.899  1.00  0.00    -0.348 OA
HETATM   11  C16 UNL     1      13.346  46.375  22.916  1.00  0.00     0.179 C 
HETATM   12  C18 UNL     1      12.039  46.304  23.627  1.00  0.00     0.180 C 
HETATM   13  C19 UNL     1      12.022  46.912  24.987  1.00  0.00     0.183 C 
HETATM   14  C20 UNL     1      13.137  47.897  25.129  1.00  0.00     0.204 C 
BRANCH  11  15
HETATM   15  C17 UNL     1      13.077  45.991  21.454  1.00  0.00     0.198 C 
BRANCH  15  16
HETATM   16  O6  UNL     1      12.901  47.100  20.665  1.00  0.00    -0.398 OA
ATOM     17  H6  UNL     1      12.027  47.130  20.295  1.00  0.00     0.209 HD
ENDBRANCH  15  16
ENDBRANCH  11  15
BRANCH  12  18
HETATM   18  O7  UNL     1      10.974  46.784  22.831  1.00  0.00    -0.390 OA
ATOM     19  H7  UNL     1      10.554  47.543  23.217  1.00  0.00     0.210 HD
ENDBRANCH  12  18
BRANCH  13  20
HETATM   20  O8  UNL     1      11.987  45.965  26.007  1.00  0.00    -0.390 OA
ATOM     21  H8  UNL     1      11.687  46.321  26.834  1.00  0.00     0.210 HD
ENDBRANCH  13  20
BRANCH  14  22
HETATM   22  O9  UNL     1      14.293  47.335  25.660  1.00  0.00    -0.388 OA
ATOM     23  H9  UNL     1      14.108  46.562  26.181  1.00  0.00     0.210 HD
ENDBRANCH  14  22
ENDBRANCH   8   9
ENDBRANCH   6   8
BRANCH   7  24
HETATM   24  O10 UNL     1      15.070  52.132  22.373  1.00  0.00    -0.388 OA
ATOM     25  H10 UNL     1      15.636  51.830  23.074  1.00  0.00     0.210 HD
ENDBRANCH   7  24
BRANCH   4  26
HETATM   26  C8  UNL     1       9.540  50.622  23.666  1.00  0.00    -0.005 C 
HETATM   27  C9  UNL     1       8.438  51.511  24.211  1.00  0.00     0.007 C 
HETATM   28  C10 UNL     1       7.222  50.642  24.356  1.00  0.00     0.032 C 
HETATM   29  C11 UNL     1       7.733  49.206  24.355  1.00  0.00     0.118 C 
HETATM   30  C12 UNL     1       9.254  49.339  24.403  1.00  0.00     0.037 C 
BRANCH  29  31
HETATM   31  O3  UNL     1       7.295  48.609  23.190  1.00  0.00    -0.396 OA
ATOM     32  H3  UNL     1       7.673  47.738  23.155  1.00  0.00     0.210 HD
ENDBRANCH  29  31
ENDBRANCH   4  26
BRANCH   1  33
HETATM   33  O1  UNL     1      13.148  51.209  19.930  1.00  0.00    -0.359 OA
BRANCH  33  34
HETATM   34  C4  UNL     1      12.732  52.063  18.945  1.00  0.00     0.171 C 
BRANCH  34  35
HETATM   35  C3  UNL     1      13.060  51.570  17.552  1.00  0.00     0.026 C 
BRANCH  35  36
HETATM   36  C2  UNL     1      14.308  52.334  17.121  1.00  0.00    -0.002 C 
HETATM   37  C1  UNL     1      15.570  51.594  17.394  1.00  0.00     0.005 C 
ENDBRANCH  35  36
ENDBRANCH  34  35
ENDBRANCH  33  34
ENDBRANCH   1  33
TORSDOF 14
ENDMDL
MODEL 4
REMARK VINA RESULT: -7.592782487      0.959      1.183
REMARK  14 active torsions:
REMARK  status: ('A' for Active; 'I' for Inactive)
REMARK    1  A    between atoms: C2_2  and  C3_3 
REMARK    2  A    between atoms: C3_3  and  C4_4 
REMARK    3  A    between atoms: C4_4  and  O1_5 
REMARK    4  A    between atoms: O1_5  and  C5_6 
REMARK    5  A    between atoms: C7_9  and  C8_10 
REMARK    6  A    between atoms: C11_13  and  O3_14 
REMARK    7  A    between atoms: C14_18  and  O4_19 
REMARK    8  A    between atoms: O4_19  and  C15_20 
REMARK    9  A    between atoms: C16_22  and  C17_23 
REMARK   10  A    between atoms: C17_23  and  O6_24 
REMARK   11  A    between atoms: C18_26  and  O7_27 
REMARK   12  A    between atoms: C19_29  and  O8_30 
REMARK   13  A    between atoms: C20_32  and  O9_33 
REMARK   14  A    between atoms: C21_35  and  O10_36 
ROOT
HETATM    1  C5  UNL     1      13.135  52.062  21.767  1.00  0.00     0.291 C 
HETATM    2  O2  UNL     1      11.777  52.007  22.084  1.00  0.00    -0.352 OA
HETATM    3  C6  UNL     1      11.670  51.751  23.398  1.00  0.00     0.137 A 
HETATM    4  C7  UNL     1      11.000  50.752  24.179  1.00  0.00     0.028 A 
HETATM    5  C13 UNL     1      12.106  50.249  23.461  1.00  0.00     0.054 A 
HETATM    6  C14 UNL     1      13.571  50.388  23.653  1.00  0.00     0.165 C 
HETATM    7  C21 UNL     1      14.068  51.203  22.484  1.00  0.00     0.202 C 
ENDROOT
BRANCH   6   8
HETATM    8  O4  UNL     1      14.133  49.115  23.703  1.00  0.00    -0.350 OA
BRANCH   8   9
HETATM    9  C15 UNL     1      13.226  48.132  24.001  1.00  0.00     0.292 C 
HETATM   10  O5  UNL     1      13.493  46.922  23.376  1.00  0.00    -0.348 OA
HETATM   11  C16 UNL     1      12.765  45.873  23.867  1.00  0.00     0.179 C 
HETATM   12  C18 UNL     1      11.631  46.233  24.763  1.00  0.00     0.180 C 
HETATM   13  C19 UNL     1      11.963  47.192  25.854  1.00  0.00     0.183 C 
HETATM   14  C20 UNL     1      13.193  47.967  25.507  1.00  0.00     0.204 C 
BRANCH  11  15
HETATM   15  C17 UNL     1      12.161  45.146  22.657  1.00  0.00     0.198 C 
BRANCH  15  16
HETATM   16  O6  UNL     1      11.394  44.074  23.043  1.00  0.00    -0.398 OA
ATOM     17  H6  UNL     1      10.835  43.773  22.338  1.00  0.00     0.209 HD
ENDBRANCH  15  16
ENDBRANCH  11  15
BRANCH  12  18
HETATM   18  O7  UNL     1      10.492  46.648  24.038  1.00  0.00    -0.390 OA
ATOM     19  H7  UNL     1       9.874  45.938  23.906  1.00  0.00     0.210 HD
ENDBRANCH  12  18
BRANCH  13  20
HETATM   20  O8  UNL     1      12.025  46.590  27.108  1.00  0.00    -0.390 OA
ATOM     21  H8  UNL     1      11.912  47.207  27.821  1.00  0.00     0.210 HD
ENDBRANCH  13  20
BRANCH  14  22
HETATM   22  O9  UNL     1      14.358  47.384  25.995  1.00  0.00    -0.388 OA
ATOM     23  H9  UNL     1      15.121  47.631  25.484  1.00  0.00     0.210 HD
ENDBRANCH  14  22
ENDBRANCH   8   9
ENDBRANCH   6   8
BRANCH   7  24
HETATM   24  O10 UNL     1      15.192  51.916  22.954  1.00  0.00    -0.388 OA
ATOM     25  H10 UNL     1      15.763  51.373  23.486  1.00  0.00     0.210 HD
ENDBRANCH   7  24
BRANCH   4  26
HETATM   26  C8  UNL     1       9.595  50.359  23.834  1.00  0.00    -0.005 C 
HETATM   27  C9  UNL     1       8.578  51.454  24.102  1.00  0.00     0.007 C 
HETATM   28  C10 UNL     1       7.237  50.782  24.168  1.00  0.00     0.032 C 
HETATM   29  C11 UNL     1       7.522  49.305  24.413  1.00  0.00     0.118 C 
HETATM   30  C12 UNL     1       9.026  49.240  24.667  1.00  0.00     0.037 C 
BRANCH  29  31
HETATM   31  O3  UNL     1       7.152  48.616  23.275  1.00  0.00    -0.396 OA
ATOM     32  H3  UNL     1       6.418  48.059  23.504  1.00  0.00     0.210 HD
ENDBRANCH  29  31
ENDBRANCH   4  26
BRANCH   1  33
HETATM   33  O1  UNL     1      13.210  51.896  20.387  1.00  0.00    -0.359 OA
BRANCH  33  34
HETATM   34  C4  UNL     1      12.616  52.935  19.724  1.00  0.00     0.171 C 
BRANCH  34  35
HETATM   35  C3  UNL     1      12.085  52.547  18.361  1.00  0.00     0.026 C 
BRANCH  35  36
HETATM   36  C2  UNL     1      11.216  53.713  17.903  1.00  0.00    -0.002 C 
HETATM   37  C1  UNL     1       9.759  53.433  18.008  1.00  0.00     0.005 C 
ENDBRANCH  35  36
ENDBRANCH  34  35
ENDBRANCH  33  34
ENDBRANCH   1  33
TORSDOF 14
ENDMDL
MODEL 5
REMARK VINA RESULT: -7.562152607      1.347      1.491
REMARK  14 active torsions:
REMARK  status: ('A' for Active; 'I' for Inactive)
REMARK    1  A    between atoms: C2_2  and  C3_3 
REMARK    2  A    between atoms: C3_3  and  C4_4 
REMARK    3  A    between atoms: C4_4  and  O1_5 
REMARK    4  A    between atoms: O1_5  and  C5_6 
REMARK    5  A    between atoms: C7_9  and  C8_10 
REMARK    6  A    between atoms: C11_13  and  O3_14 
REMARK    7  A    between atoms: C14_18  and  O4_19 
REMARK    8  A    between atoms: O4_19  and  C15_20 
REMARK    9  A    between atoms: C16_22  and  C17_23 
REMARK   10  A    between atoms: C17_23  and  O6_24 
REMARK   11  A    between atoms: C18_26  and  O7_27 
REMARK   12  A    between atoms: C19_29  and  O8_30 
REMARK   13  A    between atoms: C20_32  and  O9_33 
REMARK   14  A    between atoms: C21_35  and  O10_36 
ROOT
HETATM    1  C5  UNL     1      13.108  52.036  22.213  1.00  0.00     0.291 C 
HETATM    2  O2  UNL     1      11.740  51.978  22.481  1.00  0.00    -0.352 OA
HETATM    3  C6  UNL     1      11.584  51.530  23.736  1.00  0.00     0.137 A 
HETATM    4  C7  UNL     1      10.862  50.446  24.338  1.00  0.00     0.028 A 
HETATM    5  C13 UNL     1      11.976  50.023  23.582  1.00  0.00     0.054 A 
HETATM    6  C14 UNL     1      13.437  50.084  23.833  1.00  0.00     0.165 C 
HETATM    7  C21 UNL     1      13.994  51.049  22.816  1.00  0.00     0.202 C 
ENDROOT
BRANCH   6   8
HETATM    8  O4  UNL     1      13.962  48.800  23.704  1.00  0.00    -0.350 OA
BRANCH   8   9
HETATM    9  C15 UNL     1      13.122  47.821  24.168  1.00  0.00     0.292 C 
HETATM   10  O5  UNL     1      13.404  46.561  23.659  1.00  0.00    -0.348 OA
HETATM   11  C16 UNL     1      12.759  45.544  24.308  1.00  0.00     0.179 C 
HETATM   12  C18 UNL     1      11.670  45.956  25.237  1.00  0.00     0.180 C 
HETATM   13  C19 UNL     1      12.027  47.041  26.194  1.00  0.00     0.183 C 
HETATM   14  C20 UNL     1      13.195  47.821  25.681  1.00  0.00     0.204 C 
BRANCH  11  15
HETATM   15  C17 UNL     1      12.111  44.667  23.227  1.00  0.00     0.198 C 
BRANCH  15  16
HETATM   16  O6  UNL     1      11.886  45.373  22.072  1.00  0.00    -0.398 OA
ATOM     17  H6  UNL     1      11.204  44.973  21.546  1.00  0.00     0.209 HD
ENDBRANCH  15  16
ENDBRANCH  11  15
BRANCH  12  18
HETATM   18  O7  UNL     1      10.468  46.244  24.553  1.00  0.00    -0.390 OA
ATOM     19  H7  UNL     1      10.424  47.151  24.273  1.00  0.00     0.210 HD
ENDBRANCH  12  18
BRANCH  13  20
HETATM   20  O8  UNL     1      12.198  46.583  27.497  1.00  0.00    -0.390 OA
ATOM     21  H8  UNL     1      12.053  47.258  28.150  1.00  0.00     0.210 HD
ENDBRANCH  13  20
BRANCH  14  22
HETATM   22  O9  UNL     1      14.415  47.341  26.146  1.00  0.00    -0.388 OA
ATOM     23  H9  UNL     1      14.573  46.445  25.873  1.00  0.00     0.210 HD
ENDBRANCH  14  22
ENDBRANCH   8   9
ENDBRANCH   6   8
BRANCH   7  24
HETATM   24  O10 UNL     1      15.121  51.646  23.419  1.00  0.00    -0.388 OA
ATOM     25  H10 UNL     1      15.933  51.232  23.148  1.00  0.00     0.210 HD
ENDBRANCH   7  24
BRANCH   4  26
HETATM   26  C8  UNL     1       9.458  50.156  23.898  1.00  0.00    -0.005 C 
HETATM   27  C9  UNL     1       8.488  51.288  24.187  1.00  0.00     0.007 C 
HETATM   28  C10 UNL     1       7.111  50.690  24.143  1.00  0.00     0.032 C 
HETATM   29  C11 UNL     1       7.304  49.186  24.304  1.00  0.00     0.118 C 
HETATM   30  C12 UNL     1       8.787  49.021  24.628  1.00  0.00     0.037 C 
BRANCH  29  31
HETATM   31  O3  UNL     1       6.958  48.592  23.106  1.00  0.00    -0.396 OA
ATOM     32  H3  UNL     1       6.165  49.012  22.797  1.00  0.00     0.210 HD
ENDBRANCH  29  31
ENDBRANCH   4  26
BRANCH   1  33
HETATM   33  O1  UNL     1      13.223  52.079  20.826  1.00  0.00    -0.359 OA
BRANCH  33  34
HETATM   34  C4  UNL     1      14.199  52.953  20.431  1.00  0.00     0.171 C 
BRANCH  34  35
HETATM   35  C3  UNL     1      15.056  52.419  19.303  1.00  0.00     0.026 C 
BRANCH  35  36
HETATM   36  C2  UNL     1      14.144  51.522  18.473  1.00  0.00    -0.002 C 
HETATM   37  C1  UNL     1      13.856  52.072  17.121  1.00  0.00     0.005 C 
ENDBRANCH  35  36
ENDBRANCH  34  35
ENDBRANCH  33  34
ENDBRANCH   1  33
TORSDOF 14
ENDMDL
