MODEL 1
REMARK VINA RESULT: -7.532607444      0.000      0.000
REMARK  11 active torsions:
REMARK  status: ('A' for Active; 'I' for Inactive)
REMARK    1  A    between atoms: N1_2  and  C2_4 
REMARK    2  A    between atoms: C2_4  and  N2_5 
REMARK    3  A    between atoms: C2_4  and  C11_15 
REMARK    4  A    between atoms: N2_5  and  S1_6 
REMARK    5  A    between atoms: S1_6  and  C3_7 
REMARK    6  A    between atoms: C11_15  and  N3_16 
REMARK    7  A    between atoms: C11_15  and  C12_20 
REMARK    8  A    between atoms: C16_27  and  C17_28 
REMARK    9  A    between atoms: C17_28  and  O4_29 
REMARK   10  A    between atoms: C19_33  and  C20_34 
REMARK   11  A    between atoms: C20_34  and  O6_35 
ROOT
HETATM    1  C11 UNL     1      11.306  51.358  23.406  1.00  0.00     0.253 C 
ENDROOT
BRANCH   1   2
HETATM    2  C2  UNL     1       9.968  50.917  22.935  1.00  0.00     0.213 C 
BRANCH   2   3
HETATM    3  N1  UNL     1       8.843  51.668  23.359  1.00  0.00    -0.406 N 
HETATM    4  C1  UNL     1       7.912  51.020  24.219  1.00  0.00     0.141 C 
ATOM      5  H1  UNL     1       8.707  52.633  23.060  1.00  0.00     0.154 HD
ENDBRANCH   2   3
BRANCH   2   6
HETATM    6  N2  UNL     1       9.770  49.471  23.101  1.00  0.00    -0.151 NA
BRANCH   6   7
HETATM    7  S1  UNL     1      10.057  48.712  21.533  1.00  0.00    -0.053 SA
BRANCH   7   8
HETATM    8  C3  UNL     1      11.464  47.612  21.554  1.00  0.00     0.029 C 
HETATM    9  C4  UNL     1      11.353  46.399  22.462  1.00  0.00     0.026 C 
HETATM   10  C5  UNL     1      12.798  46.201  22.859  1.00  0.00    -0.012 C 
HETATM   11  C6  UNL     1      13.599  45.934  21.615  1.00  0.00     0.010 C 
HETATM   12  C10 UNL     1      13.202  47.660  23.133  1.00  0.00     0.011 C 
HETATM   13  C7  UNL     1      13.373  47.215  20.819  1.00  0.00    -0.007 C 
HETATM   14  C8  UNL     1      11.980  47.187  20.172  1.00  0.00     0.027 C 
HETATM   15  C9  UNL     1      12.803  48.223  21.788  1.00  0.00     0.010 C 
ENDBRANCH   7   8
ENDBRANCH   6   7
ENDBRANCH   2   6
ENDBRANCH   1   2
BRANCH   1  16
HETATM   16  N3  UNL     1      11.617  50.728  24.655  1.00  0.00    -0.069 N 
ATOM     17  H33 UNL     1      10.799  50.286  25.075  1.00  0.00     0.275 HD
ATOM     18  H32 UNL     1      12.189  49.893  24.530  1.00  0.00     0.275 HD
ATOM     19  H31 UNL     1      12.054  51.401  25.285  1.00  0.00     0.275 HD
ENDBRANCH   1  16
BRANCH   1  20
HETATM   20  C12 UNL     1      12.375  51.422  22.403  1.00  0.00     0.189 C 
HETATM   21  O1  UNL     1      12.094  52.459  21.491  1.00  0.00    -0.348 OA
HETATM   22  C13 UNL     1      12.844  52.176  20.323  1.00  0.00     0.295 C 
HETATM   23  O2  UNL     1      12.318  51.008  19.827  1.00  0.00    -0.329 OA
HETATM   24  C18 UNL     1      14.304  52.042  20.596  1.00  0.00     0.208 C 
HETATM   25  C14 UNL     1      12.943  50.557  18.668  1.00  0.00     0.259 C 
HETATM   26  C15 UNL     1      12.554  51.387  17.471  1.00  0.00     0.071 C 
HETATM   27  O3  UNL     1      14.290  50.377  18.818  1.00  0.00    -0.351 OA
HETATM   28  C16 UNL     1      14.989  51.367  19.432  1.00  0.00     0.182 C 
HETATM   29  O5  UNL     1      14.592  51.330  21.727  1.00  0.00    -0.368 OA
HETATM   30  C19 UNL     1      13.778  51.569  22.829  1.00  0.00     0.177 C 
BRANCH  28  31
HETATM   31  C17 UNL     1      15.472  52.446  18.484  1.00  0.00     0.199 C 
BRANCH  31  32
HETATM   32  O4  UNL     1      16.880  52.458  18.464  1.00  0.00    -0.398 OA
ATOM     33  H4  UNL     1      17.203  52.946  19.213  1.00  0.00     0.209 HD
ENDBRANCH  31  32
ENDBRANCH  28  31
BRANCH  30  34
HETATM   34  C20 UNL     1      14.132  52.849  23.493  1.00  0.00     0.198 C 
BRANCH  34  35
HETATM   35  O6  UNL     1      13.162  53.806  23.571  1.00  0.00    -0.398 OA
ATOM     36  H6  UNL     1      13.063  54.263  24.399  1.00  0.00     0.209 HD
ENDBRANCH  34  35
ENDBRANCH  30  34
ENDBRANCH   1  20
TORSDOF 11
ENDMDL
MODEL 2
REMARK VINA RESULT: -7.302910479      1.003      1.399
REMARK  11 active torsions:
REMARK  status: ('A' for Active; 'I' for Inactive)
REMARK    1  A    between atoms: N1_2  and  C2_4 
REMARK    2  A    between atoms: C2_4  and  N2_5 
REMARK    3  A    between atoms: C2_4  and  C11_15 
REMARK    4  A    between atoms: N2_5  and  S1_6 
REMARK    5  A    between atoms: S1_6  and  C3_7 
REMARK    6  A    between atoms: C11_15  and  N3_16 
REMARK    7  A    between atoms: C11_15  and  C12_20 
REMARK    8  A    between atoms: C16_27  and  C17_28 
REMARK    9  A    between atoms: C17_28  and  O4_29 
REMARK   10  A    between atoms: C19_33  and  C20_34 
REMARK   11  A    between atoms: C20_34  and  O6_35 
ROOT
HETATM    1  C11 UNL     1      11.109  51.329  23.299  1.00  0.00     0.253 C 
ENDROOT
BRANCH   1   2
HETATM    2  C2  UNL     1       9.834  50.682  22.897  1.00  0.00     0.213 C 
BRANCH   2   3
HETATM    3  N1  UNL     1       8.919  50.341  23.925  1.00  0.00    -0.406 N 
HETATM    4  C1  UNL     1       7.946  51.317  24.282  1.00  0.00     0.141 C 
ATOM      5  H1  UNL     1       8.957  49.433  24.389  1.00  0.00     0.154 HD
ENDBRANCH   2   3
BRANCH   2   6
HETATM    6  N2  UNL     1      10.045  49.580  21.948  1.00  0.00    -0.151 NA
BRANCH   6   7
HETATM    7  S1  UNL     1       9.457  48.101  22.712  1.00  0.00    -0.053 SA
BRANCH   7   8
HETATM    8  C3  UNL     1      10.773  47.145  23.452  1.00  0.00     0.029 C 
HETATM    9  C4  UNL     1      11.043  47.403  24.924  1.00  0.00     0.026 C 
HETATM   10  C5  UNL     1      12.530  47.142  24.997  1.00  0.00    -0.012 C 
HETATM   11  C6  UNL     1      12.780  45.715  24.593  1.00  0.00     0.010 C 
HETATM   12  C10 UNL     1      12.991  47.869  23.721  1.00  0.00     0.011 C 
HETATM   13  C7  UNL     1      12.244  45.697  23.166  1.00  0.00    -0.007 C 
HETATM   14  C8  UNL     1      10.709  45.634  23.187  1.00  0.00     0.027 C 
HETATM   15  C9  UNL     1      12.088  47.140  22.752  1.00  0.00     0.010 C 
ENDBRANCH   7   8
ENDBRANCH   6   7
ENDBRANCH   2   6
ENDBRANCH   1   2
BRANCH   1  16
HETATM   16  N3  UNL     1      11.466  50.925  24.626  1.00  0.00    -0.069 N 
ATOM     17  H33 UNL     1      10.822  50.227  24.999  1.00  0.00     0.275 HD
ATOM     18  H32 UNL     1      12.317  50.363  24.638  1.00  0.00     0.275 HD
ATOM     19  H31 UNL     1      11.539  51.742  25.232  1.00  0.00     0.275 HD
ENDBRANCH   1  16
BRANCH   1  20
HETATM   20  C12 UNL     1      12.180  51.363  22.296  1.00  0.00     0.189 C 
HETATM   21  O1  UNL     1      11.985  52.468  21.445  1.00  0.00    -0.348 OA
HETATM   22  C13 UNL     1      12.710  52.192  20.259  1.00  0.00     0.295 C 
HETATM   23  O2  UNL     1      12.093  51.099  19.701  1.00  0.00    -0.329 OA
HETATM   24  C18 UNL     1      14.155  51.927  20.520  1.00  0.00     0.208 C 
HETATM   25  C14 UNL     1      12.681  50.664  18.517  1.00  0.00     0.259 C 
HETATM   26  C15 UNL     1      12.360  51.588  17.370  1.00  0.00     0.071 C 
HETATM   27  O3  UNL     1      14.009  50.369  18.652  1.00  0.00    -0.351 OA
HETATM   28  C16 UNL     1      14.785  51.264  19.318  1.00  0.00     0.182 C 
HETATM   29  O5  UNL     1      14.384  51.132  21.609  1.00  0.00    -0.368 OA
HETATM   30  C19 UNL     1      13.590  51.374  22.725  1.00  0.00     0.177 C 
BRANCH  28  31
HETATM   31  C17 UNL     1      15.353  52.352  18.429  1.00  0.00     0.199 C 
BRANCH  31  32
HETATM   32  O4  UNL     1      16.755  52.378  18.558  1.00  0.00    -0.398 OA
ATOM     33  H4  UNL     1      17.154  52.308  17.698  1.00  0.00     0.209 HD
ENDBRANCH  31  32
ENDBRANCH  28  31
BRANCH  30  34
HETATM   34  C20 UNL     1      14.045  52.582  23.458  1.00  0.00     0.198 C 
BRANCH  34  35
HETATM   35  O6  UNL     1      13.125  53.567  23.679  1.00  0.00    -0.398 OA
ATOM     36  H6  UNL     1      13.092  54.283  23.056  1.00  0.00     0.209 HD
ENDBRANCH  34  35
ENDBRANCH  30  34
ENDBRANCH   1  20
TORSDOF 11
ENDMDL
MODEL 3
REMARK VINA RESULT: -7.287121092      4.086      7.113
REMARK  11 active torsions:
REMARK  status: ('A' for Active; 'I' for Inactive)
REMARK    1  A    between atoms: N1_2  and  C2_4 
REMARK    2  A    between atoms: C2_4  and  N2_5 
REMARK    3  A    between atoms: C2_4  and  C11_15 
REMARK    4  A    between atoms: N2_5  and  S1_6 
REMARK    5  A    between atoms: S1_6  and  C3_7 
REMARK    6  A    between atoms: C11_15  and  N3_16 
REMARK    7  A    between atoms: C11_15  and  C12_20 
REMARK    8  A    between atoms: C16_27  and  C17_28 
REMARK    9  A    between atoms: C17_28  and  O4_29 
REMARK   10  A    between atoms: C19_33  and  C20_34 
REMARK   11  A    between atoms: C20_34  and  O6_35 
ROOT
HETATM    1  C11 UNL     1      12.286  49.444  24.116  1.00  0.00     0.253 C 
ENDROOT
BRANCH   1   2
HETATM    2  C2  UNL     1      12.267  49.464  22.630  1.00  0.00     0.213 C 
BRANCH   2   3
HETATM    3  N1  UNL     1      11.707  48.344  21.967  1.00  0.00    -0.406 N 
HETATM    4  C1  UNL     1      12.480  47.746  20.931  1.00  0.00     0.141 C 
ATOM      5  H1  UNL     1      10.789  47.981  22.222  1.00  0.00     0.154 HD
ENDBRANCH   2   3
BRANCH   2   6
HETATM    6  N2  UNL     1      13.563  49.860  22.063  1.00  0.00    -0.151 NA
BRANCH   6   7
HETATM    7  S1  UNL     1      13.448  51.565  21.618  1.00  0.00    -0.053 SA
BRANCH   7   8
HETATM    8  C3  UNL     1      13.632  51.825  19.860  1.00  0.00     0.029 C 
HETATM    9  C4  UNL     1      12.626  52.761  19.212  1.00  0.00     0.026 C 
HETATM   10  C5  UNL     1      12.525  52.164  17.827  1.00  0.00    -0.012 C 
HETATM   11  C6  UNL     1      13.882  52.223  17.185  1.00  0.00     0.010 C 
HETATM   12  C10 UNL     1      12.460  50.669  18.186  1.00  0.00     0.011 C 
HETATM   13  C7  UNL     1      14.715  51.372  18.139  1.00  0.00    -0.007 C 
HETATM   14  C8  UNL     1      15.052  52.182  19.399  1.00  0.00     0.027 C 
HETATM   15  C9  UNL     1      13.733  50.614  18.999  1.00  0.00     0.010 C 
ENDBRANCH   7   8
ENDBRANCH   6   7
ENDBRANCH   2   6
ENDBRANCH   1   2
BRANCH   1  16
HETATM   16  N3  UNL     1      11.587  50.584  24.629  1.00  0.00    -0.069 N 
ATOM     17  H33 UNL     1      11.906  51.454  24.201  1.00  0.00     0.275 HD
ATOM     18  H32 UNL     1      10.617  50.611  24.316  1.00  0.00     0.275 HD
ATOM     19  H31 UNL     1      11.661  50.610  25.647  1.00  0.00     0.275 HD
ENDBRANCH   1  16
BRANCH   1  20
HETATM   20  C12 UNL     1      12.033  48.153  24.765  1.00  0.00     0.189 C 
HETATM   21  O1  UNL     1      13.037  47.239  24.390  1.00  0.00    -0.348 OA
HETATM   22  C13 UNL     1      12.507  45.946  24.623  1.00  0.00     0.295 C 
HETATM   23  O2  UNL     1      11.457  45.820  23.748  1.00  0.00    -0.329 OA
HETATM   24  C18 UNL     1      12.066  45.753  26.035  1.00  0.00     0.208 C 
HETATM   25  C14 UNL     1      10.792  44.600  23.838  1.00  0.00     0.259 C 
HETATM   26  C15 UNL     1      11.599  43.485  23.226  1.00  0.00     0.071 C 
HETATM   27  O3  UNL     1      10.322  44.335  25.095  1.00  0.00    -0.351 OA
HETATM   28  C16 UNL     1      11.169  44.542  26.136  1.00  0.00     0.182 C 
HETATM   29  O5  UNL     1      11.390  46.823  26.554  1.00  0.00    -0.368 OA
HETATM   30  C19 UNL     1      11.888  48.081  26.230  1.00  0.00     0.177 C 
BRANCH  28  31
HETATM   31  C17 UNL     1      12.038  43.344  26.459  1.00  0.00     0.199 C 
BRANCH  31  32
HETATM   32  O4  UNL     1      11.278  42.387  27.159  1.00  0.00    -0.398 OA
ATOM     33  H4  UNL     1      10.939  41.743  26.547  1.00  0.00     0.209 HD
ENDBRANCH  31  32
ENDBRANCH  28  31
BRANCH  30  34
HETATM   34  C20 UNL     1      13.099  48.404  27.026  1.00  0.00     0.198 C 
BRANCH  34  35
HETATM   35  O6  UNL     1      13.883  49.432  26.589  1.00  0.00    -0.398 OA
ATOM     36  H6  UNL     1      13.584  50.316  26.766  1.00  0.00     0.209 HD
ENDBRANCH  34  35
ENDBRANCH  30  34
ENDBRANCH   1  20
TORSDOF 11
ENDMDL
MODEL 4
REMARK VINA RESULT: -7.273733541      1.266      1.743
REMARK  11 active torsions:
REMARK  status: ('A' for Active; 'I' for Inactive)
REMARK    1  A    between atoms: N1_2  and  C2_4 
REMARK    2  A    between atoms: C2_4  and  N2_5 
REMARK    3  A    between atoms: C2_4  and  C11_15 
REMARK    4  A    between atoms: N2_5  and  S1_6 
REMARK    5  A    between atoms: S1_6  and  C3_7 
REMARK    6  A    between atoms: C11_15  and  N3_16 
REMARK    7  A    between atoms: C11_15  and  C12_20 
REMARK    8  A    between atoms: C16_27  and  C17_28 
REMARK    9  A    between atoms: C17_28  and  O4_29 
REMARK   10  A    between atoms: C19_33  and  C20_34 
REMARK   11  A    between atoms: C20_34  and  O6_35 
ROOT
HETATM    1  C11 UNL     1      11.067  51.319  23.299  1.00  0.00     0.253 C 
ENDROOT
BRANCH   1   2
HETATM    2  C2  UNL     1       9.801  50.647  22.907  1.00  0.00     0.213 C 
BRANCH   2   3
HETATM    3  N1  UNL     1       8.877  50.338  23.936  1.00  0.00    -0.406 N 
HETATM    4  C1  UNL     1       7.921  51.337  24.276  1.00  0.00     0.141 C 
ATOM      5  H1  UNL     1       8.896  49.437  24.414  1.00  0.00     0.154 HD
ENDBRANCH   2   3
BRANCH   2   6
HETATM    6  N2  UNL     1      10.032  49.512  22.003  1.00  0.00    -0.151 NA
BRANCH   6   7
HETATM    7  S1  UNL     1       9.460  48.056  22.823  1.00  0.00    -0.053 SA
BRANCH   7   8
HETATM    8  C3  UNL     1      10.774  47.184  23.661  1.00  0.00     0.029 C 
HETATM    9  C4  UNL     1      10.744  45.669  23.562  1.00  0.00     0.026 C 
HETATM   10  C5  UNL     1      11.359  45.278  24.886  1.00  0.00    -0.012 C 
HETATM   11  C6  UNL     1      12.754  45.837  24.943  1.00  0.00     0.010 C 
HETATM   12  C10 UNL     1      10.634  46.266  25.818  1.00  0.00     0.011 C 
HETATM   13  C7  UNL     1      12.494  47.335  24.828  1.00  0.00    -0.007 C 
HETATM   14  C8  UNL     1      12.190  47.700  23.367  1.00  0.00     0.027 C 
HETATM   15  C9  UNL     1      11.021  47.532  25.089  1.00  0.00     0.010 C 
ENDBRANCH   7   8
ENDBRANCH   6   7
ENDBRANCH   2   6
ENDBRANCH   1   2
BRANCH   1  16
HETATM   16  N3  UNL     1      11.425  50.946  24.635  1.00  0.00    -0.069 N 
ATOM     17  H33 UNL     1      10.771  50.273  25.033  1.00  0.00     0.275 HD
ATOM     18  H32 UNL     1      12.265  50.368  24.658  1.00  0.00     0.275 HD
ATOM     19  H31 UNL     1      11.518  51.779  25.216  1.00  0.00     0.275 HD
ENDBRANCH   1  16
BRANCH   1  20
HETATM   20  C12 UNL     1      12.140  51.347  22.299  1.00  0.00     0.189 C 
HETATM   21  O1  UNL     1      11.960  52.460  21.455  1.00  0.00    -0.348 OA
HETATM   22  C13 UNL     1      12.684  52.183  20.269  1.00  0.00     0.295 C 
HETATM   23  O2  UNL     1      12.054  51.102  19.702  1.00  0.00    -0.329 OA
HETATM   24  C18 UNL     1      14.125  51.898  20.530  1.00  0.00     0.208 C 
HETATM   25  C14 UNL     1      12.639  50.669  18.516  1.00  0.00     0.259 C 
HETATM   26  C15 UNL     1      12.332  51.605  17.374  1.00  0.00     0.071 C 
HETATM   27  O3  UNL     1      13.963  50.356  18.651  1.00  0.00    -0.351 OA
HETATM   28  C16 UNL     1      14.749  51.236  19.324  1.00  0.00     0.182 C 
HETATM   29  O5  UNL     1      14.342  51.092  21.613  1.00  0.00    -0.368 OA
HETATM   30  C19 UNL     1      13.549  51.336  22.730  1.00  0.00     0.177 C 
BRANCH  28  31
HETATM   31  C17 UNL     1      15.333  52.323  18.445  1.00  0.00     0.199 C 
BRANCH  31  32
HETATM   32  O4  UNL     1      16.734  52.338  18.585  1.00  0.00    -0.398 OA
ATOM     33  H4  UNL     1      17.033  53.235  18.678  1.00  0.00     0.209 HD
ENDBRANCH  31  32
ENDBRANCH  28  31
BRANCH  30  34
HETATM   34  C20 UNL     1      14.018  52.533  23.472  1.00  0.00     0.198 C 
BRANCH  34  35
HETATM   35  O6  UNL     1      13.125  53.550  23.655  1.00  0.00    -0.398 OA
ATOM     36  H6  UNL     1      13.273  54.355  23.173  1.00  0.00     0.209 HD
ENDBRANCH  34  35
ENDBRANCH  30  34
ENDBRANCH   1  20
TORSDOF 11
ENDMDL
MODEL 5
REMARK VINA RESULT: -7.213065208      3.572      6.517
REMARK  11 active torsions:
REMARK  status: ('A' for Active; 'I' for Inactive)
REMARK    1  A    between atoms: N1_2  and  C2_4 
REMARK    2  A    between atoms: C2_4  and  N2_5 
REMARK    3  A    between atoms: C2_4  and  C11_15 
REMARK    4  A    between atoms: N2_5  and  S1_6 
REMARK    5  A    between atoms: S1_6  and  C3_7 
REMARK    6  A    between atoms: C11_15  and  N3_16 
REMARK    7  A    between atoms: C11_15  and  C12_20 
REMARK    8  A    between atoms: C16_27  and  C17_28 
REMARK    9  A    between atoms: C17_28  and  O4_29 
REMARK   10  A    between atoms: C19_33  and  C20_34 
REMARK   11  A    between atoms: C20_34  and  O6_35 
ROOT
HETATM    1  C11 UNL     1      12.539  49.165  24.013  1.00  0.00     0.253 C 
ENDROOT
BRANCH   1   2
HETATM    2  C2  UNL     1      12.426  49.791  22.671  1.00  0.00     0.213 C 
BRANCH   2   3
HETATM    3  N1  UNL     1      11.919  48.993  21.616  1.00  0.00    -0.406 N 
HETATM    4  C1  UNL     1      10.561  49.199  21.237  1.00  0.00     0.141 C 
ATOM      5  H1  UNL     1      12.501  48.299  21.148  1.00  0.00     0.154 HD
ENDBRANCH   2   3
BRANCH   2   6
HETATM    6  N2  UNL     1      13.649  50.511  22.289  1.00  0.00    -0.151 NA
BRANCH   6   7
HETATM    7  S1  UNL     1      13.158  52.043  21.560  1.00  0.00    -0.053 SA
BRANCH   7   8
HETATM    8  C3  UNL     1      13.465  52.091  19.802  1.00  0.00     0.029 C 
HETATM    9  C4  UNL     1      12.466  52.874  18.967  1.00  0.00     0.026 C 
HETATM   10  C5  UNL     1      12.504  52.102  17.668  1.00  0.00    -0.012 C 
HETATM   11  C6  UNL     1      13.902  52.163  17.122  1.00  0.00     0.010 C 
HETATM   12  C10 UNL     1      12.489  50.663  18.213  1.00  0.00     0.011 C 
HETATM   13  C7  UNL     1      14.701  51.492  18.234  1.00  0.00    -0.007 C 
HETATM   14  C8  UNL     1      14.897  52.473  19.400  1.00  0.00     0.027 C 
HETATM   15  C9  UNL     1      13.696  50.789  19.114  1.00  0.00     0.010 C 
ENDBRANCH   7   8
ENDBRANCH   6   7
ENDBRANCH   2   6
ENDBRANCH   1   2
BRANCH   1  16
HETATM   16  N3  UNL     1      11.704  49.859  24.948  1.00  0.00    -0.069 N 
ATOM     17  H33 UNL     1      10.730  49.563  24.884  1.00  0.00     0.275 HD
ATOM     18  H32 UNL     1      11.884  49.569  25.909  1.00  0.00     0.275 HD
ATOM     19  H31 UNL     1      11.806  50.866  24.827  1.00  0.00     0.275 HD
ENDBRANCH   1  16
BRANCH   1  20
HETATM   20  C12 UNL     1      12.529  47.699  24.064  1.00  0.00     0.189 C 
HETATM   21  O1  UNL     1      13.634  47.202  23.345  1.00  0.00    -0.348 OA
HETATM   22  C13 UNL     1      13.323  45.859  23.016  1.00  0.00     0.295 C 
HETATM   23  O2  UNL     1      12.248  45.932  22.165  1.00  0.00    -0.329 OA
HETATM   24  C18 UNL     1      13.011  45.031  24.218  1.00  0.00     0.208 C 
HETATM   25  C14 UNL     1      11.784  44.691  21.737  1.00  0.00     0.259 C 
HETATM   26  C15 UNL     1      12.709  44.078  20.716  1.00  0.00     0.071 C 
HETATM   27  O3  UNL     1      11.445  43.858  22.767  1.00  0.00    -0.351 OA
HETATM   28  C16 UNL     1      12.318  43.755  23.802  1.00  0.00     0.182 C 
HETATM   29  O5  UNL     1      12.217  45.664  25.134  1.00  0.00    -0.368 OA
HETATM   30  C19 UNL     1      12.495  47.007  25.365  1.00  0.00     0.177 C 
BRANCH  28  31
HETATM   31  C17 UNL     1      13.380  42.693  23.597  1.00  0.00     0.199 C 
BRANCH  31  32
HETATM   32  O4  UNL     1      14.510  43.002  24.379  1.00  0.00    -0.398 OA
ATOM     33  H4  UNL     1      15.151  42.305  24.297  1.00  0.00     0.209 HD
ENDBRANCH  31  32
ENDBRANCH  28  31
BRANCH  30  34
HETATM   34  C20 UNL     1      13.693  47.169  26.227  1.00  0.00     0.198 C 
BRANCH  34  35
HETATM   35  O6  UNL     1      13.816  48.340  26.918  1.00  0.00    -0.398 OA
ATOM     36  H6  UNL     1      13.689  49.149  26.435  1.00  0.00     0.209 HD
ENDBRANCH  34  35
ENDBRANCH  30  34
ENDBRANCH   1  20
TORSDOF 11
ENDMDL
