MODEL 1
REMARK VINA RESULT: -5.262864998      0.000      0.000
REMARK  20 active torsions:
REMARK  status: ('A' for Active; 'I' for Inactive)
REMARK    1  A    between atoms: N1_1  and  C1_5 
REMARK    2  A    between atoms: C1_5  and  C2_6 
REMARK    3  A    between atoms: C2_6  and  N2_7 
REMARK    4  A    between atoms: N2_7  and  C3_9 
REMARK    5  A    between atoms: C3_9  and  C4_10 
REMARK    6  A    between atoms: C6_12  and  N3_13 
REMARK    7  A    between atoms: C7_17  and  O1_18 
REMARK    8  A    between atoms: O1_18  and  C8_19 
REMARK    9  A    between atoms: C9_20  and  N4_21 
REMARK   10  A    between atoms: C11_26  and  N5_27 
REMARK   11  A    between atoms: C12_31  and  O2_32 
REMARK   12  A    between atoms: O2_32  and  C13_33 
REMARK   13  A    between atoms: C14_34  and  O3_35 
REMARK   14  A    between atoms: C15_37  and  N6_38 
REMARK   15  A    between atoms: C17_43  and  N7_44 
REMARK   16  A    between atoms: C18_48  and  O4_49 
REMARK   17  A    between atoms: O4_49  and  C19_50 
REMARK   18  A    between atoms: C19_50  and  C20_51 
REMARK   19  A    between atoms: C20_51  and  N8_52 
REMARK   20  A    between atoms: C21_56  and  O5_57 
ROOT
HETATM    1  C8  UNL     1      -9.095   3.648  65.417  1.00  0.00     0.186 C 
HETATM    2  C9  UNL     1      -7.794   3.788  64.715  1.00  0.00     0.217 C 
HETATM    3  C10 UNL     1      -6.880   2.620  64.743  1.00  0.00     0.071 C 
HETATM    4  C11 UNL     1      -7.305   1.525  65.660  1.00  0.00     0.217 C 
HETATM    5  C12 UNL     1      -7.891   2.029  66.954  1.00  0.00     0.183 C 
HETATM    6  C21 UNL     1      -9.099   2.895  66.701  1.00  0.00     0.180 C 
ENDROOT
BRANCH   5   7
HETATM    7  O2  UNL     1      -7.058   2.648  67.819  1.00  0.00    -0.370 OA
BRANCH   7   8
HETATM    8  C13 UNL     1      -6.191   1.923  68.566  1.00  0.00     0.183 C 
HETATM    9  C14 UNL     1      -4.966   2.767  68.829  1.00  0.00     0.180 C 
HETATM   10  C15 UNL     1      -3.849   1.915  69.452  1.00  0.00     0.216 C 
HETATM   11  C16 UNL     1      -4.368   1.496  70.811  1.00  0.00     0.071 C 
HETATM   12  C17 UNL     1      -5.591   0.643  70.557  1.00  0.00     0.217 C 
HETATM   13  C18 UNL     1      -6.692   1.496  69.933  1.00  0.00     0.183 C 
BRANCH   9  14
HETATM   14  O3  UNL     1      -4.514   3.304  67.643  1.00  0.00    -0.391 OA
ATOM     15  H3  UNL     1      -4.377   4.237  67.750  1.00  0.00     0.210 HD
ENDBRANCH   9  14
BRANCH  10  16
HETATM   16  N6  UNL     1      -2.676   2.761  69.566  1.00  0.00    -0.072 N 
ATOM     17  H63 UNL     1      -2.232   2.951  68.668  1.00  0.00     0.274 HD
ATOM     18  H62 UNL     1      -2.902   3.726  69.807  1.00  0.00     0.274 HD
ATOM     19  H61 UNL     1      -2.049   2.318  70.238  1.00  0.00     0.274 HD
ENDBRANCH  10  16
BRANCH  12  20
HETATM   20  N7  UNL     1      -5.198  -0.429  69.659  1.00  0.00    -0.072 N 
ATOM     21  H73 UNL     1      -4.216  -0.688  69.754  1.00  0.00     0.274 HD
ATOM     22  H72 UNL     1      -5.599  -1.330  69.915  1.00  0.00     0.274 HD
ATOM     23  H71 UNL     1      -5.442  -0.140  68.711  1.00  0.00     0.274 HD
ENDBRANCH  12  20
BRANCH  13  24
HETATM   24  O4  UNL     1      -6.894   2.546  70.809  1.00  0.00    -0.379 OA
BRANCH  24  25
HETATM   25  C19 UNL     1      -8.234   2.753  71.072  1.00  0.00     0.195 C 
BRANCH  25  26
HETATM   26  C20 UNL     1      -8.480   4.261  71.174  1.00  0.00     0.255 C 
BRANCH  26  27
HETATM   27  N8  UNL     1      -7.964   4.851  69.976  1.00  0.00    -0.077 N 
ATOM     28  H83 UNL     1      -8.460   4.553  69.136  1.00  0.00     0.274 HD
ATOM     29  H82 UNL     1      -8.168   5.848  69.900  1.00  0.00     0.274 HD
ATOM     30  H81 UNL     1      -6.966   4.643  69.948  1.00  0.00     0.274 HD
ENDBRANCH  26  27
ENDBRANCH  25  26
ENDBRANCH  24  25
ENDBRANCH  13  24
ENDBRANCH   7   8
ENDBRANCH   5   7
BRANCH   4  31
HETATM   31  N5  UNL     1      -8.414   0.801  64.997  1.00  0.00    -0.072 N 
ATOM     32  H53 UNL     1      -9.231   1.387  64.830  1.00  0.00     0.274 HD
ATOM     33  H52 UNL     1      -8.215   0.571  64.023  1.00  0.00     0.274 HD
ATOM     34  H51 UNL     1      -8.623  -0.021  65.566  1.00  0.00     0.274 HD
ENDBRANCH   4  31
BRANCH   6  35
HETATM   35  O5  UNL     1      -9.318   3.746  67.782  1.00  0.00    -0.390 OA
ATOM     36  H5  UNL     1      -9.642   3.267  68.535  1.00  0.00     0.210 HD
ENDBRANCH   6  35
BRANCH   1  37
HETATM   37  O1  UNL     1     -10.129   3.230  64.552  1.00  0.00    -0.349 OA
BRANCH  37  38
HETATM   38  C7  UNL     1     -11.082   4.199  64.361  1.00  0.00     0.291 C 
HETATM   39  C6  UNL     1     -12.447   3.562  64.343  1.00  0.00     0.241 C 
HETATM   40  C5  UNL     1     -13.282   4.794  64.707  1.00  0.00     0.075 C 
HETATM   41  C4  UNL     1     -12.382   5.538  65.640  1.00  0.00     0.164 C 
HETATM   42  O6  UNL     1     -11.088   5.050  65.454  1.00  0.00    -0.349 OA
BRANCH  39  43
HETATM   43  N3  UNL     1     -12.494   2.606  65.425  1.00  0.00    -0.070 N 
ATOM     44  H33 UNL     1     -12.926   2.995  66.263  1.00  0.00     0.274 HD
ATOM     45  H32 UNL     1     -13.164   1.858  65.248  1.00  0.00     0.274 HD
ATOM     46  H31 UNL     1     -11.556   2.248  65.607  1.00  0.00     0.274 HD
ENDBRANCH  39  43
BRANCH  41  47
HETATM   47  C3  UNL     1     -12.408   7.036  65.416  1.00  0.00     0.087 C 
BRANCH  47  48
HETATM   48  N2  UNL     1     -11.295   7.784  65.787  1.00  0.00    -0.398 N 
ATOM     49  H2  UNL     1     -10.542   7.919  65.111  1.00  0.00     0.158 HD
BRANCH  48  50
HETATM   50  C2  UNL     1     -11.173   8.360  67.068  1.00  0.00     0.146 C 
BRANCH  50  51
HETATM   51  C1  UNL     1      -9.724   8.147  67.533  1.00  0.00     0.249 C 
BRANCH  51  52
HETATM   52  N1  UNL     1      -9.286   6.817  67.243  1.00  0.00    -0.078 N 
ATOM     53  H13 UNL     1      -9.838   6.392  66.498  1.00  0.00     0.274 HD
ATOM     54  H12 UNL     1      -8.375   6.811  66.783  1.00  0.00     0.274 HD
ATOM     55  H11 UNL     1      -9.286   6.242  68.086  1.00  0.00     0.274 HD
ENDBRANCH  51  52
ENDBRANCH  50  51
ENDBRANCH  48  50
ENDBRANCH  47  48
ENDBRANCH  41  47
ENDBRANCH  37  38
ENDBRANCH   1  37
BRANCH   2  56
HETATM   56  N4  UNL     1      -7.104   5.036  65.098  1.00  0.00    -0.072 N 
ATOM     57  H43 UNL     1      -7.478   5.418  65.967  1.00  0.00     0.274 HD
ATOM     58  H42 UNL     1      -6.148   4.855  65.404  1.00  0.00     0.274 HD
ATOM     59  H41 UNL     1      -7.131   5.724  64.346  1.00  0.00     0.274 HD
ENDBRANCH   2  56
TORSDOF 20
ENDMDL
MODEL 2
REMARK VINA RESULT: -5.252582429      4.482     10.023
REMARK  20 active torsions:
REMARK  status: ('A' for Active; 'I' for Inactive)
REMARK    1  A    between atoms: N1_1  and  C1_5 
REMARK    2  A    between atoms: C1_5  and  C2_6 
REMARK    3  A    between atoms: C2_6  and  N2_7 
REMARK    4  A    between atoms: N2_7  and  C3_9 
REMARK    5  A    between atoms: C3_9  and  C4_10 
REMARK    6  A    between atoms: C6_12  and  N3_13 
REMARK    7  A    between atoms: C7_17  and  O1_18 
REMARK    8  A    between atoms: O1_18  and  C8_19 
REMARK    9  A    between atoms: C9_20  and  N4_21 
REMARK   10  A    between atoms: C11_26  and  N5_27 
REMARK   11  A    between atoms: C12_31  and  O2_32 
REMARK   12  A    between atoms: O2_32  and  C13_33 
REMARK   13  A    between atoms: C14_34  and  O3_35 
REMARK   14  A    between atoms: C15_37  and  N6_38 
REMARK   15  A    between atoms: C17_43  and  N7_44 
REMARK   16  A    between atoms: C18_48  and  O4_49 
REMARK   17  A    between atoms: O4_49  and  C19_50 
REMARK   18  A    between atoms: C19_50  and  C20_51 
REMARK   19  A    between atoms: C20_51  and  N8_52 
REMARK   20  A    between atoms: C21_56  and  O5_57 
ROOT
HETATM    1  C8  UNL     1      -5.552  -1.593  70.452  1.00  0.00     0.186 C 
HETATM    2  C9  UNL     1      -5.378  -0.402  71.321  1.00  0.00     0.217 C 
HETATM    3  C10 UNL     1      -6.577   0.437  71.568  1.00  0.00     0.071 C 
HETATM    4  C11 UNL     1      -7.759   0.087  70.732  1.00  0.00     0.217 C 
HETATM    5  C12 UNL     1      -7.398  -0.276  69.315  1.00  0.00     0.183 C 
HETATM    6  C21 UNL     1      -6.459  -1.456  69.280  1.00  0.00     0.180 C 
ENDROOT
BRANCH   5   7
HETATM    7  O2  UNL     1      -6.925   0.708  68.518  1.00  0.00    -0.370 OA
BRANCH   7   8
HETATM    8  C13 UNL     1      -7.482   1.943  68.558  1.00  0.00     0.183 C 
HETATM    9  C14 UNL     1      -6.384   2.967  68.402  1.00  0.00     0.180 C 
HETATM   10  C15 UNL     1      -6.920   4.378  68.691  1.00  0.00     0.216 C 
HETATM   11  C16 UNL     1      -7.920   4.667  67.592  1.00  0.00     0.071 C 
HETATM   12  C17 UNL     1      -9.029   3.649  67.745  1.00  0.00     0.217 C 
HETATM   13  C18 UNL     1      -8.485   2.251  67.462  1.00  0.00     0.183 C 
BRANCH   9  14
HETATM   14  O3  UNL     1      -5.363   2.685  69.283  1.00  0.00    -0.391 OA
ATOM     15  H3  UNL     1      -5.523   3.131  70.107  1.00  0.00     0.210 HD
ENDBRANCH   9  14
BRANCH  10  16
HETATM   16  N6  UNL     1      -5.790   5.287  68.637  1.00  0.00    -0.072 N 
ATOM     17  H63 UNL     1      -5.463   5.461  67.686  1.00  0.00     0.274 HD
ATOM     18  H62 UNL     1      -6.039   6.248  68.868  1.00  0.00     0.274 HD
ATOM     19  H61 UNL     1      -5.065   4.905  69.245  1.00  0.00     0.274 HD
ENDBRANCH  10  16
BRANCH  12  20
HETATM   20  N7  UNL     1      -9.523   3.743  69.107  1.00  0.00    -0.072 N 
ATOM     21  H73 UNL     1      -8.801   4.011  69.776  1.00  0.00     0.274 HD
ATOM     22  H72 UNL     1     -10.140   4.543  69.252  1.00  0.00     0.274 HD
ATOM     23  H71 UNL     1      -9.966   2.853  69.336  1.00  0.00     0.274 HD
ENDBRANCH  12  20
BRANCH  13  24
HETATM   24  O4  UNL     1      -7.932   2.313  66.197  1.00  0.00    -0.379 OA
BRANCH  24  25
HETATM   25  C19 UNL     1      -8.205   1.182  65.454  1.00  0.00     0.195 C 
BRANCH  25  26
HETATM   26  C20 UNL     1      -6.974   0.851  64.604  1.00  0.00     0.255 C 
BRANCH  26  27
HETATM   27  N8  UNL     1      -6.056   1.939  64.757  1.00  0.00    -0.077 N 
ATOM     28  H83 UNL     1      -6.171   2.664  64.048  1.00  0.00     0.274 HD
ATOM     29  H82 UNL     1      -6.256   2.521  65.571  1.00  0.00     0.274 HD
ATOM     30  H81 UNL     1      -5.119   1.538  64.772  1.00  0.00     0.274 HD
ENDBRANCH  26  27
ENDBRANCH  25  26
ENDBRANCH  24  25
ENDBRANCH  13  24
ENDBRANCH   7   8
ENDBRANCH   5   7
BRANCH   4  31
HETATM   31  N5  UNL     1      -8.350  -1.146  71.301  1.00  0.00    -0.072 N 
ATOM     32  H53 UNL     1      -8.481  -1.097  72.311  1.00  0.00     0.274 HD
ATOM     33  H52 UNL     1      -9.331  -1.272  71.047  1.00  0.00     0.274 HD
ATOM     34  H51 UNL     1      -7.761  -1.928  71.013  1.00  0.00     0.274 HD
ENDBRANCH   4  31
BRANCH   6  35
HETATM   35  O5  UNL     1      -5.741  -1.466  68.085  1.00  0.00    -0.390 OA
ATOM     36  H5  UNL     1      -6.234  -1.055  67.385  1.00  0.00     0.210 HD
ENDBRANCH   6  35
BRANCH   1  37
HETATM   37  O1  UNL     1      -5.818  -2.764  71.194  1.00  0.00    -0.349 OA
BRANCH  37  38
HETATM   38  C7  UNL     1      -4.674  -3.371  71.650  1.00  0.00     0.291 C 
HETATM   39  C6  UNL     1      -5.024  -4.327  72.761  1.00  0.00     0.241 C 
HETATM   40  C5  UNL     1      -3.795  -5.238  72.677  1.00  0.00     0.075 C 
HETATM   41  C4  UNL     1      -3.493  -5.250  71.214  1.00  0.00     0.164 C 
HETATM   42  O6  UNL     1      -4.146  -4.158  70.640  1.00  0.00    -0.349 OA
BRANCH  39  43
HETATM   43  N3  UNL     1      -6.200  -5.058  72.349  1.00  0.00    -0.070 N 
ATOM     44  H33 UNL     1      -5.971  -5.988  71.997  1.00  0.00     0.274 HD
ATOM     45  H32 UNL     1      -6.775  -5.339  73.143  1.00  0.00     0.274 HD
ATOM     46  H31 UNL     1      -6.725  -4.508  71.669  1.00  0.00     0.274 HD
ENDBRANCH  39  43
BRANCH  41  47
HETATM   47  C3  UNL     1      -2.009  -5.182  70.916  1.00  0.00     0.087 C 
BRANCH  47  48
HETATM   48  N2  UNL     1      -1.462  -6.119  70.044  1.00  0.00    -0.398 N 
ATOM     49  H2  UNL     1      -1.020  -5.794  69.183  1.00  0.00     0.158 HD
BRANCH  48  50
HETATM   50  C2  UNL     1      -1.499  -7.502  70.313  1.00  0.00     0.146 C 
BRANCH  50  51
HETATM   51  C1  UNL     1      -1.156  -8.234  69.006  1.00  0.00     0.249 C 
BRANCH  51  52
HETATM   52  N1  UNL     1      -0.224  -7.478  68.228  1.00  0.00    -0.078 N 
ATOM     53  H13 UNL     1      -0.663  -7.076  67.400  1.00  0.00     0.274 HD
ATOM     54  H12 UNL     1       0.044  -6.612  68.697  1.00  0.00     0.274 HD
ATOM     55  H11 UNL     1       0.591  -8.043  67.986  1.00  0.00     0.274 HD
ENDBRANCH  51  52
ENDBRANCH  50  51
ENDBRANCH  48  50
ENDBRANCH  47  48
ENDBRANCH  41  47
ENDBRANCH  37  38
ENDBRANCH   1  37
BRANCH   2  56
HETATM   56  N4  UNL     1      -4.217   0.408  70.902  1.00  0.00    -0.072 N 
ATOM     57  H43 UNL     1      -3.841   0.953  71.678  1.00  0.00     0.274 HD
ATOM     58  H42 UNL     1      -3.403  -0.176  70.712  1.00  0.00     0.274 HD
ATOM     59  H41 UNL     1      -4.444   1.002  70.104  1.00  0.00     0.274 HD
ENDBRANCH   2  56
TORSDOF 20
ENDMDL
MODEL 3
REMARK VINA RESULT: -5.156690710      4.673      7.714
REMARK  20 active torsions:
REMARK  status: ('A' for Active; 'I' for Inactive)
REMARK    1  A    between atoms: N1_1  and  C1_5 
REMARK    2  A    between atoms: C1_5  and  C2_6 
REMARK    3  A    between atoms: C2_6  and  N2_7 
REMARK    4  A    between atoms: N2_7  and  C3_9 
REMARK    5  A    between atoms: C3_9  and  C4_10 
REMARK    6  A    between atoms: C6_12  and  N3_13 
REMARK    7  A    between atoms: C7_17  and  O1_18 
REMARK    8  A    between atoms: O1_18  and  C8_19 
REMARK    9  A    between atoms: C9_20  and  N4_21 
REMARK   10  A    between atoms: C11_26  and  N5_27 
REMARK   11  A    between atoms: C12_31  and  O2_32 
REMARK   12  A    between atoms: O2_32  and  C13_33 
REMARK   13  A    between atoms: C14_34  and  O3_35 
REMARK   14  A    between atoms: C15_37  and  N6_38 
REMARK   15  A    between atoms: C17_43  and  N7_44 
REMARK   16  A    between atoms: C18_48  and  O4_49 
REMARK   17  A    between atoms: O4_49  and  C19_50 
REMARK   18  A    between atoms: C19_50  and  C20_51 
REMARK   19  A    between atoms: C20_51  and  N8_52 
REMARK   20  A    between atoms: C21_56  and  O5_57 
ROOT
HETATM    1  C8  UNL     1      -6.488  -0.374  69.236  1.00  0.00     0.186 C 
HETATM    2  C9  UNL     1      -7.263  -0.222  70.493  1.00  0.00     0.217 C 
HETATM    3  C10 UNL     1      -6.501  -0.246  71.765  1.00  0.00     0.071 C 
HETATM    4  C11 UNL     1      -5.070  -0.634  71.621  1.00  0.00     0.217 C 
HETATM    5  C12 UNL     1      -4.852  -1.735  70.615  1.00  0.00     0.183 C 
HETATM    6  C21 UNL     1      -5.345  -1.327  69.250  1.00  0.00     0.180 C 
ENDROOT
BRANCH   5   7
HETATM    7  O2  UNL     1      -5.321  -2.965  70.922  1.00  0.00    -0.370 OA
BRANCH   7   8
HETATM    8  C13 UNL     1      -4.946  -3.567  72.076  1.00  0.00     0.183 C 
HETATM    9  C14 UNL     1      -5.837  -4.767  72.299  1.00  0.00     0.180 C 
HETATM   10  C15 UNL     1      -5.627  -5.338  73.710  1.00  0.00     0.216 C 
HETATM   11  C16 UNL     1      -4.207  -5.862  73.729  1.00  0.00     0.071 C 
HETATM   12  C17 UNL     1      -3.307  -4.665  73.515  1.00  0.00     0.217 C 
HETATM   13  C18 UNL     1      -3.527  -4.102  72.114  1.00  0.00     0.183 C 
BRANCH   9  14
HETATM   14  O3  UNL     1      -7.156  -4.393  72.157  1.00  0.00    -0.391 OA
ATOM     15  H3  UNL     1      -7.373  -4.342  71.234  1.00  0.00     0.210 HD
ENDBRANCH   9  14
BRANCH  10  16
HETATM   16  N6  UNL     1      -6.593  -6.406  73.890  1.00  0.00    -0.072 N 
ATOM     17  H63 UNL     1      -6.219  -7.199  74.411  1.00  0.00     0.274 HD
ATOM     18  H62 UNL     1      -7.340  -6.163  74.539  1.00  0.00     0.274 HD
ATOM     19  H61 UNL     1      -6.936  -6.662  72.964  1.00  0.00     0.274 HD
ENDBRANCH  10  16
BRANCH  12  20
HETATM   20  N7  UNL     1      -3.643  -3.679  74.526  1.00  0.00    -0.072 N 
ATOM     21  H73 UNL     1      -4.598  -3.331  74.441  1.00  0.00     0.274 HD
ATOM     22  H72 UNL     1      -3.731  -4.080  75.459  1.00  0.00     0.274 HD
ATOM     23  H71 UNL     1      -2.944  -2.937  74.475  1.00  0.00     0.274 HD
ENDBRANCH  12  20
BRANCH  13  24
HETATM   24  O4  UNL     1      -3.302  -5.154  71.247  1.00  0.00    -0.379 OA
BRANCH  24  25
HETATM   25  C19 UNL     1      -1.998  -5.183  70.790  1.00  0.00     0.195 C 
BRANCH  25  26
HETATM   26  C20 UNL     1      -1.525  -6.639  70.766  1.00  0.00     0.255 C 
BRANCH  26  27
HETATM   27  N8  UNL     1      -1.197  -6.949  69.407  1.00  0.00    -0.077 N 
ATOM     28  H83 UNL     1      -0.510  -6.311  69.005  1.00  0.00     0.274 HD
ATOM     29  H82 UNL     1      -0.650  -7.805  69.312  1.00  0.00     0.274 HD
ATOM     30  H81 UNL     1      -2.073  -6.974  68.887  1.00  0.00     0.274 HD
ENDBRANCH  26  27
ENDBRANCH  25  26
ENDBRANCH  24  25
ENDBRANCH  13  24
ENDBRANCH   7   8
ENDBRANCH   5   7
BRANCH   4  31
HETATM   31  N5  UNL     1      -4.350   0.535  71.066  1.00  0.00    -0.072 N 
ATOM     32  H53 UNL     1      -3.517   0.277  70.537  1.00  0.00     0.274 HD
ATOM     33  H52 UNL     1      -4.854   0.990  70.305  1.00  0.00     0.274 HD
ATOM     34  H51 UNL     1      -4.149   1.165  71.843  1.00  0.00     0.274 HD
ENDBRANCH   4  31
BRANCH   6  35
HETATM   35  O5  UNL     1      -5.622  -2.455  68.479  1.00  0.00    -0.390 OA
ATOM     36  H5  UNL     1      -6.069  -3.118  68.991  1.00  0.00     0.210 HD
ENDBRANCH   6  35
BRANCH   1  37
HETATM   37  O1  UNL     1      -6.135   0.870  68.670  1.00  0.00    -0.349 OA
BRANCH  37  38
HETATM   38  C7  UNL     1      -7.040   1.299  67.731  1.00  0.00     0.291 C 
HETATM   39  C6  UNL     1      -6.724   2.721  67.344  1.00  0.00     0.241 C 
HETATM   40  C5  UNL     1      -7.415   2.747  65.977  1.00  0.00     0.075 C 
HETATM   41  C4  UNL     1      -7.205   1.355  65.475  1.00  0.00     0.164 C 
HETATM   42  O6  UNL     1      -6.874   0.558  66.572  1.00  0.00    -0.349 OA
BRANCH  39  43
HETATM   43  N3  UNL     1      -5.294   2.815  67.169  1.00  0.00    -0.070 N 
ATOM     44  H33 UNL     1      -5.027   2.831  66.184  1.00  0.00     0.274 HD
ATOM     45  H32 UNL     1      -4.933   3.732  67.434  1.00  0.00     0.274 HD
ATOM     46  H31 UNL     1      -4.835   2.059  67.678  1.00  0.00     0.274 HD
ENDBRANCH  39  43
BRANCH  41  47
HETATM   47  C3  UNL     1      -8.424   0.791  64.772  1.00  0.00     0.087 C 
BRANCH  47  48
HETATM   48  N2  UNL     1      -9.630   1.477  64.879  1.00  0.00    -0.398 N 
ATOM     49  H2  UNL     1     -10.147   1.435  65.758  1.00  0.00     0.158 HD
BRANCH  48  50
HETATM   50  C2  UNL     1     -10.160   2.229  63.812  1.00  0.00     0.146 C 
BRANCH  50  51
HETATM   51  C1  UNL     1     -10.993   3.368  64.420  1.00  0.00     0.249 C 
BRANCH  51  52
HETATM   52  N1  UNL     1     -10.199   4.546  64.591  1.00  0.00    -0.078 N 
ATOM     53  H13 UNL     1      -9.376   4.364  65.167  1.00  0.00     0.274 HD
ATOM     54  H12 UNL     1      -9.726   4.811  63.726  1.00  0.00     0.274 HD
ATOM     55  H11 UNL     1     -10.759   5.311  64.965  1.00  0.00     0.274 HD
ENDBRANCH  51  52
ENDBRANCH  50  51
ENDBRANCH  48  50
ENDBRANCH  47  48
ENDBRANCH  41  47
ENDBRANCH  37  38
ENDBRANCH   1  37
BRANCH   2  56
HETATM   56  N4  UNL     1      -8.421  -1.138  70.528  1.00  0.00    -0.072 N 
ATOM     57  H43 UNL     1      -8.932  -1.127  69.645  1.00  0.00     0.274 HD
ATOM     58  H42 UNL     1      -8.126  -2.114  70.527  1.00  0.00     0.274 HD
ATOM     59  H41 UNL     1      -9.034  -0.934  71.317  1.00  0.00     0.274 HD
ENDBRANCH   2  56
TORSDOF 20
ENDMDL
MODEL 4
REMARK VINA RESULT: -5.139309951      1.329      1.467
REMARK  20 active torsions:
REMARK  status: ('A' for Active; 'I' for Inactive)
REMARK    1  A    between atoms: N1_1  and  C1_5 
REMARK    2  A    between atoms: C1_5  and  C2_6 
REMARK    3  A    between atoms: C2_6  and  N2_7 
REMARK    4  A    between atoms: N2_7  and  C3_9 
REMARK    5  A    between atoms: C3_9  and  C4_10 
REMARK    6  A    between atoms: C6_12  and  N3_13 
REMARK    7  A    between atoms: C7_17  and  O1_18 
REMARK    8  A    between atoms: O1_18  and  C8_19 
REMARK    9  A    between atoms: C9_20  and  N4_21 
REMARK   10  A    between atoms: C11_26  and  N5_27 
REMARK   11  A    between atoms: C12_31  and  O2_32 
REMARK   12  A    between atoms: O2_32  and  C13_33 
REMARK   13  A    between atoms: C14_34  and  O3_35 
REMARK   14  A    between atoms: C15_37  and  N6_38 
REMARK   15  A    between atoms: C17_43  and  N7_44 
REMARK   16  A    between atoms: C18_48  and  O4_49 
REMARK   17  A    between atoms: O4_49  and  C19_50 
REMARK   18  A    between atoms: C19_50  and  C20_51 
REMARK   19  A    between atoms: C20_51  and  N8_52 
REMARK   20  A    between atoms: C21_56  and  O5_57 
ROOT
HETATM    1  C8  UNL     1      -8.800   3.386  65.315  1.00  0.00     0.186 C 
HETATM    2  C9  UNL     1      -7.485   3.131  64.675  1.00  0.00     0.217 C 
HETATM    3  C10 UNL     1      -6.969   1.741  64.717  1.00  0.00     0.071 C 
HETATM    4  C11 UNL     1      -7.749   0.819  65.589  1.00  0.00     0.217 C 
HETATM    5  C12 UNL     1      -8.220   1.465  66.866  1.00  0.00     0.183 C 
HETATM    6  C21 UNL     1      -9.096   2.658  66.579  1.00  0.00     0.180 C 
ENDROOT
BRANCH   5   7
HETATM    7  O2  UNL     1      -7.282   1.797  67.782  1.00  0.00    -0.370 OA
BRANCH   7   8
HETATM    8  C13 UNL     1      -6.613   0.828  68.452  1.00  0.00     0.183 C 
HETATM    9  C14 UNL     1      -5.692   1.487  69.451  1.00  0.00     0.180 C 
HETATM   10  C15 UNL     1      -4.730   0.455  70.059  1.00  0.00     0.216 C 
HETATM   11  C16 UNL     1      -5.601  -0.493  70.856  1.00  0.00     0.071 C 
HETATM   12  C17 UNL     1      -6.521  -1.165  69.860  1.00  0.00     0.217 C 
HETATM   13  C18 UNL     1      -7.469  -0.131  69.259  1.00  0.00     0.183 C 
BRANCH   9  14
HETATM   14  O3  UNL     1      -4.959   2.470  68.822  1.00  0.00    -0.391 OA
ATOM     15  H3  UNL     1      -4.912   2.283  67.892  1.00  0.00     0.210 HD
ENDBRANCH   9  14
BRANCH  10  16
HETATM   16  N6  UNL     1      -3.808   1.179  70.914  1.00  0.00    -0.072 N 
ATOM     17  H63 UNL     1      -4.279   1.736  71.627  1.00  0.00     0.274 HD
ATOM     18  H62 UNL     1      -3.288   0.570  71.546  1.00  0.00     0.274 HD
ATOM     19  H61 UNL     1      -3.204   1.733  70.307  1.00  0.00     0.274 HD
ENDBRANCH  10  16
BRANCH  12  20
HETATM   20  N7  UNL     1      -5.690  -1.764  68.831  1.00  0.00    -0.072 N 
ATOM     21  H73 UNL     1      -5.867  -1.378  67.903  1.00  0.00     0.274 HD
ATOM     22  H72 UNL     1      -4.710  -1.493  68.904  1.00  0.00     0.274 HD
ATOM     23  H71 UNL     1      -5.828  -2.774  68.874  1.00  0.00     0.274 HD
ENDBRANCH  12  20
BRANCH  13  24
HETATM   24  O4  UNL     1      -8.111   0.458  70.331  1.00  0.00    -0.379 OA
BRANCH  24  25
HETATM   25  C19 UNL     1      -9.484   0.470  70.173  1.00  0.00     0.195 C 
BRANCH  25  26
HETATM   26  C20 UNL     1     -10.016   1.821  70.658  1.00  0.00     0.255 C 
BRANCH  26  27
HETATM   27  N8  UNL     1      -8.988   2.787  70.414  1.00  0.00    -0.077 N 
ATOM     28  H83 UNL     1      -8.971   3.538  71.106  1.00  0.00     0.274 HD
ATOM     29  H82 UNL     1      -8.050   2.428  70.590  1.00  0.00     0.274 HD
ATOM     30  H81 UNL     1      -9.116   3.124  69.460  1.00  0.00     0.274 HD
ENDBRANCH  26  27
ENDBRANCH  25  26
ENDBRANCH  24  25
ENDBRANCH  13  24
ENDBRANCH   7   8
ENDBRANCH   5   7
BRANCH   4  31
HETATM   31  N5  UNL     1      -8.991   0.469  64.861  1.00  0.00    -0.072 N 
ATOM     32  H53 UNL     1      -9.815   0.456  65.462  1.00  0.00     0.274 HD
ATOM     33  H52 UNL     1      -9.302   1.204  64.226  1.00  0.00     0.274 HD
ATOM     34  H51 UNL     1      -8.827  -0.422  64.391  1.00  0.00     0.274 HD
ENDBRANCH   4  31
BRANCH   6  35
HETATM   35  O5  UNL     1      -9.101   3.528  67.669  1.00  0.00    -0.390 OA
ATOM     36  H5  UNL     1      -9.988   3.741  67.933  1.00  0.00     0.210 HD
ENDBRANCH   6  35
BRANCH   1  37
HETATM   37  O1  UNL     1      -9.869   3.307  64.395  1.00  0.00    -0.349 OA
BRANCH  37  38
HETATM   38  C7  UNL     1     -10.686   4.408  64.440  1.00  0.00     0.291 C 
HETATM   39  C6  UNL     1     -12.114   3.982  64.215  1.00  0.00     0.241 C 
HETATM   40  C5  UNL     1     -12.818   5.175  64.867  1.00  0.00     0.075 C 
HETATM   41  C4  UNL     1     -11.896   5.528  65.989  1.00  0.00     0.164 C 
HETATM   42  O6  UNL     1     -10.659   4.940  65.719  1.00  0.00    -0.349 OA
BRANCH  39  43
HETATM   43  N3  UNL     1     -12.341   2.793  65.003  1.00  0.00    -0.070 N 
ATOM     44  H33 UNL     1     -11.608   2.096  64.868  1.00  0.00     0.274 HD
ATOM     45  H32 UNL     1     -12.202   2.960  66.000  1.00  0.00     0.274 HD
ATOM     46  H31 UNL     1     -13.268   2.419  64.802  1.00  0.00     0.274 HD
ENDBRANCH  39  43
BRANCH  41  47
HETATM   47  C3  UNL     1     -11.731   7.023  66.170  1.00  0.00     0.087 C 
BRANCH  47  48
HETATM   48  N2  UNL     1     -10.537   7.501  66.702  1.00  0.00    -0.398 N 
ATOM     49  H2  UNL     1      -9.816   7.846  66.068  1.00  0.00     0.158 HD
BRANCH  48  50
HETATM   50  C2  UNL     1     -10.292   7.524  68.090  1.00  0.00     0.146 C 
BRANCH  50  51
HETATM   51  C1  UNL     1      -8.880   6.962  68.318  1.00  0.00     0.249 C 
BRANCH  51  52
HETATM   52  N1  UNL     1      -8.325   6.467  67.096  1.00  0.00    -0.078 N 
ATOM     53  H13 UNL     1      -7.442   5.981  67.253  1.00  0.00     0.274 HD
ATOM     54  H12 UNL     1      -8.868   5.686  66.725  1.00  0.00     0.274 HD
ATOM     55  H11 UNL     1      -8.226   7.217  66.412  1.00  0.00     0.274 HD
ENDBRANCH  51  52
ENDBRANCH  50  51
ENDBRANCH  48  50
ENDBRANCH  47  48
ENDBRANCH  41  47
ENDBRANCH  37  38
ENDBRANCH   1  37
BRANCH   2  56
HETATM   56  N4  UNL     1      -6.471   4.108  65.117  1.00  0.00    -0.072 N 
ATOM     57  H43 UNL     1      -6.884   5.025  65.285  1.00  0.00     0.274 HD
ATOM     58  H42 UNL     1      -6.145   3.907  66.062  1.00  0.00     0.274 HD
ATOM     59  H41 UNL     1      -5.694   4.164  64.459  1.00  0.00     0.274 HD
ENDBRANCH   2  56
TORSDOF 20
ENDMDL
MODEL 5
REMARK VINA RESULT: -5.123005582      4.225      9.808
REMARK  20 active torsions:
REMARK  status: ('A' for Active; 'I' for Inactive)
REMARK    1  A    between atoms: N1_1  and  C1_5 
REMARK    2  A    between atoms: C1_5  and  C2_6 
REMARK    3  A    between atoms: C2_6  and  N2_7 
REMARK    4  A    between atoms: N2_7  and  C3_9 
REMARK    5  A    between atoms: C3_9  and  C4_10 
REMARK    6  A    between atoms: C6_12  and  N3_13 
REMARK    7  A    between atoms: C7_17  and  O1_18 
REMARK    8  A    between atoms: O1_18  and  C8_19 
REMARK    9  A    between atoms: C9_20  and  N4_21 
REMARK   10  A    between atoms: C11_26  and  N5_27 
REMARK   11  A    between atoms: C12_31  and  O2_32 
REMARK   12  A    between atoms: O2_32  and  C13_33 
REMARK   13  A    between atoms: C14_34  and  O3_35 
REMARK   14  A    between atoms: C15_37  and  N6_38 
REMARK   15  A    between atoms: C17_43  and  N7_44 
REMARK   16  A    between atoms: C18_48  and  O4_49 
REMARK   17  A    between atoms: O4_49  and  C19_50 
REMARK   18  A    between atoms: C19_50  and  C20_51 
REMARK   19  A    between atoms: C20_51  and  N8_52 
REMARK   20  A    between atoms: C21_56  and  O5_57 
ROOT
HETATM    1  C8  UNL     1      -5.546  -0.901  70.457  1.00  0.00     0.186 C 
HETATM    2  C9  UNL     1      -4.972   0.114  71.376  1.00  0.00     0.217 C 
HETATM    3  C10 UNL     1      -5.887   1.169  71.877  1.00  0.00     0.071 C 
HETATM    4  C11 UNL     1      -7.222   1.192  71.219  1.00  0.00     0.217 C 
HETATM    5  C12 UNL     1      -7.159   0.919  69.738  1.00  0.00     0.183 C 
HETATM    6  C21 UNL     1      -6.547  -0.431  69.461  1.00  0.00     0.180 C 
ENDROOT
BRANCH   5   7
HETATM    7  O2  UNL     1      -6.578   1.855  68.954  1.00  0.00    -0.370 OA
BRANCH   7   8
HETATM    8  C13 UNL     1      -7.336   2.621  68.133  1.00  0.00     0.183 C 
HETATM    9  C14 UNL     1      -6.575   2.839  66.847  1.00  0.00     0.180 C 
HETATM   10  C15 UNL     1      -7.271   3.903  65.983  1.00  0.00     0.216 C 
HETATM   11  C16 UNL     1      -8.601   3.297  65.586  1.00  0.00     0.071 C 
HETATM   12  C17 UNL     1      -9.373   3.083  66.869  1.00  0.00     0.217 C 
HETATM   13  C18 UNL     1      -8.671   2.030  67.721  1.00  0.00     0.183 C 
BRANCH   9  14
HETATM   14  O3  UNL     1      -5.295   3.261  67.135  1.00  0.00    -0.391 OA
ATOM     15  H3  UNL     1      -4.708   2.514  67.133  1.00  0.00     0.210 HD
ENDBRANCH   9  14
BRANCH  10  16
HETATM   16  N6  UNL     1      -6.426   4.139  64.829  1.00  0.00    -0.072 N 
ATOM     17  H63 UNL     1      -5.446   3.908  64.996  1.00  0.00     0.274 HD
ATOM     18  H62 UNL     1      -6.589   3.476  64.072  1.00  0.00     0.274 HD
ATOM     19  H61 UNL     1      -6.565   5.110  64.546  1.00  0.00     0.274 HD
ENDBRANCH  10  16
BRANCH  12  20
HETATM   20  N7  UNL     1      -9.427   4.357  67.564  1.00  0.00    -0.072 N 
ATOM     21  H73 UNL     1     -10.207   4.942  67.264  1.00  0.00     0.274 HD
ATOM     22  H72 UNL     1      -9.700   4.265  68.542  1.00  0.00     0.274 HD
ATOM     23  H71 UNL     1      -8.521   4.811  67.445  1.00  0.00     0.274 HD
ENDBRANCH  12  20
BRANCH  13  24
HETATM   24  O4  UNL     1      -8.564   0.909  66.920  1.00  0.00    -0.379 OA
BRANCH  24  25
HETATM   25  C19 UNL     1      -9.744   0.191  66.869  1.00  0.00     0.195 C 
BRANCH  25  26
HETATM   26  C20 UNL     1     -10.072  -0.301  68.281  1.00  0.00     0.255 C 
BRANCH  26  27
HETATM   27  N8  UNL     1      -9.684  -1.678  68.345  1.00  0.00    -0.077 N 
ATOM     28  H83 UNL     1      -9.134  -1.977  67.539  1.00  0.00     0.274 HD
ATOM     29  H82 UNL     1      -8.980  -1.864  69.059  1.00  0.00     0.274 HD
ATOM     30  H81 UNL     1     -10.537  -2.223  68.472  1.00  0.00     0.274 HD
ENDBRANCH  26  27
ENDBRANCH  25  26
ENDBRANCH  24  25
ENDBRANCH  13  24
ENDBRANCH   7   8
ENDBRANCH   5   7
BRANCH   4  31
HETATM   31  N5  UNL     1      -8.009   0.069  71.778  1.00  0.00    -0.072 N 
ATOM     32  H53 UNL     1      -7.694  -0.217  72.705  1.00  0.00     0.274 HD
ATOM     33  H52 UNL     1      -8.958   0.337  72.039  1.00  0.00     0.274 HD
ATOM     34  H51 UNL     1      -7.983  -0.691  71.097  1.00  0.00     0.274 HD
ENDBRANCH   4  31
BRANCH   6  35
HETATM   35  O5  UNL     1      -6.025  -0.468  68.169  1.00  0.00    -0.390 OA
ATOM     36  H5  UNL     1      -6.596  -0.022  67.556  1.00  0.00     0.210 HD
ENDBRANCH   6  35
BRANCH   1  37
HETATM   37  O1  UNL     1      -5.981  -2.058  71.140  1.00  0.00    -0.349 OA
BRANCH  37  38
HETATM   38  C7  UNL     1      -4.939  -2.812  71.619  1.00  0.00     0.291 C 
HETATM   39  C6  UNL     1      -5.438  -3.721  72.711  1.00  0.00     0.241 C 
HETATM   40  C5  UNL     1      -4.337  -4.784  72.650  1.00  0.00     0.075 C 
HETATM   41  C4  UNL     1      -4.002  -4.827  71.194  1.00  0.00     0.164 C 
HETATM   42  O6  UNL     1      -4.492  -3.655  70.615  1.00  0.00    -0.349 OA
BRANCH  39  43
HETATM   43  N3  UNL     1      -6.689  -4.289  72.264  1.00  0.00    -0.070 N 
ATOM     44  H33 UNL     1      -6.684  -5.308  72.304  1.00  0.00     0.274 HD
ATOM     45  H32 UNL     1      -7.446  -4.120  72.926  1.00  0.00     0.274 HD
ATOM     46  H31 UNL     1      -6.909  -3.942  71.330  1.00  0.00     0.274 HD
ENDBRANCH  39  43
BRANCH  41  47
HETATM   47  C3  UNL     1      -2.515  -4.952  70.934  1.00  0.00     0.087 C 
BRANCH  47  48
HETATM   48  N2  UNL     1      -2.075  -5.921  70.037  1.00  0.00    -0.398 N 
ATOM     49  H2  UNL     1      -2.178  -5.750  69.036  1.00  0.00     0.158 HD
BRANCH  48  50
HETATM   50  C2  UNL     1      -1.493  -7.130  70.467  1.00  0.00     0.146 C 
BRANCH  50  51
HETATM   51  C1  UNL     1      -1.372  -8.046  69.239  1.00  0.00     0.249 C 
BRANCH  51  52
HETATM   52  N1  UNL     1      -0.509  -7.467  68.255  1.00  0.00    -0.078 N 
ATOM     53  H13 UNL     1      -0.544  -6.448  68.276  1.00  0.00     0.274 HD
ATOM     54  H12 UNL     1       0.474  -7.594  68.495  1.00  0.00     0.274 HD
ATOM     55  H11 UNL     1      -0.721  -7.832  67.327  1.00  0.00     0.274 HD
ENDBRANCH  51  52
ENDBRANCH  50  51
ENDBRANCH  48  50
ENDBRANCH  47  48
ENDBRANCH  41  47
ENDBRANCH  37  38
ENDBRANCH   1  37
BRANCH   2  56
HETATM   56  N4  UNL     1      -3.719   0.681  70.839  1.00  0.00    -0.072 N 
ATOM     57  H43 UNL     1      -3.083  -0.050  70.524  1.00  0.00     0.274 HD
ATOM     58  H42 UNL     1      -3.874   1.151  69.947  1.00  0.00     0.274 HD
ATOM     59  H41 UNL     1      -3.271   1.301  71.514  1.00  0.00     0.274 HD
ENDBRANCH   2  56
TORSDOF 20
ENDMDL
