MODEL 1
REMARK VINA RESULT: -6.642116515      0.000      0.000
REMARK  21 active torsions:
REMARK  status: ('A' for Active; 'I' for Inactive)
REMARK    1  A    between atoms: C2_2  and  N2_6 
REMARK    2  A    between atoms: C3_8  and  O1_10 
REMARK    3  A    between atoms: O1_10  and  C4_11 
REMARK    4  A    between atoms: C4_11  and  N4_12 
REMARK    5  A    between atoms: C4_11  and  C16_36 
REMARK    6  A    between atoms: N4_12  and  C5_14 
REMARK    7  A    between atoms: C5_14  and  C7_16 
REMARK       I    between atoms: C7_16  and  N5_18 
REMARK    8  A    between atoms: N5_18  and  C8_19 
REMARK    9  A    between atoms: C8_19  and  C9_20 
REMARK   10  A    between atoms: C8_19  and  C14_30 
REMARK   11  A    between atoms: C9_20  and  N6_21 
REMARK   12  A    between atoms: C14_30  and  O5_31 
REMARK   13  A    between atoms: C14_30  and  C15_33 
REMARK   14  A    between atoms: C15_33  and  O6_34 
REMARK   15  A    between atoms: C16_36  and  N8_37 
REMARK   16  A    between atoms: C16_36  and  C17_41 
REMARK   17  A    between atoms: C17_41  and  O7_42 
REMARK   18  A    between atoms: C17_41  and  C18_44 
REMARK   19  A    between atoms: C18_44  and  C19_46 
REMARK   20  A    between atoms: C19_46  and  O9_47 
REMARK   21  A    between atoms: C19_46  and  O10_49 
ROOT
HETATM    1  C4  UNL     1      -6.395   0.583  69.478  1.00  0.00     0.260 C 
ENDROOT
BRANCH   1   2
HETATM    2  O1  UNL     1      -5.180  -0.157  69.484  1.00  0.00    -0.296 OA
BRANCH   2   3
HETATM    3  C3  UNL     1      -4.879  -1.216  70.266  1.00  0.00     0.234 C 
HETATM    4  N2  UNL     1      -4.040  -1.067  71.238  1.00  0.00    -0.315 N 
ATOM      5  H2  UNL     1      -3.596  -0.171  71.435  1.00  0.00     0.170 HD
HETATM    6  N3  UNL     1      -5.515  -2.465  69.969  1.00  0.00    -0.056 NA
BRANCH   4   7
HETATM    7  C2  UNL     1      -3.772  -2.227  72.017  1.00  0.00     0.073 C 
HETATM    8  C1  UNL     1      -2.482  -2.951  71.927  1.00  0.00     0.088 C 
HETATM    9  N1  UNL     1      -4.654  -2.663  72.829  1.00  0.00    -0.389 N 
ATOM     10  H12 UNL     1      -4.462  -3.494  73.387  1.00  0.00     0.157 HD
ATOM     11  H11 UNL     1      -5.541  -2.165  72.890  1.00  0.00     0.157 HD
ENDBRANCH   4   7
ENDBRANCH   2   3
ENDBRANCH   1   2
BRANCH   1  12
HETATM   12  N4  UNL     1      -7.325  -0.074  68.644  1.00  0.00    -0.381 N 
ATOM     13  H4  UNL     1      -7.023  -0.750  67.942  1.00  0.00     0.156 HD
BRANCH  12  14
HETATM   14  C5  UNL     1      -8.713   0.246  68.825  1.00  0.00     0.182 C 
HETATM   15  C6  UNL     1      -9.465  -0.892  69.491  1.00  0.00     0.043 C 
BRANCH  14  16
HETATM   16  C7  UNL     1      -9.309   0.385  67.439  1.00  0.00     0.313 C 
HETATM   17  O2  UNL     1      -9.970  -0.665  67.050  1.00  0.00    -0.255 OA
HETATM   18  N5  UNL     1      -9.213   1.415  66.641  1.00  0.00    -0.373 NA
BRANCH  18  19
HETATM   19  C8  UNL     1      -9.166   2.391  65.933  1.00  0.00     0.115 C 
BRANCH  19  20
HETATM   20  C9  UNL     1      -9.619   3.755  66.281  1.00  0.00     0.204 C 
BRANCH  20  21
HETATM   21  N6  UNL     1      -8.882   4.398  67.318  1.00  0.00    -0.303 N 
HETATM   22  C10 UNL     1      -9.324   4.344  68.580  1.00  0.00     0.101 A 
HETATM   23  C11 UNL     1      -8.613   4.977  69.611  1.00  0.00     0.092 A 
HETATM   24  C12 UNL     1      -7.467   5.650  69.324  1.00  0.00     0.250 A 
HETATM   25  O3  UNL     1      -6.838   6.213  70.253  1.00  0.00    -0.268 OA
HETATM   26  N7  UNL     1      -7.045   5.687  68.039  1.00  0.00    -0.275 N 
HETATM   27  C13 UNL     1      -7.757   5.061  67.057  1.00  0.00     0.329 A 
ATOM     28  H7  UNL     1      -6.188   6.186  67.802  1.00  0.00     0.173 HD
HETATM   29  O4  UNL     1      -7.298   5.144  65.902  1.00  0.00    -0.246 OA
ENDBRANCH  20  21
ENDBRANCH  19  20
BRANCH  19  30
HETATM   30  C14 UNL     1      -8.588   2.207  64.551  1.00  0.00     0.203 C 
BRANCH  30  31
HETATM   31  O5  UNL     1      -7.211   2.392  64.518  1.00  0.00    -0.386 OA
ATOM     32  H5  UNL     1      -6.959   3.293  64.683  1.00  0.00     0.210 HD
ENDBRANCH  30  31
BRANCH  30  33
HETATM   33  C15 UNL     1      -9.230   3.159  63.593  1.00  0.00     0.203 C 
BRANCH  33  34
HETATM   34  O6  UNL     1      -8.433   4.188  63.144  1.00  0.00    -0.398 OA
ATOM     35  H6  UNL     1      -7.705   3.936  62.589  1.00  0.00     0.209 HD
ENDBRANCH  33  34
ENDBRANCH  30  33
ENDBRANCH  19  30
ENDBRANCH  18  19
ENDBRANCH  14  16
ENDBRANCH  12  14
ENDBRANCH   1  12
BRANCH   1  36
HETATM   36  C16 UNL     1      -5.982   1.953  68.946  1.00  0.00     0.268 C 
BRANCH  36  37
HETATM   37  N8  UNL     1      -5.982   1.915  67.476  1.00  0.00    -0.068 N 
ATOM     38  H83 UNL     1      -5.937   0.963  67.112  1.00  0.00     0.275 HD
ATOM     39  H82 UNL     1      -6.884   2.177  67.080  1.00  0.00     0.275 HD
ATOM     40  H81 UNL     1      -5.221   2.499  67.130  1.00  0.00     0.275 HD
ENDBRANCH  36  37
BRANCH  36  41
HETATM   41  C17 UNL     1      -4.503   2.089  69.315  1.00  0.00     0.227 C 
BRANCH  41  42
HETATM   42  O7  UNL     1      -4.310   2.106  70.691  1.00  0.00    -0.386 OA
ATOM     43  H7  UNL     1      -3.668   2.756  70.950  1.00  0.00     0.210 HD
ENDBRANCH  41  42
BRANCH  41  44
HETATM   44  C18 UNL     1      -3.871   3.263  68.653  1.00  0.00     0.211 C 
HETATM   45  O8  UNL     1      -4.493   4.178  68.180  1.00  0.00    -0.290 OA
BRANCH  44  46
HETATM   46  C19 UNL     1      -2.376   3.320  68.561  1.00  0.00     0.328 C 
BRANCH  46  47
HETATM   47  O9  UNL     1      -1.921   3.193  67.266  1.00  0.00    -0.365 OA
ATOM     48  H9  UNL     1      -1.686   2.298  67.049  1.00  0.00     0.213 HD
ENDBRANCH  46  47
BRANCH  46  49
HETATM   49  O10 UNL     1      -1.860   2.224  69.283  1.00  0.00    -0.365 OA
ATOM     50  H10 UNL     1      -1.582   2.543  70.133  1.00  0.00     0.213 HD
ENDBRANCH  46  49
ENDBRANCH  44  46
ENDBRANCH  41  44
ENDBRANCH  36  41
ENDBRANCH   1  36
TORSDOF 21
ENDMDL
MODEL 2
REMARK VINA RESULT: -6.639206553      2.263      5.614
REMARK  21 active torsions:
REMARK  status: ('A' for Active; 'I' for Inactive)
REMARK    1  A    between atoms: C2_2  and  N2_6 
REMARK    2  A    between atoms: C3_8  and  O1_10 
REMARK    3  A    between atoms: O1_10  and  C4_11 
REMARK    4  A    between atoms: C4_11  and  N4_12 
REMARK    5  A    between atoms: C4_11  and  C16_36 
REMARK    6  A    between atoms: N4_12  and  C5_14 
REMARK    7  A    between atoms: C5_14  and  C7_16 
REMARK       I    between atoms: C7_16  and  N5_18 
REMARK    8  A    between atoms: N5_18  and  C8_19 
REMARK    9  A    between atoms: C8_19  and  C9_20 
REMARK   10  A    between atoms: C8_19  and  C14_30 
REMARK   11  A    between atoms: C9_20  and  N6_21 
REMARK   12  A    between atoms: C14_30  and  O5_31 
REMARK   13  A    between atoms: C14_30  and  C15_33 
REMARK   14  A    between atoms: C15_33  and  O6_34 
REMARK   15  A    between atoms: C16_36  and  N8_37 
REMARK   16  A    between atoms: C16_36  and  C17_41 
REMARK   17  A    between atoms: C17_41  and  O7_42 
REMARK   18  A    between atoms: C17_41  and  C18_44 
REMARK   19  A    between atoms: C18_44  and  C19_46 
REMARK   20  A    between atoms: C19_46  and  O9_47 
REMARK   21  A    between atoms: C19_46  and  O10_49 
ROOT
HETATM    1  C4  UNL     1      -6.510   1.930  66.896  1.00  0.00     0.260 C 
ENDROOT
BRANCH   1   2
HETATM    2  O1  UNL     1      -7.216   0.952  67.651  1.00  0.00    -0.296 OA
BRANCH   2   3
HETATM    3  C3  UNL     1      -6.806   0.354  68.790  1.00  0.00     0.234 C 
HETATM    4  N2  UNL     1      -6.958  -0.922  68.926  1.00  0.00    -0.315 N 
ATOM      5  H2  UNL     1      -7.379  -1.495  68.196  1.00  0.00     0.170 HD
HETATM    6  N3  UNL     1      -6.217   1.182  69.800  1.00  0.00    -0.056 NA
BRANCH   4   7
HETATM    7  C2  UNL     1      -6.503  -1.480  70.152  1.00  0.00     0.073 C 
HETATM    8  C1  UNL     1      -5.142  -2.050  70.298  1.00  0.00     0.088 C 
HETATM    9  N1  UNL     1      -7.273  -1.488  71.169  1.00  0.00    -0.389 N 
ATOM     10  H12 UNL     1      -6.947  -1.888  72.049  1.00  0.00     0.157 HD
ATOM     11  H11 UNL     1      -8.208  -1.095  71.069  1.00  0.00     0.157 HD
ENDBRANCH   4   7
ENDBRANCH   2   3
ENDBRANCH   1   2
BRANCH   1  12
HETATM   12  N4  UNL     1      -6.926   3.214  67.312  1.00  0.00    -0.381 N 
ATOM     13  H4  UNL     1      -7.906   3.414  67.512  1.00  0.00     0.156 HD
BRANCH  12  14
HETATM   14  C5  UNL     1      -5.914   4.224  67.441  1.00  0.00     0.182 C 
HETATM   15  C6  UNL     1      -4.573   3.624  67.825  1.00  0.00     0.043 C 
BRANCH  14  16
HETATM   16  C7  UNL     1      -6.327   5.102  68.605  1.00  0.00     0.313 C 
HETATM   17  O2  UNL     1      -5.323   5.649  69.224  1.00  0.00    -0.255 OA
HETATM   18  N5  UNL     1      -7.544   5.338  69.020  1.00  0.00    -0.373 NA
BRANCH  18  19
HETATM   19  C8  UNL     1      -8.671   5.595  69.363  1.00  0.00     0.115 C 
BRANCH  19  20
HETATM   20  C9  UNL     1      -9.902   4.889  68.944  1.00  0.00     0.204 C 
BRANCH  20  21
HETATM   21  N6  UNL     1      -9.941   3.496  69.244  1.00  0.00    -0.303 N 
HETATM   22  C10 UNL     1      -9.591   3.068  70.463  1.00  0.00     0.101 A 
HETATM   23  C11 UNL     1      -9.618   1.700  70.770  1.00  0.00     0.092 A 
HETATM   24  C12 UNL     1     -10.001   0.803  69.823  1.00  0.00     0.250 A 
HETATM   25  O3  UNL     1     -10.022  -0.419  70.108  1.00  0.00    -0.268 OA
HETATM   26  N7  UNL     1     -10.349   1.267  68.600  1.00  0.00    -0.275 N 
HETATM   27  C13 UNL     1     -10.314   2.604  68.329  1.00  0.00     0.329 A 
ATOM     28  H7  UNL     1     -10.640   0.611  67.875  1.00  0.00     0.173 HD
HETATM   29  O4  UNL     1     -10.650   2.944  67.180  1.00  0.00    -0.246 OA
ENDBRANCH  20  21
ENDBRANCH  19  20
BRANCH  19  30
HETATM   30  C14 UNL     1      -8.851   6.751  70.316  1.00  0.00     0.203 C 
BRANCH  30  31
HETATM   31  O5  UNL     1      -8.577   7.978  69.726  1.00  0.00    -0.386 OA
ATOM     32  H5  UNL     1      -9.335   8.551  69.704  1.00  0.00     0.210 HD
ENDBRANCH  30  31
BRANCH  30  33
HETATM   33  C15 UNL     1      -7.967   6.576  71.509  1.00  0.00     0.203 C 
BRANCH  33  34
HETATM   34  O6  UNL     1      -6.712   7.135  71.413  1.00  0.00    -0.398 OA
ATOM     35  H6  UNL     1      -5.989   6.576  71.670  1.00  0.00     0.209 HD
ENDBRANCH  33  34
ENDBRANCH  30  33
ENDBRANCH  19  30
ENDBRANCH  18  19
ENDBRANCH  14  16
ENDBRANCH  12  14
ENDBRANCH   1  12
BRANCH   1  36
HETATM   36  C16 UNL     1      -6.891   1.619  65.452  1.00  0.00     0.268 C 
BRANCH  36  37
HETATM   37  N8  UNL     1      -6.305   2.641  64.572  1.00  0.00    -0.068 N 
ATOM     38  H83 UNL     1      -6.031   3.481  65.081  1.00  0.00     0.275 HD
ATOM     39  H82 UNL     1      -5.383   2.375  64.228  1.00  0.00     0.275 HD
ATOM     40  H81 UNL     1      -6.959   2.842  63.816  1.00  0.00     0.275 HD
ENDBRANCH  36  37
BRANCH  36  41
HETATM   41  C17 UNL     1      -8.397   1.882  65.376  1.00  0.00     0.227 C 
BRANCH  41  42
HETATM   42  O7  UNL     1      -9.137   0.742  65.664  1.00  0.00    -0.386 OA
ATOM     43  H7  UNL     1      -9.861   0.628  65.060  1.00  0.00     0.210 HD
ENDBRANCH  41  42
BRANCH  41  44
HETATM   44  C18 UNL     1      -8.790   2.483  64.072  1.00  0.00     0.211 C 
HETATM   45  O8  UNL     1      -8.809   1.874  63.035  1.00  0.00    -0.290 OA
BRANCH  44  46
HETATM   46  C19 UNL     1      -9.185   3.928  64.035  1.00  0.00     0.328 C 
BRANCH  46  47
HETATM   47  O9  UNL     1      -8.563   4.620  63.018  1.00  0.00    -0.365 OA
ATOM     48  H9  UNL     1      -8.395   5.527  63.244  1.00  0.00     0.213 HD
ENDBRANCH  46  47
BRANCH  46  49
HETATM   49  O10 UNL     1      -8.764   4.519  65.245  1.00  0.00    -0.365 OA
ATOM     50  H10 UNL     1      -8.869   5.459  65.159  1.00  0.00     0.213 HD
ENDBRANCH  46  49
ENDBRANCH  44  46
ENDBRANCH  41  44
ENDBRANCH  36  41
ENDBRANCH   1  36
TORSDOF 21
ENDMDL
MODEL 3
REMARK VINA RESULT: -6.629786696      2.430      5.202
REMARK  21 active torsions:
REMARK  status: ('A' for Active; 'I' for Inactive)
REMARK    1  A    between atoms: C2_2  and  N2_6 
REMARK    2  A    between atoms: C3_8  and  O1_10 
REMARK    3  A    between atoms: O1_10  and  C4_11 
REMARK    4  A    between atoms: C4_11  and  N4_12 
REMARK    5  A    between atoms: C4_11  and  C16_36 
REMARK    6  A    between atoms: N4_12  and  C5_14 
REMARK    7  A    between atoms: C5_14  and  C7_16 
REMARK       I    between atoms: C7_16  and  N5_18 
REMARK    8  A    between atoms: N5_18  and  C8_19 
REMARK    9  A    between atoms: C8_19  and  C9_20 
REMARK   10  A    between atoms: C8_19  and  C14_30 
REMARK   11  A    between atoms: C9_20  and  N6_21 
REMARK   12  A    between atoms: C14_30  and  O5_31 
REMARK   13  A    between atoms: C14_30  and  C15_33 
REMARK   14  A    between atoms: C15_33  and  O6_34 
REMARK   15  A    between atoms: C16_36  and  N8_37 
REMARK   16  A    between atoms: C16_36  and  C17_41 
REMARK   17  A    between atoms: C17_41  and  O7_42 
REMARK   18  A    between atoms: C17_41  and  C18_44 
REMARK   19  A    between atoms: C18_44  and  C19_46 
REMARK   20  A    between atoms: C19_46  and  O9_47 
REMARK   21  A    between atoms: C19_46  and  O10_49 
ROOT
HETATM    1  C4  UNL     1      -6.588   1.567  66.785  1.00  0.00     0.260 C 
ENDROOT
BRANCH   1   2
HETATM    2  O1  UNL     1      -7.163   0.469  67.483  1.00  0.00    -0.296 OA
BRANCH   2   3
HETATM    3  C3  UNL     1      -6.844   0.038  68.723  1.00  0.00     0.234 C 
HETATM    4  N2  UNL     1      -6.408  -1.167  68.883  1.00  0.00    -0.315 N 
ATOM      5  H2  UNL     1      -6.295  -1.808  68.098  1.00  0.00     0.170 HD
HETATM    6  N3  UNL     1      -7.013   0.958  69.809  1.00  0.00    -0.056 NA
BRANCH   4   7
HETATM    7  C2  UNL     1      -6.095  -1.548  70.217  1.00  0.00     0.073 C 
HETATM    8  C1  UNL     1      -4.698  -1.612  70.707  1.00  0.00     0.088 C 
HETATM    9  N1  UNL     1      -7.034  -1.837  71.031  1.00  0.00    -0.389 N 
ATOM     10  H12 UNL     1      -6.810  -2.110  71.987  1.00  0.00     0.157 HD
ATOM     11  H11 UNL     1      -7.995  -1.793  70.693  1.00  0.00     0.157 HD
ENDBRANCH   4   7
ENDBRANCH   2   3
ENDBRANCH   1   2
BRANCH   1  12
HETATM   12  N4  UNL     1      -6.989   2.766  67.413  1.00  0.00    -0.381 N 
ATOM     13  H4  UNL     1      -7.942   2.891  67.756  1.00  0.00     0.156 HD
BRANCH  12  14
HETATM   14  C5  UNL     1      -6.003   3.800  67.550  1.00  0.00     0.182 C 
HETATM   15  C6  UNL     1      -4.727   3.273  68.183  1.00  0.00     0.043 C 
BRANCH  14  16
HETATM   16  C7  UNL     1      -6.568   4.810  68.528  1.00  0.00     0.313 C 
HETATM   17  O2  UNL     1      -5.667   5.588  69.050  1.00  0.00    -0.255 OA
HETATM   18  N5  UNL     1      -7.819   4.951  68.878  1.00  0.00    -0.373 NA
BRANCH  18  19
HETATM   19  C8  UNL     1      -8.983   5.112  69.153  1.00  0.00     0.115 C 
BRANCH  19  20
HETATM   20  C9  UNL     1      -9.520   5.707  70.396  1.00  0.00     0.204 C 
BRANCH  20  21
HETATM   21  N6  UNL     1      -8.954   6.961  70.768  1.00  0.00    -0.303 N 
HETATM   22  C10 UNL     1      -9.416   8.090  70.215  1.00  0.00     0.101 A 
HETATM   23  C11 UNL     1      -8.864   9.331  70.567  1.00  0.00     0.092 A 
HETATM   24  C12 UNL     1      -7.853   9.387  71.474  1.00  0.00     0.250 A 
HETATM   25  O3  UNL     1      -7.367  10.502  71.782  1.00  0.00    -0.268 OA
HETATM   26  N7  UNL     1      -7.408   8.229  72.016  1.00  0.00    -0.275 N 
HETATM   27  C13 UNL     1      -7.964   7.035  71.655  1.00  0.00     0.329 A 
ATOM     28  H7  UNL     1      -6.651   8.248  72.699  1.00  0.00     0.173 HD
HETATM   29  O4  UNL     1      -7.496   6.020  72.201  1.00  0.00    -0.246 OA
ENDBRANCH  20  21
ENDBRANCH  19  20
BRANCH  19  30
HETATM   30  C14 UNL     1      -9.997   4.663  68.129  1.00  0.00     0.203 C 
BRANCH  30  31
HETATM   31  O5  UNL     1     -11.095   5.511  68.057  1.00  0.00    -0.386 OA
ATOM     32  H5  UNL     1     -11.894   5.103  68.369  1.00  0.00     0.210 HD
ENDBRANCH  30  31
BRANCH  30  33
HETATM   33  C15 UNL     1     -10.470   3.281  68.445  1.00  0.00     0.203 C 
BRANCH  33  34
HETATM   34  O6  UNL     1      -9.484   2.355  68.705  1.00  0.00    -0.398 OA
ATOM     35  H6  UNL     1      -9.785   1.484  68.936  1.00  0.00     0.209 HD
ENDBRANCH  33  34
ENDBRANCH  30  33
ENDBRANCH  19  30
ENDBRANCH  18  19
ENDBRANCH  14  16
ENDBRANCH  12  14
ENDBRANCH   1  12
BRANCH   1  36
HETATM   36  C16 UNL     1      -7.136   1.424  65.368  1.00  0.00     0.268 C 
BRANCH  36  37
HETATM   37  N8  UNL     1      -6.401   2.335  64.477  1.00  0.00    -0.068 N 
ATOM     38  H83 UNL     1      -6.597   3.316  64.677  1.00  0.00     0.275 HD
ATOM     39  H82 UNL     1      -5.401   2.346  64.673  1.00  0.00     0.275 HD
ATOM     40  H81 UNL     1      -6.605   2.087  63.509  1.00  0.00     0.275 HD
ENDBRANCH  36  37
BRANCH  36  41
HETATM   41  C17 UNL     1      -8.545   2.020  65.428  1.00  0.00     0.227 C 
BRANCH  41  42
HETATM   42  O7  UNL     1      -9.478   1.099  65.890  1.00  0.00    -0.386 OA
ATOM     43  H7  UNL     1      -9.952   1.424  66.645  1.00  0.00     0.210 HD
ENDBRANCH  41  42
BRANCH  41  44
HETATM   44  C18 UNL     1      -8.952   2.615  64.127  1.00  0.00     0.211 C 
HETATM   45  O8  UNL     1      -9.174   1.970  63.137  1.00  0.00    -0.290 OA
BRANCH  44  46
HETATM   46  C19 UNL     1      -9.095   4.104  64.029  1.00  0.00     0.328 C 
BRANCH  46  47
HETATM   47  O9  UNL     1      -8.567   4.611  62.861  1.00  0.00    -0.365 OA
ATOM     48  H9  UNL     1      -8.965   5.436  62.609  1.00  0.00     0.213 HD
ENDBRANCH  46  47
BRANCH  46  49
HETATM   49  O10 UNL     1      -8.359   4.676  65.089  1.00  0.00    -0.365 OA
ATOM     50  H10 UNL     1      -8.864   5.404  65.431  1.00  0.00     0.213 HD
ENDBRANCH  46  49
ENDBRANCH  44  46
ENDBRANCH  41  44
ENDBRANCH  36  41
ENDBRANCH   1  36
TORSDOF 21
ENDMDL
MODEL 4
REMARK VINA RESULT: -6.541061732      3.162      5.761
REMARK  21 active torsions:
REMARK  status: ('A' for Active; 'I' for Inactive)
REMARK    1  A    between atoms: C2_2  and  N2_6 
REMARK    2  A    between atoms: C3_8  and  O1_10 
REMARK    3  A    between atoms: O1_10  and  C4_11 
REMARK    4  A    between atoms: C4_11  and  N4_12 
REMARK    5  A    between atoms: C4_11  and  C16_36 
REMARK    6  A    between atoms: N4_12  and  C5_14 
REMARK    7  A    between atoms: C5_14  and  C7_16 
REMARK       I    between atoms: C7_16  and  N5_18 
REMARK    8  A    between atoms: N5_18  and  C8_19 
REMARK    9  A    between atoms: C8_19  and  C9_20 
REMARK   10  A    between atoms: C8_19  and  C14_30 
REMARK   11  A    between atoms: C9_20  and  N6_21 
REMARK   12  A    between atoms: C14_30  and  O5_31 
REMARK   13  A    between atoms: C14_30  and  C15_33 
REMARK   14  A    between atoms: C15_33  and  O6_34 
REMARK   15  A    between atoms: C16_36  and  N8_37 
REMARK   16  A    between atoms: C16_36  and  C17_41 
REMARK   17  A    between atoms: C17_41  and  O7_42 
REMARK   18  A    between atoms: C17_41  and  C18_44 
REMARK   19  A    between atoms: C18_44  and  C19_46 
REMARK   20  A    between atoms: C19_46  and  O9_47 
REMARK   21  A    between atoms: C19_46  and  O10_49 
ROOT
HETATM    1  C4  UNL     1      -7.079   1.220  67.981  1.00  0.00     0.260 C 
ENDROOT
BRANCH   1   2
HETATM    2  O1  UNL     1      -7.659  -0.068  68.155  1.00  0.00    -0.296 OA
BRANCH   2   3
HETATM    3  C3  UNL     1      -8.838  -0.353  68.748  1.00  0.00     0.234 C 
HETATM    4  N2  UNL     1      -9.828  -0.763  68.026  1.00  0.00    -0.315 N 
ATOM      5  H2  UNL     1      -9.746  -0.880  67.016  1.00  0.00     0.170 HD
HETATM    6  N3  UNL     1      -8.927  -0.181  70.168  1.00  0.00    -0.056 NA
BRANCH   4   7
HETATM    7  C2  UNL     1     -11.037  -1.043  68.720  1.00  0.00     0.073 C 
HETATM    8  C1  UNL     1     -11.503  -2.429  68.957  1.00  0.00     0.088 C 
HETATM    9  N1  UNL     1     -11.747  -0.082  69.168  1.00  0.00    -0.389 N 
ATOM     10  H12 UNL     1     -12.614  -0.282  69.666  1.00  0.00     0.157 HD
ATOM     11  H11 UNL     1     -11.427   0.872  69.005  1.00  0.00     0.157 HD
ENDBRANCH   4   7
ENDBRANCH   2   3
ENDBRANCH   1   2
BRANCH   1  12
HETATM   12  N4  UNL     1      -7.964   2.191  68.496  1.00  0.00    -0.381 N 
ATOM     13  H4  UNL     1      -8.962   2.164  68.284  1.00  0.00     0.156 HD
BRANCH  12  14
HETATM   14  C5  UNL     1      -7.403   3.217  69.328  1.00  0.00     0.182 C 
HETATM   15  C6  UNL     1      -8.262   3.472  70.554  1.00  0.00     0.043 C 
BRANCH  14  16
HETATM   16  C7  UNL     1      -7.441   4.498  68.520  1.00  0.00     0.313 C 
HETATM   17  O2  UNL     1      -6.285   4.838  68.032  1.00  0.00    -0.255 OA
HETATM   18  N5  UNL     1      -8.483   5.253  68.290  1.00  0.00    -0.373 NA
BRANCH  18  19
HETATM   19  C8  UNL     1      -9.459   5.915  68.036  1.00  0.00     0.115 C 
BRANCH  19  20
HETATM   20  C9  UNL     1     -10.870   5.491  68.167  1.00  0.00     0.204 C 
BRANCH  20  21
HETATM   21  N6  UNL     1     -11.324   4.565  67.183  1.00  0.00    -0.303 N 
HETATM   22  C10 UNL     1     -11.743   5.012  65.993  1.00  0.00     0.101 A 
HETATM   23  C11 UNL     1     -12.200   4.114  65.017  1.00  0.00     0.092 A 
HETATM   24  C12 UNL     1     -12.215   2.781  65.282  1.00  0.00     0.250 A 
HETATM   25  O3  UNL     1     -12.625   1.985  64.402  1.00  0.00    -0.268 OA
HETATM   26  N7  UNL     1     -11.785   2.360  66.494  1.00  0.00    -0.275 N 
HETATM   27  C13 UNL     1     -11.346   3.256  67.425  1.00  0.00     0.329 A 
ATOM     28  H7  UNL     1     -11.788   1.364  66.714  1.00  0.00     0.173 HD
HETATM   29  O4  UNL     1     -10.968   2.784  68.513  1.00  0.00    -0.246 OA
ENDBRANCH  20  21
ENDBRANCH  19  20
BRANCH  19  30
HETATM   30  C14 UNL     1      -9.223   7.319  67.535  1.00  0.00     0.203 C 
BRANCH  30  31
HETATM   31  O5  UNL     1      -7.967   7.479  66.963  1.00  0.00    -0.386 OA
ATOM     32  H5  UNL     1      -7.342   7.874  67.559  1.00  0.00     0.210 HD
ENDBRANCH  30  31
BRANCH  30  33
HETATM   33  C15 UNL     1      -9.377   8.298  68.655  1.00  0.00     0.203 C 
BRANCH  33  34
HETATM   34  O6  UNL     1      -8.658   8.022  69.796  1.00  0.00    -0.398 OA
ATOM     35  H6  UNL     1      -8.784   7.157  70.166  1.00  0.00     0.209 HD
ENDBRANCH  33  34
ENDBRANCH  30  33
ENDBRANCH  19  30
ENDBRANCH  18  19
ENDBRANCH  14  16
ENDBRANCH  12  14
ENDBRANCH   1  12
BRANCH   1  36
HETATM   36  C16 UNL     1      -6.885   1.329  66.472  1.00  0.00     0.268 C 
BRANCH  36  37
HETATM   37  N8  UNL     1      -5.857   2.344  66.194  1.00  0.00    -0.068 N 
ATOM     38  H83 UNL     1      -6.240   3.289  66.169  1.00  0.00     0.275 HD
ATOM     39  H82 UNL     1      -5.216   2.471  66.976  1.00  0.00     0.275 HD
ATOM     40  H81 UNL     1      -5.373   2.098  65.331  1.00  0.00     0.275 HD
ENDBRANCH  36  37
BRANCH  36  41
HETATM   41  C17 UNL     1      -8.179   1.960  65.953  1.00  0.00     0.227 C 
BRANCH  41  42
HETATM   42  O7  UNL     1      -9.201   1.026  65.837  1.00  0.00    -0.386 OA
ATOM     43  H7  UNL     1     -10.049   1.440  65.729  1.00  0.00     0.210 HD
ENDBRANCH  41  42
BRANCH  41  44
HETATM   44  C18 UNL     1      -7.964   2.705  64.683  1.00  0.00     0.211 C 
HETATM   45  O8  UNL     1      -7.385   2.251  63.731  1.00  0.00    -0.290 OA
BRANCH  44  46
HETATM   46  C19 UNL     1      -8.491   4.104  64.569  1.00  0.00     0.328 C 
BRANCH  46  47
HETATM   47  O9  UNL     1      -8.624   4.514  63.260  1.00  0.00    -0.365 OA
ATOM     48  H9  UNL     1      -9.456   4.254  62.880  1.00  0.00     0.213 HD
ENDBRANCH  46  47
BRANCH  46  49
HETATM   49  O10 UNL     1      -7.551   4.966  65.172  1.00  0.00    -0.365 OA
ATOM     50  H10 UNL     1      -8.019   5.521  65.785  1.00  0.00     0.213 HD
ENDBRANCH  46  49
ENDBRANCH  44  46
ENDBRANCH  41  44
ENDBRANCH  36  41
ENDBRANCH   1  36
TORSDOF 21
ENDMDL
MODEL 5
REMARK VINA RESULT: -6.425376232      2.462      5.165
REMARK  21 active torsions:
REMARK  status: ('A' for Active; 'I' for Inactive)
REMARK    1  A    between atoms: C2_2  and  N2_6 
REMARK    2  A    between atoms: C3_8  and  O1_10 
REMARK    3  A    between atoms: O1_10  and  C4_11 
REMARK    4  A    between atoms: C4_11  and  N4_12 
REMARK    5  A    between atoms: C4_11  and  C16_36 
REMARK    6  A    between atoms: N4_12  and  C5_14 
REMARK    7  A    between atoms: C5_14  and  C7_16 
REMARK       I    between atoms: C7_16  and  N5_18 
REMARK    8  A    between atoms: N5_18  and  C8_19 
REMARK    9  A    between atoms: C8_19  and  C9_20 
REMARK   10  A    between atoms: C8_19  and  C14_30 
REMARK   11  A    between atoms: C9_20  and  N6_21 
REMARK   12  A    between atoms: C14_30  and  O5_31 
REMARK   13  A    between atoms: C14_30  and  C15_33 
REMARK   14  A    between atoms: C15_33  and  O6_34 
REMARK   15  A    between atoms: C16_36  and  N8_37 
REMARK   16  A    between atoms: C16_36  and  C17_41 
REMARK   17  A    between atoms: C17_41  and  O7_42 
REMARK   18  A    between atoms: C17_41  and  C18_44 
REMARK   19  A    between atoms: C18_44  and  C19_46 
REMARK   20  A    between atoms: C19_46  and  O9_47 
REMARK   21  A    between atoms: C19_46  and  O10_49 
ROOT
HETATM    1  C4  UNL     1      -6.746   1.410  67.765  1.00  0.00     0.260 C 
ENDROOT
BRANCH   1   2
HETATM    2  O1  UNL     1      -7.026   0.056  68.100  1.00  0.00    -0.296 OA
BRANCH   2   3
HETATM    3  C3  UNL     1      -6.341  -0.724  68.964  1.00  0.00     0.234 C 
HETATM    4  N2  UNL     1      -6.263  -0.378  70.206  1.00  0.00    -0.315 N 
ATOM      5  H2  UNL     1      -6.706   0.471  70.558  1.00  0.00     0.170 HD
HETATM    6  N3  UNL     1      -5.727  -1.910  68.445  1.00  0.00    -0.056 NA
BRANCH   4   7
HETATM    7  C2  UNL     1      -5.525  -1.248  71.055  1.00  0.00     0.073 C 
HETATM    8  C1  UNL     1      -6.192  -2.201  71.973  1.00  0.00     0.088 C 
HETATM    9  N1  UNL     1      -4.250  -1.227  71.029  1.00  0.00    -0.389 N 
ATOM     10  H12 UNL     1      -3.720  -1.851  71.637  1.00  0.00     0.157 HD
ATOM     11  H11 UNL     1      -3.790  -0.572  70.397  1.00  0.00     0.157 HD
ENDBRANCH   4   7
ENDBRANCH   2   3
ENDBRANCH   1   2
BRANCH   1  12
HETATM   12  N4  UNL     1      -7.735   2.236  68.342  1.00  0.00    -0.381 N 
ATOM     13  H4  UNL     1      -8.728   2.056  68.195  1.00  0.00     0.156 HD
BRANCH  12  14
HETATM   14  C5  UNL     1      -7.285   3.337  69.147  1.00  0.00     0.182 C 
HETATM   15  C6  UNL     1      -8.190   3.558  70.345  1.00  0.00     0.043 C 
BRANCH  14  16
HETATM   16  C7  UNL     1      -7.416   4.579  68.290  1.00  0.00     0.313 C 
HETATM   17  O2  UNL     1      -6.329   4.883  67.645  1.00  0.00    -0.255 OA
HETATM   18  N5  UNL     1      -8.474   5.336  68.157  1.00  0.00    -0.373 NA
BRANCH  18  19
HETATM   19  C8  UNL     1      -9.471   5.997  67.997  1.00  0.00     0.115 C 
BRANCH  19  20
HETATM   20  C9  UNL     1     -10.868   5.537  68.154  1.00  0.00     0.204 C 
BRANCH  20  21
HETATM   21  N6  UNL     1     -11.325   4.622  67.161  1.00  0.00    -0.303 N 
HETATM   22  C10 UNL     1     -11.796   5.083  65.997  1.00  0.00     0.101 A 
HETATM   23  C11 UNL     1     -12.256   4.194  65.013  1.00  0.00     0.092 A 
HETATM   24  C12 UNL     1     -12.222   2.856  65.246  1.00  0.00     0.250 A 
HETATM   25  O3  UNL     1     -12.636   2.068  64.360  1.00  0.00    -0.268 OA
HETATM   26  N7  UNL     1     -11.741   2.419  66.433  1.00  0.00    -0.275 N 
HETATM   27  C13 UNL     1     -11.300   3.307  67.372  1.00  0.00     0.329 A 
ATOM     28  H7  UNL     1     -11.707   1.419  66.629  1.00  0.00     0.173 HD
HETATM   29  O4  UNL     1     -10.872   2.822  68.435  1.00  0.00    -0.246 OA
ENDBRANCH  20  21
ENDBRANCH  19  20
BRANCH  19  30
HETATM   30  C14 UNL     1      -9.278   7.440  67.598  1.00  0.00     0.203 C 
BRANCH  30  31
HETATM   31  O5  UNL     1      -8.054   7.666  66.983  1.00  0.00    -0.386 OA
ATOM     32  H5  UNL     1      -7.435   8.111  67.551  1.00  0.00     0.210 HD
ENDBRANCH  30  31
BRANCH  30  33
HETATM   33  C15 UNL     1      -9.392   8.325  68.798  1.00  0.00     0.203 C 
BRANCH  33  34
HETATM   34  O6  UNL     1      -8.633   7.959  69.887  1.00  0.00    -0.398 OA
ATOM     35  H6  UNL     1      -8.050   7.220  69.757  1.00  0.00     0.209 HD
ENDBRANCH  33  34
ENDBRANCH  30  33
ENDBRANCH  19  30
ENDBRANCH  18  19
ENDBRANCH  14  16
ENDBRANCH  12  14
ENDBRANCH   1  12
BRANCH   1  36
HETATM   36  C16 UNL     1      -6.778   1.420  66.239  1.00  0.00     0.268 C 
BRANCH  36  37
HETATM   37  N8  UNL     1      -5.873   2.470  65.749  1.00  0.00    -0.068 N 
ATOM     38  H83 UNL     1      -6.292   3.399  65.799  1.00  0.00     0.275 HD
ATOM     39  H82 UNL     1      -5.089   2.633  66.379  1.00  0.00     0.275 HD
ATOM     40  H81 UNL     1      -5.569   2.232  64.805  1.00  0.00     0.275 HD
ENDBRANCH  36  37
BRANCH  36  41
HETATM   41  C17 UNL     1      -8.174   1.934  65.877  1.00  0.00     0.227 C 
BRANCH  41  42
HETATM   42  O7  UNL     1      -9.158   0.987  66.134  1.00  0.00    -0.386 OA
ATOM     43  H7  UNL     1      -9.915   1.101  65.573  1.00  0.00     0.210 HD
ENDBRANCH  41  42
BRANCH  41  44
HETATM   44  C18 UNL     1      -8.237   2.431  64.476  1.00  0.00     0.211 C 
HETATM   45  O8  UNL     1      -7.934   1.769  63.518  1.00  0.00    -0.290 OA
BRANCH  44  46
HETATM   46  C19 UNL     1      -8.701   3.835  64.229  1.00  0.00     0.328 C 
BRANCH  46  47
HETATM   47  O9  UNL     1      -8.539   4.222  62.916  1.00  0.00    -0.365 OA
ATOM     48  H9  UNL     1      -8.769   3.533  62.303  1.00  0.00     0.213 HD
ENDBRANCH  46  47
BRANCH  46  49
HETATM   49  O10 UNL     1      -7.898   4.694  65.008  1.00  0.00    -0.365 OA
ATOM     50  H10 UNL     1      -8.341   5.532  65.064  1.00  0.00     0.213 HD
ENDBRANCH  46  49
ENDBRANCH  44  46
ENDBRANCH  41  44
ENDBRANCH  36  41
ENDBRANCH   1  36
TORSDOF 21
ENDMDL
