MODEL 1
REMARK VINA RESULT: -6.861382436      0.000      0.000
REMARK  21 active torsions:
REMARK  status: ('A' for Active; 'I' for Inactive)
REMARK    1  A    between atoms: O1_2  and  C2_3 
REMARK    2  A    between atoms: C5_6  and  C6_7 
REMARK    3  A    between atoms: C6_7  and  C8_9 
REMARK       I    between atoms: C8_9  and  N1_11 
REMARK    4  A    between atoms: N1_11  and  C9_13 
REMARK    5  A    between atoms: C10_16  and  N3_17 
REMARK    6  A    between atoms: C11_22  and  N5_23 
REMARK    7  A    between atoms: N5_23  and  N6_25 
REMARK    8  A    between atoms: C12_32  and  O3_33 
REMARK    9  A    between atoms: O3_33  and  C13_34 
REMARK   10  A    between atoms: C13_34  and  C14_35 
REMARK   11  A    between atoms: C14_35  and  C15_36 
REMARK   12  A    between atoms: C14_35  and  O5_39 
REMARK   13  A    between atoms: C15_36  and  O4_37 
REMARK   14  A    between atoms: O5_39  and  C16_40 
REMARK   15  A    between atoms: C16_40  and  O6_41 
REMARK   16  A    between atoms: C16_40  and  C17_43 
REMARK   17  A    between atoms: C17_43  and  N9_44 
REMARK   18  A    between atoms: C17_43  and  C18_48 
REMARK   19  A    between atoms: C18_48  and  O7_49 
REMARK   20  A    between atoms: C18_48  and  C19_51 
REMARK   21  A    between atoms: C19_51  and  O8_52 
ROOT
HETATM    1  C2  UNL     1      -7.039   5.250  68.417  1.00  0.00     0.119 A 
HETATM    2  C3  UNL     1      -7.540   5.912  67.323  1.00  0.00     0.043 A 
HETATM    3  C4  UNL     1      -7.634   5.257  66.113  1.00  0.00     0.029 A 
HETATM    4  C5  UNL     1      -7.214   3.947  66.057  1.00  0.00     0.024 A 
HETATM    5  N8  UNL     1      -6.730   3.328  67.140  1.00  0.00    -0.337 N 
ATOM      6  H8  UNL     1      -6.429   2.356  67.058  1.00  0.00     0.168 HD
HETATM    7  C12 UNL     1      -6.627   3.941  68.331  1.00  0.00     0.176 A 
ENDROOT
BRANCH   4   8
HETATM    8  C6  UNL     1      -7.278   3.170  64.787  1.00  0.00     0.124 C 
HETATM    9  C7  UNL     1      -8.519   3.542  64.001  1.00  0.00     0.026 C 
BRANCH   8  10
HETATM   10  C8  UNL     1      -7.381   1.734  65.158  1.00  0.00     0.245 C 
HETATM   11  O2  UNL     1      -6.363   1.080  65.464  1.00  0.00    -0.272 OA
HETATM   12  N1  UNL     1      -8.636   1.102  65.166  1.00  0.00    -0.158 N 
ATOM     13  H1  UNL     1      -9.103   0.890  64.283  1.00  0.00     0.187 HD
BRANCH  12  14
HETATM   14  C9  UNL     1      -9.198   0.791  66.273  1.00  0.00     0.714 A 
HETATM   15  N2  UNL     1     -10.433   1.229  66.553  1.00  0.00    -0.021 N 
HETATM   16  C10 UNL     1     -10.981   0.878  67.721  1.00  0.00     0.705 A 
ATOM     17  H2  UNL     1     -10.942   1.815  65.892  1.00  0.00     0.203 HD
HETATM   18  N4  UNL     1     -10.323   0.099  68.618  1.00  0.00    -0.020 N 
HETATM   19  C11 UNL     1      -9.085  -0.345  68.347  1.00  0.00     0.725 A 
ATOM     20  H4  UNL     1     -10.771  -0.151  69.500  1.00  0.00     0.203 HD
HETATM   21  N7  UNL     1      -8.551   0.011  67.180  1.00  0.00    -0.020 N 
ATOM     22  H7  UNL     1      -7.611  -0.316  66.956  1.00  0.00     0.203 HD
BRANCH  16  23
HETATM   23  N3  UNL     1     -12.172   1.275  68.038  1.00  0.00    -0.234 N 
ATOM     24  H32 UNL     1     -12.249   2.080  68.661  1.00  0.00     0.174 HD
ATOM     25  H31 UNL     1     -12.995   0.795  67.674  1.00  0.00     0.174 HD
ENDBRANCH  16  23
BRANCH  19  26
HETATM   26  N5  UNL     1      -8.430  -1.085  69.172  1.00  0.00    -0.138 N 
ATOM     27  H5  UNL     1      -8.887  -1.427  70.018  1.00  0.00     0.205 HD
BRANCH  26  28
HETATM   28  N6  UNL     1      -7.100  -1.422  68.917  1.00  0.00    -0.331 N 
ATOM     29  H62 UNL     1      -6.893  -2.058  68.146  1.00  0.00     0.177 HD
ATOM     30  H61 UNL     1      -6.350  -1.039  69.492  1.00  0.00     0.177 HD
ENDBRANCH  26  28
ENDBRANCH  19  26
ENDBRANCH  12  14
ENDBRANCH   8  10
ENDBRANCH   4   8
BRANCH   7  31
HETATM   31  O3  UNL     1      -6.114   3.224  69.399  1.00  0.00    -0.331 OA
BRANCH  31  32
HETATM   32  C13 UNL     1      -5.877   1.834  69.290  1.00  0.00     0.211 C 
BRANCH  32  33
HETATM   33  C14 UNL     1      -4.436   1.594  69.685  1.00  0.00     0.172 C 
BRANCH  33  34
HETATM   34  C15 UNL     1      -4.444   0.733  70.916  1.00  0.00     0.198 C 
BRANCH  34  35
HETATM   35  O4  UNL     1      -4.455  -0.594  70.498  1.00  0.00    -0.398 OA
ATOM     36  H4  UNL     1      -4.992  -1.082  71.112  1.00  0.00     0.209 HD
ENDBRANCH  34  35
ENDBRANCH  33  34
BRANCH  33  37
HETATM   37  O5  UNL     1      -3.706   2.747  69.792  1.00  0.00    -0.350 OA
BRANCH  37  38
HETATM   38  C16 UNL     1      -2.787   2.961  68.786  1.00  0.00     0.290 C 
BRANCH  38  39
HETATM   39  O6  UNL     1      -3.453   3.784  67.839  1.00  0.00    -0.369 OA
ATOM     40  H6  UNL     1      -2.803   4.416  67.554  1.00  0.00     0.212 HD
ENDBRANCH  38  39
BRANCH  38  41
HETATM   41  C17 UNL     1      -1.637   3.735  69.365  1.00  0.00     0.268 C 
BRANCH  41  42
HETATM   42  N9  UNL     1      -0.830   4.267  68.267  1.00  0.00    -0.068 N 
ATOM     43  H93 UNL     1      -1.125   3.912  67.357  1.00  0.00     0.275 HD
ATOM     44  H92 UNL     1      -1.009   5.257  68.095  1.00  0.00     0.275 HD
ATOM     45  H91 UNL     1       0.152   4.076  68.462  1.00  0.00     0.275 HD
ENDBRANCH  41  42
BRANCH  41  46
HETATM   46  C18 UNL     1      -0.743   2.942  70.252  1.00  0.00     0.177 C 
BRANCH  46  47
HETATM   47  O7  UNL     1      -1.353   2.491  71.408  1.00  0.00    -0.391 OA
ATOM     48  H7  UNL     1      -1.797   3.170  71.901  1.00  0.00     0.210 HD
ENDBRANCH  46  47
BRANCH  46  49
HETATM   49  C19 UNL     1       0.536   3.671  70.606  1.00  0.00     0.198 C 
BRANCH  49  50
HETATM   50  O8  UNL     1       1.573   3.276  69.761  1.00  0.00    -0.398 OA
ATOM     51  H8  UNL     1       2.334   3.830  69.887  1.00  0.00     0.209 HD
ENDBRANCH  49  50
ENDBRANCH  46  49
ENDBRANCH  41  46
ENDBRANCH  38  41
ENDBRANCH  37  38
ENDBRANCH  33  37
ENDBRANCH  32  33
ENDBRANCH  31  32
ENDBRANCH   7  31
BRANCH   1  52
HETATM   52  O1  UNL     1      -6.948   5.917  69.627  1.00  0.00    -0.352 OA
HETATM   53  C1  UNL     1      -8.041   6.119  70.480  1.00  0.00     0.210 C 
ENDBRANCH   1  52
TORSDOF 21
ENDMDL
MODEL 2
REMARK VINA RESULT: -6.650530258      2.477      7.441
REMARK  21 active torsions:
REMARK  status: ('A' for Active; 'I' for Inactive)
REMARK    1  A    between atoms: O1_2  and  C2_3 
REMARK    2  A    between atoms: C5_6  and  C6_7 
REMARK    3  A    between atoms: C6_7  and  C8_9 
REMARK       I    between atoms: C8_9  and  N1_11 
REMARK    4  A    between atoms: N1_11  and  C9_13 
REMARK    5  A    between atoms: C10_16  and  N3_17 
REMARK    6  A    between atoms: C11_22  and  N5_23 
REMARK    7  A    between atoms: N5_23  and  N6_25 
REMARK    8  A    between atoms: C12_32  and  O3_33 
REMARK    9  A    between atoms: O3_33  and  C13_34 
REMARK   10  A    between atoms: C13_34  and  C14_35 
REMARK   11  A    between atoms: C14_35  and  C15_36 
REMARK   12  A    between atoms: C14_35  and  O5_39 
REMARK   13  A    between atoms: C15_36  and  O4_37 
REMARK   14  A    between atoms: O5_39  and  C16_40 
REMARK   15  A    between atoms: C16_40  and  O6_41 
REMARK   16  A    between atoms: C16_40  and  C17_43 
REMARK   17  A    between atoms: C17_43  and  N9_44 
REMARK   18  A    between atoms: C17_43  and  C18_48 
REMARK   19  A    between atoms: C18_48  and  O7_49 
REMARK   20  A    between atoms: C18_48  and  C19_51 
REMARK   21  A    between atoms: C19_51  and  O8_52 
ROOT
HETATM    1  C2  UNL     1      -9.904  -0.185  68.154  1.00  0.00     0.119 A 
HETATM    2  C3  UNL     1      -9.643  -0.300  69.498  1.00  0.00     0.043 A 
HETATM    3  C4  UNL     1      -8.341  -0.230  69.947  1.00  0.00     0.029 A 
HETATM    4  C5  UNL     1      -7.348  -0.043  69.014  1.00  0.00     0.024 A 
HETATM    5  N8  UNL     1      -7.632   0.066  67.710  1.00  0.00    -0.337 N 
ATOM      6  H8  UNL     1      -6.868   0.204  67.049  1.00  0.00     0.168 HD
HETATM    7  C12 UNL     1      -8.890   0.001  67.243  1.00  0.00     0.176 A 
ENDROOT
BRANCH   4   8
HETATM    8  C6  UNL     1      -5.915   0.040  69.417  1.00  0.00     0.124 C 
HETATM    9  C7  UNL     1      -5.682  -0.726  70.703  1.00  0.00     0.026 C 
BRANCH   8  10
HETATM   10  C8  UNL     1      -5.616   1.473  69.673  1.00  0.00     0.245 C 
HETATM   11  O2  UNL     1      -6.027   2.036  70.709  1.00  0.00    -0.272 OA
HETATM   12  N1  UNL     1      -4.860   2.207  68.743  1.00  0.00    -0.158 N 
ATOM     13  H1  UNL     1      -5.275   2.471  67.849  1.00  0.00     0.187 HD
BRANCH  12  14
HETATM   14  C9  UNL     1      -3.655   2.546  69.009  1.00  0.00     0.714 A 
HETATM   15  N2  UNL     1      -3.062   2.116  70.131  1.00  0.00    -0.021 N 
HETATM   16  C10 UNL     1      -1.802   2.494  70.368  1.00  0.00     0.705 A 
ATOM     17  H2  UNL     1      -3.560   1.516  70.788  1.00  0.00     0.203 HD
HETATM   18  N4  UNL     1      -1.118   3.294  69.509  1.00  0.00    -0.020 N 
HETATM   19  C11 UNL     1      -1.703   3.730  68.382  1.00  0.00     0.725 A 
ATOM     20  H4  UNL     1      -0.157   3.563  69.720  1.00  0.00     0.203 HD
HETATM   21  N7  UNL     1      -2.959   3.346  68.157  1.00  0.00    -0.020 N 
ATOM     22  H7  UNL     1      -3.420   3.667  67.307  1.00  0.00     0.203 HD
BRANCH  16  23
HETATM   23  N3  UNL     1      -1.185   2.105  71.438  1.00  0.00    -0.234 N 
ATOM     24  H32 UNL     1      -1.593   1.328  71.958  1.00  0.00     0.174 HD
ATOM     25  H31 UNL     1      -0.326   2.565  71.740  1.00  0.00     0.174 HD
ENDBRANCH  16  23
BRANCH  19  26
HETATM   26  N5  UNL     1      -1.088   4.489  67.544  1.00  0.00    -0.138 N 
ATOM     27  H5  UNL     1      -1.413   4.545  66.578  1.00  0.00     0.205 HD
BRANCH  26  28
HETATM   28  N6  UNL     1       0.021   5.235  67.947  1.00  0.00    -0.331 N 
ATOM     29  H62 UNL     1      -0.025   6.253  67.894  1.00  0.00     0.177 HD
ATOM     30  H61 UNL     1       0.861   4.768  68.289  1.00  0.00     0.177 HD
ENDBRANCH  26  28
ENDBRANCH  19  26
ENDBRANCH  12  14
ENDBRANCH   8  10
ENDBRANCH   4   8
BRANCH   7  31
HETATM   31  O3  UNL     1      -9.094   0.123  65.879  1.00  0.00    -0.331 OA
BRANCH  31  32
HETATM   32  C13 UNL     1      -8.796   1.332  65.209  1.00  0.00     0.211 C 
BRANCH  32  33
HETATM   33  C14 UNL     1     -10.024   2.211  65.306  1.00  0.00     0.172 C 
BRANCH  33  34
HETATM   34  C15 UNL     1     -10.748   2.120  63.994  1.00  0.00     0.198 C 
BRANCH  34  35
HETATM   35  O4  UNL     1     -11.153   3.406  63.649  1.00  0.00    -0.398 OA
ATOM     36  H4  UNL     1     -10.579   3.709  62.955  1.00  0.00     0.209 HD
ENDBRANCH  34  35
ENDBRANCH  33  34
BRANCH  33  37
HETATM   37  O5  UNL     1      -9.745   3.485  65.725  1.00  0.00    -0.350 OA
BRANCH  37  38
HETATM   38  C16 UNL     1      -8.438   3.893  65.552  1.00  0.00     0.290 C 
BRANCH  38  39
HETATM   39  O6  UNL     1      -8.428   4.608  64.325  1.00  0.00    -0.369 OA
ATOM     40  H6  UNL     1      -8.284   5.516  64.565  1.00  0.00     0.212 HD
ENDBRANCH  38  39
BRANCH  38  41
HETATM   41  C17 UNL     1      -8.100   4.845  66.663  1.00  0.00     0.268 C 
BRANCH  41  42
HETATM   42  N9  UNL     1      -7.292   5.935  66.115  1.00  0.00    -0.068 N 
ATOM     43  H93 UNL     1      -7.293   6.761  66.714  1.00  0.00     0.275 HD
ATOM     44  H92 UNL     1      -6.293   5.737  66.151  1.00  0.00     0.275 HD
ATOM     45  H91 UNL     1      -7.617   6.138  65.170  1.00  0.00     0.275 HD
ENDBRANCH  41  42
BRANCH  41  46
HETATM   46  C18 UNL     1      -7.345   4.235  67.791  1.00  0.00     0.177 C 
BRANCH  46  47
HETATM   47  O7  UNL     1      -8.005   3.188  68.408  1.00  0.00    -0.391 OA
ATOM     48  H7  UNL     1      -7.595   2.894  69.214  1.00  0.00     0.210 HD
ENDBRANCH  46  47
BRANCH  46  49
HETATM   49  C19 UNL     1      -6.917   5.249  68.832  1.00  0.00     0.198 C 
BRANCH  49  50
HETATM   50  O8  UNL     1      -5.529   5.378  68.845  1.00  0.00    -0.398 OA
ATOM     51  H8  UNL     1      -5.270   6.214  68.477  1.00  0.00     0.209 HD
ENDBRANCH  49  50
ENDBRANCH  46  49
ENDBRANCH  41  46
ENDBRANCH  38  41
ENDBRANCH  37  38
ENDBRANCH  33  37
ENDBRANCH  32  33
ENDBRANCH  31  32
ENDBRANCH   7  31
BRANCH   1  52
HETATM   52  O1  UNL     1     -11.214  -0.258  67.712  1.00  0.00    -0.352 OA
HETATM   53  C1  UNL     1     -12.262  -0.772  68.486  1.00  0.00     0.210 C 
ENDBRANCH   1  52
TORSDOF 21
ENDMDL
MODEL 3
REMARK VINA RESULT: -6.642105812      2.413      7.588
REMARK  21 active torsions:
REMARK  status: ('A' for Active; 'I' for Inactive)
REMARK    1  A    between atoms: O1_2  and  C2_3 
REMARK    2  A    between atoms: C5_6  and  C6_7 
REMARK    3  A    between atoms: C6_7  and  C8_9 
REMARK       I    between atoms: C8_9  and  N1_11 
REMARK    4  A    between atoms: N1_11  and  C9_13 
REMARK    5  A    between atoms: C10_16  and  N3_17 
REMARK    6  A    between atoms: C11_22  and  N5_23 
REMARK    7  A    between atoms: N5_23  and  N6_25 
REMARK    8  A    between atoms: C12_32  and  O3_33 
REMARK    9  A    between atoms: O3_33  and  C13_34 
REMARK   10  A    between atoms: C13_34  and  C14_35 
REMARK   11  A    between atoms: C14_35  and  C15_36 
REMARK   12  A    between atoms: C14_35  and  O5_39 
REMARK   13  A    between atoms: C15_36  and  O4_37 
REMARK   14  A    between atoms: O5_39  and  C16_40 
REMARK   15  A    between atoms: C16_40  and  O6_41 
REMARK   16  A    between atoms: C16_40  and  C17_43 
REMARK   17  A    between atoms: C17_43  and  N9_44 
REMARK   18  A    between atoms: C17_43  and  C18_48 
REMARK   19  A    between atoms: C18_48  and  O7_49 
REMARK   20  A    between atoms: C18_48  and  C19_51 
REMARK   21  A    between atoms: C19_51  and  O8_52 
ROOT
HETATM    1  C2  UNL     1      -9.276   0.507  68.690  1.00  0.00     0.119 A 
HETATM    2  C3  UNL     1      -8.788  -0.682  69.173  1.00  0.00     0.043 A 
HETATM    3  C4  UNL     1      -7.444  -0.803  69.457  1.00  0.00     0.029 A 
HETATM    4  C5  UNL     1      -6.640   0.293  69.239  1.00  0.00     0.024 A 
HETATM    5  N8  UNL     1      -7.144   1.440  68.767  1.00  0.00    -0.337 N 
ATOM      6  H8  UNL     1      -6.516   2.230  68.618  1.00  0.00     0.168 HD
HETATM    7  C12 UNL     1      -8.449   1.586  68.482  1.00  0.00     0.176 A 
ENDROOT
BRANCH   4   8
HETATM    8  C6  UNL     1      -5.176   0.244  69.515  1.00  0.00     0.124 C 
HETATM    9  C7  UNL     1      -4.871  -0.802  70.568  1.00  0.00     0.026 C 
BRANCH   8  10
HETATM   10  C8  UNL     1      -4.790   1.572  70.060  1.00  0.00     0.245 C 
HETATM   11  O2  UNL     1      -4.986   1.852  71.261  1.00  0.00    -0.272 OA
HETATM   12  N1  UNL     1      -4.194   2.527  69.217  1.00  0.00    -0.158 N 
ATOM     13  H1  UNL     1      -4.757   3.000  68.510  1.00  0.00     0.187 HD
BRANCH  12  14
HETATM   14  C9  UNL     1      -2.950   2.806  69.332  1.00  0.00     0.714 A 
HETATM   15  N2  UNL     1      -2.380   3.707  68.521  1.00  0.00    -0.021 N 
HETATM   16  C10 UNL     1      -1.078   3.968  68.677  1.00  0.00     0.705 A 
ATOM     17  H2  UNL     1      -2.926   4.182  67.801  1.00  0.00     0.203 HD
HETATM   18  N4  UNL     1      -0.331   3.349  69.627  1.00  0.00    -0.020 N 
HETATM   19  C11 UNL     1      -0.892   2.445  70.445  1.00  0.00     0.725 A 
ATOM     20  H4  UNL     1       0.660   3.572  69.720  1.00  0.00     0.203 HD
HETATM   21  N7  UNL     1      -2.190   2.194  70.279  1.00  0.00    -0.020 N 
ATOM     22  H7  UNL     1      -2.634   1.509  70.891  1.00  0.00     0.203 HD
BRANCH  16  23
HETATM   23  N3  UNL     1      -0.482   4.831  67.919  1.00  0.00    -0.234 N 
ATOM     24  H32 UNL     1      -0.682   4.795  66.919  1.00  0.00     0.174 HD
ATOM     25  H31 UNL     1       0.162   5.516  68.315  1.00  0.00     0.174 HD
ENDBRANCH  16  23
BRANCH  19  26
HETATM   26  N5  UNL     1      -0.216   1.837  71.357  1.00  0.00    -0.138 N 
ATOM     27  H5  UNL     1       0.785   2.011  71.445  1.00  0.00     0.205 HD
BRANCH  26  28
HETATM   28  N6  UNL     1      -0.845   0.943  72.226  1.00  0.00    -0.331 N 
ATOM     29  H62 UNL     1      -0.286   0.213  72.669  1.00  0.00     0.177 HD
ATOM     30  H61 UNL     1      -1.844   1.021  72.413  1.00  0.00     0.177 HD
ENDBRANCH  26  28
ENDBRANCH  19  26
ENDBRANCH  12  14
ENDBRANCH   8  10
ENDBRANCH   4   8
BRANCH   7  31
HETATM   31  O3  UNL     1      -8.885   2.808  67.997  1.00  0.00    -0.331 OA
BRANCH  31  32
HETATM   32  C13 UNL     1      -8.054   3.950  68.064  1.00  0.00     0.211 C 
BRANCH  32  33
HETATM   33  C14 UNL     1      -8.500   4.892  66.967  1.00  0.00     0.172 C 
BRANCH  33  34
HETATM   34  C15 UNL     1      -9.203   6.046  67.621  1.00  0.00     0.198 C 
BRANCH  34  35
HETATM   35  O4  UNL     1      -8.231   6.849  68.210  1.00  0.00    -0.398 OA
ATOM     36  H4  UNL     1      -8.662   7.384  68.867  1.00  0.00     0.209 HD
ENDBRANCH  34  35
ENDBRANCH  33  34
BRANCH  33  37
HETATM   37  O5  UNL     1      -9.212   4.269  65.977  1.00  0.00    -0.350 OA
BRANCH  37  38
HETATM   38  C16 UNL     1      -8.638   4.307  64.722  1.00  0.00     0.290 C 
BRANCH  38  39
HETATM   39  O6  UNL     1      -7.395   4.971  64.898  1.00  0.00    -0.369 OA
ATOM     40  H6  UNL     1      -6.948   4.487  65.582  1.00  0.00     0.212 HD
ENDBRANCH  38  39
BRANCH  38  41
HETATM   41  C17 UNL     1      -8.369   2.893  64.293  1.00  0.00     0.268 C 
BRANCH  41  42
HETATM   42  N9  UNL     1      -9.280   2.004  65.013  1.00  0.00    -0.068 N 
ATOM     43  H93 UNL     1      -9.017   1.883  65.991  1.00  0.00     0.275 HD
ATOM     44  H92 UNL     1     -10.196   2.425  65.166  1.00  0.00     0.275 HD
ATOM     45  H91 UNL     1      -9.336   1.118  64.511  1.00  0.00     0.275 HD
ENDBRANCH  41  42
BRANCH  41  46
HETATM   46  C18 UNL     1      -6.978   2.427  64.542  1.00  0.00     0.177 C 
BRANCH  46  47
HETATM   47  O7  UNL     1      -6.039   2.978  63.690  1.00  0.00    -0.391 OA
ATOM     48  H7  UNL     1      -5.993   3.927  63.727  1.00  0.00     0.210 HD
ENDBRANCH  46  47
BRANCH  46  49
HETATM   49  C19 UNL     1      -6.849   0.918  64.529  1.00  0.00     0.198 C 
BRANCH  49  50
HETATM   50  O8  UNL     1      -6.901   0.413  65.828  1.00  0.00    -0.398 OA
ATOM     51  H8  UNL     1      -6.201   0.780  66.355  1.00  0.00     0.209 HD
ENDBRANCH  49  50
ENDBRANCH  46  49
ENDBRANCH  41  46
ENDBRANCH  38  41
ENDBRANCH  37  38
ENDBRANCH  33  37
ENDBRANCH  32  33
ENDBRANCH  31  32
ENDBRANCH   7  31
BRANCH   1  52
HETATM   52  O1  UNL     1     -10.627   0.618  68.408  1.00  0.00    -0.352 OA
HETATM   53  C1  UNL     1     -11.520  -0.459  68.475  1.00  0.00     0.210 C 
ENDBRANCH   1  52
TORSDOF 21
ENDMDL
MODEL 4
REMARK VINA RESULT: -6.554556576      4.281      6.268
REMARK  21 active torsions:
REMARK  status: ('A' for Active; 'I' for Inactive)
REMARK    1  A    between atoms: O1_2  and  C2_3 
REMARK    2  A    between atoms: C5_6  and  C6_7 
REMARK    3  A    between atoms: C6_7  and  C8_9 
REMARK       I    between atoms: C8_9  and  N1_11 
REMARK    4  A    between atoms: N1_11  and  C9_13 
REMARK    5  A    between atoms: C10_16  and  N3_17 
REMARK    6  A    between atoms: C11_22  and  N5_23 
REMARK    7  A    between atoms: N5_23  and  N6_25 
REMARK    8  A    between atoms: C12_32  and  O3_33 
REMARK    9  A    between atoms: O3_33  and  C13_34 
REMARK   10  A    between atoms: C13_34  and  C14_35 
REMARK   11  A    between atoms: C14_35  and  C15_36 
REMARK   12  A    between atoms: C14_35  and  O5_39 
REMARK   13  A    between atoms: C15_36  and  O4_37 
REMARK   14  A    between atoms: O5_39  and  C16_40 
REMARK   15  A    between atoms: C16_40  and  O6_41 
REMARK   16  A    between atoms: C16_40  and  C17_43 
REMARK   17  A    between atoms: C17_43  and  N9_44 
REMARK   18  A    between atoms: C17_43  and  C18_48 
REMARK   19  A    between atoms: C18_48  and  O7_49 
REMARK   20  A    between atoms: C18_48  and  C19_51 
REMARK   21  A    between atoms: C19_51  and  O8_52 
ROOT
HETATM    1  C2  UNL     1      -8.649   4.139  68.406  1.00  0.00     0.119 A 
HETATM    2  C3  UNL     1      -7.886   3.506  69.357  1.00  0.00     0.043 A 
HETATM    3  C4  UNL     1      -8.187   2.210  69.720  1.00  0.00     0.029 A 
HETATM    4  C5  UNL     1      -9.255   1.601  69.103  1.00  0.00     0.024 A 
HETATM    5  N8  UNL     1      -9.981   2.243  68.179  1.00  0.00    -0.337 N 
ATOM      6  H8  UNL     1     -10.765   1.757  67.744  1.00  0.00     0.168 HD
HETATM    7  C12 UNL     1      -9.711   3.505  67.806  1.00  0.00     0.176 A 
ENDROOT
BRANCH   4   8
HETATM    8  C6  UNL     1      -9.649   0.204  69.441  1.00  0.00     0.124 C 
HETATM    9  C7  UNL     1      -8.420  -0.668  69.603  1.00  0.00     0.026 C 
BRANCH   8  10
HETATM   10  C8  UNL     1     -10.437  -0.319  68.294  1.00  0.00     0.245 C 
HETATM   11  O2  UNL     1      -9.867  -0.734  67.264  1.00  0.00    -0.272 OA
HETATM   12  N1  UNL     1     -11.841  -0.349  68.366  1.00  0.00    -0.158 N 
ATOM     13  H1  UNL     1     -12.369   0.522  68.311  1.00  0.00     0.187 HD
BRANCH  12  14
HETATM   14  C9  UNL     1     -12.459  -1.461  68.501  1.00  0.00     0.714 A 
HETATM   15  N2  UNL     1     -13.742  -1.572  68.131  1.00  0.00    -0.021 N 
HETATM   16  C10 UNL     1     -14.348  -2.754  68.289  1.00  0.00     0.705 A 
ATOM     17  H2  UNL     1     -14.244  -0.775  67.739  1.00  0.00     0.203 HD
HETATM   18  N4  UNL     1     -13.701  -3.829  68.808  1.00  0.00    -0.020 N 
HETATM   19  C11 UNL     1     -12.415  -3.728  69.182  1.00  0.00     0.725 A 
ATOM     20  H4  UNL     1     -14.193  -4.716  68.915  1.00  0.00     0.203 HD
HETATM   21  N7  UNL     1     -11.823  -2.546  69.020  1.00  0.00    -0.020 N 
ATOM     22  H7  UNL     1     -10.847  -2.450  69.298  1.00  0.00     0.203 HD
BRANCH  16  23
HETATM   23  N3  UNL     1     -15.586  -2.912  67.946  1.00  0.00    -0.234 N 
ATOM     24  H32 UNL     1     -16.133  -2.071  67.758  1.00  0.00     0.174 HD
ATOM     25  H31 UNL     1     -15.991  -3.846  67.871  1.00  0.00     0.174 HD
ENDBRANCH  16  23
BRANCH  19  26
HETATM   26  N5  UNL     1     -11.769  -4.725  69.679  1.00  0.00    -0.138 N 
ATOM     27  H5  UNL     1     -11.542  -5.526  69.089  1.00  0.00     0.205 HD
BRANCH  26  28
HETATM   28  N6  UNL     1     -11.377  -4.716  71.019  1.00  0.00    -0.331 N 
ATOM     29  H62 UNL     1     -11.463  -5.576  71.561  1.00  0.00     0.177 HD
ATOM     30  H61 UNL     1     -11.012  -3.865  71.445  1.00  0.00     0.177 HD
ENDBRANCH  26  28
ENDBRANCH  19  26
ENDBRANCH  12  14
ENDBRANCH   8  10
ENDBRANCH   4   8
BRANCH   7  31
HETATM   31  O3  UNL     1     -10.514   4.093  66.843  1.00  0.00    -0.331 OA
BRANCH  31  32
HETATM   32  C13 UNL     1     -11.471   3.330  66.135  1.00  0.00     0.211 C 
BRANCH  32  33
HETATM   33  C14 UNL     1     -11.101   3.397  64.670  1.00  0.00     0.172 C 
BRANCH  33  34
HETATM   34  C15 UNL     1     -10.886   1.989  64.194  1.00  0.00     0.198 C 
BRANCH  34  35
HETATM   35  O4  UNL     1     -10.717   1.188  65.319  1.00  0.00    -0.398 OA
ATOM     36  H4  UNL     1     -10.825   0.284  65.046  1.00  0.00     0.209 HD
ENDBRANCH  34  35
ENDBRANCH  33  34
BRANCH  33  37
HETATM   37  O5  UNL     1     -10.067   4.257  64.412  1.00  0.00    -0.350 OA
BRANCH  37  38
HETATM   38  C16 UNL     1      -8.922   3.674  63.909  1.00  0.00     0.290 C 
BRANCH  38  39
HETATM   39  O6  UNL     1      -8.515   4.512  62.837  1.00  0.00    -0.369 OA
ATOM     40  H6  UNL     1      -9.319   4.778  62.407  1.00  0.00     0.212 HD
ENDBRANCH  38  39
BRANCH  38  41
HETATM   41  C17 UNL     1      -7.869   3.722  64.979  1.00  0.00     0.268 C 
BRANCH  41  42
HETATM   42  N9  UNL     1      -7.326   5.080  65.041  1.00  0.00    -0.068 N 
ATOM     43  H93 UNL     1      -8.056   5.788  65.125  1.00  0.00     0.275 HD
ATOM     44  H92 UNL     1      -6.845   5.268  65.920  1.00  0.00     0.275 HD
ATOM     45  H91 UNL     1      -6.729   5.229  64.228  1.00  0.00     0.275 HD
ENDBRANCH  41  42
BRANCH  41  46
HETATM   46  C18 UNL     1      -6.735   2.781  64.772  1.00  0.00     0.177 C 
BRANCH  46  47
HETATM   47  O7  UNL     1      -6.001   3.028  63.627  1.00  0.00    -0.391 OA
ATOM     48  H7  UNL     1      -6.371   2.645  62.840  1.00  0.00     0.210 HD
ENDBRANCH  46  47
BRANCH  46  49
HETATM   49  C19 UNL     1      -7.161   1.328  64.798  1.00  0.00     0.198 C 
BRANCH  49  50
HETATM   50  O8  UNL     1      -7.904   1.058  65.946  1.00  0.00    -0.398 OA
ATOM     51  H8  UNL     1      -7.385   0.565  66.570  1.00  0.00     0.209 HD
ENDBRANCH  49  50
ENDBRANCH  46  49
ENDBRANCH  41  46
ENDBRANCH  38  41
ENDBRANCH  37  38
ENDBRANCH  33  37
ENDBRANCH  32  33
ENDBRANCH  31  32
ENDBRANCH   7  31
BRANCH   1  52
HETATM   52  O1  UNL     1      -8.339   5.440  68.049  1.00  0.00    -0.352 OA
HETATM   53  C1  UNL     1      -8.783   6.562  68.760  1.00  0.00     0.210 C 
ENDBRANCH   1  52
TORSDOF 21
ENDMDL
MODEL 5
REMARK VINA RESULT: -6.532793986      3.484      7.297
REMARK  21 active torsions:
REMARK  status: ('A' for Active; 'I' for Inactive)
REMARK    1  A    between atoms: O1_2  and  C2_3 
REMARK    2  A    between atoms: C5_6  and  C6_7 
REMARK    3  A    between atoms: C6_7  and  C8_9 
REMARK       I    between atoms: C8_9  and  N1_11 
REMARK    4  A    between atoms: N1_11  and  C9_13 
REMARK    5  A    between atoms: C10_16  and  N3_17 
REMARK    6  A    between atoms: C11_22  and  N5_23 
REMARK    7  A    between atoms: N5_23  and  N6_25 
REMARK    8  A    between atoms: C12_32  and  O3_33 
REMARK    9  A    between atoms: O3_33  and  C13_34 
REMARK   10  A    between atoms: C13_34  and  C14_35 
REMARK   11  A    between atoms: C14_35  and  C15_36 
REMARK   12  A    between atoms: C14_35  and  O5_39 
REMARK   13  A    between atoms: C15_36  and  O4_37 
REMARK   14  A    between atoms: O5_39  and  C16_40 
REMARK   15  A    between atoms: C16_40  and  O6_41 
REMARK   16  A    between atoms: C16_40  and  C17_43 
REMARK   17  A    between atoms: C17_43  and  N9_44 
REMARK   18  A    between atoms: C17_43  and  C18_48 
REMARK   19  A    between atoms: C18_48  and  O7_49 
REMARK   20  A    between atoms: C18_48  and  C19_51 
REMARK   21  A    between atoms: C19_51  and  O8_52 
ROOT
HETATM    1  C2  UNL     1     -10.563   3.846  64.390  1.00  0.00     0.119 A 
HETATM    2  C3  UNL     1     -10.042   2.745  63.756  1.00  0.00     0.043 A 
HETATM    3  C4  UNL     1      -8.833   2.228  64.170  1.00  0.00     0.029 A 
HETATM    4  C5  UNL     1      -8.193   2.849  65.218  1.00  0.00     0.024 A 
HETATM    5  N8  UNL     1      -8.725   3.922  65.818  1.00  0.00    -0.337 N 
ATOM      6  H8  UNL     1      -8.220   4.354  66.591  1.00  0.00     0.168 HD
HETATM    7  C12 UNL     1      -9.900   4.447  65.435  1.00  0.00     0.176 A 
ENDROOT
BRANCH   4   8
HETATM    8  C6  UNL     1      -6.881   2.355  65.723  1.00  0.00     0.124 C 
HETATM    9  C7  UNL     1      -6.871   0.841  65.781  1.00  0.00     0.026 C 
BRANCH   8  10
HETATM   10  C8  UNL     1      -6.723   2.870  67.108  1.00  0.00     0.245 C 
HETATM   11  O2  UNL     1      -7.554   2.582  67.995  1.00  0.00    -0.272 OA
HETATM   12  N1  UNL     1      -5.628   3.691  67.429  1.00  0.00    -0.158 N 
ATOM     13  H1  UNL     1      -5.597   4.651  67.087  1.00  0.00     0.187 HD
BRANCH  12  14
HETATM   14  C9  UNL     1      -4.670   3.240  68.148  1.00  0.00     0.714 A 
HETATM   15  N2  UNL     1      -4.888   2.256  69.030  1.00  0.00    -0.021 N 
HETATM   16  C10 UNL     1      -3.857   1.817  69.760  1.00  0.00     0.705 A 
ATOM     17  H2  UNL     1      -5.818   1.852  69.143  1.00  0.00     0.203 HD
HETATM   18  N4  UNL     1      -2.610   2.339  69.628  1.00  0.00    -0.020 N 
HETATM   19  C11 UNL     1      -2.380   3.325  68.747  1.00  0.00     0.725 A 
ATOM     20  H4  UNL     1      -1.846   1.980  70.200  1.00  0.00     0.203 HD
HETATM   21  N7  UNL     1      -3.416   3.754  68.027  1.00  0.00    -0.020 N 
ATOM     22  H7  UNL     1      -3.261   4.503  67.352  1.00  0.00     0.203 HD
BRANCH  16  23
HETATM   23  N3  UNL     1      -4.017   0.867  70.624  1.00  0.00    -0.234 N 
ATOM     24  H32 UNL     1      -4.651   0.107  70.376  1.00  0.00     0.174 HD
ATOM     25  H31 UNL     1      -3.525   0.888  71.518  1.00  0.00     0.174 HD
ENDBRANCH  16  23
BRANCH  19  26
HETATM   26  N5  UNL     1      -1.213   3.845  68.594  1.00  0.00    -0.138 N 
ATOM     27  H5  UNL     1      -0.518   3.758  69.337  1.00  0.00     0.205 HD
BRANCH  26  28
HETATM   28  N6  UNL     1      -0.890   4.527  67.420  1.00  0.00    -0.331 N 
ATOM     29  H62 UNL     1      -1.644   4.931  66.863  1.00  0.00     0.177 HD
ATOM     30  H61 UNL     1       0.082   4.618  67.126  1.00  0.00     0.177 HD
ENDBRANCH  26  28
ENDBRANCH  19  26
ENDBRANCH  12  14
ENDBRANCH   8  10
ENDBRANCH   4   8
BRANCH   7  31
HETATM   31  O3  UNL     1     -10.377   5.558  66.112  1.00  0.00    -0.331 OA
BRANCH  31  32
HETATM   32  C13 UNL     1     -10.777   5.464  67.465  1.00  0.00     0.211 C 
BRANCH  32  33
HETATM   33  C14 UNL     1      -9.742   6.200  68.288  1.00  0.00     0.172 C 
BRANCH  33  34
HETATM   34  C15 UNL     1      -9.260   5.258  69.353  1.00  0.00     0.198 C 
BRANCH  34  35
HETATM   35  O4  UNL     1      -7.876   5.170  69.240  1.00  0.00    -0.398 OA
ATOM     36  H4  UNL     1      -7.685   4.561  68.536  1.00  0.00     0.209 HD
ENDBRANCH  34  35
ENDBRANCH  33  34
BRANCH  33  37
HETATM   37  O5  UNL     1     -10.180   7.414  68.746  1.00  0.00    -0.350 OA
BRANCH  37  38
HETATM   38  C16 UNL     1      -9.191   8.341  69.005  1.00  0.00     0.290 C 
BRANCH  38  39
HETATM   39  O6  UNL     1      -8.684   8.712  67.731  1.00  0.00    -0.369 OA
ATOM     40  H6  UNL     1      -9.292   8.344  67.101  1.00  0.00     0.212 HD
ENDBRANCH  38  39
BRANCH  38  41
HETATM   41  C17 UNL     1      -9.837   9.545  69.630  1.00  0.00     0.268 C 
BRANCH  41  42
HETATM   42  N9  UNL     1     -10.566  10.277  68.593  1.00  0.00    -0.068 N 
ATOM     43  H93 UNL     1     -10.258  10.030  67.652  1.00  0.00     0.275 HD
ATOM     44  H92 UNL     1     -11.535   9.972  68.508  1.00  0.00     0.275 HD
ATOM     45  H91 UNL     1     -10.485  11.275  68.782  1.00  0.00     0.275 HD
ENDBRANCH  41  42
BRANCH  41  46
HETATM   46  C18 UNL     1      -8.888  10.488  70.279  1.00  0.00     0.177 C 
BRANCH  46  47
HETATM   47  O7  UNL     1      -7.902  10.964  69.435  1.00  0.00    -0.391 OA
ATOM     48  H7  UNL     1      -7.021  10.878  69.782  1.00  0.00     0.210 HD
ENDBRANCH  46  47
BRANCH  46  49
HETATM   49  C19 UNL     1      -8.252   9.919  71.531  1.00  0.00     0.198 C 
BRANCH  49  50
HETATM   50  O8  UNL     1      -6.925  10.333  71.636  1.00  0.00    -0.398 OA
ATOM     51  H8  UNL     1      -6.881  11.268  71.798  1.00  0.00     0.209 HD
ENDBRANCH  49  50
ENDBRANCH  46  49
ENDBRANCH  41  46
ENDBRANCH  38  41
ENDBRANCH  37  38
ENDBRANCH  33  37
ENDBRANCH  32  33
ENDBRANCH  31  32
ENDBRANCH   7  31
BRANCH   1  52
HETATM   52  O1  UNL     1     -11.777   4.358  63.967  1.00  0.00    -0.352 OA
HETATM   53  C1  UNL     1     -13.013   3.788  64.298  1.00  0.00     0.210 C 
ENDBRANCH   1  52
TORSDOF 21
ENDMDL
