MODEL 1
REMARK VINA RESULT: -6.733240149      0.000      0.000
REMARK  18 active torsions:
REMARK  status: ('A' for Active; 'I' for Inactive)
REMARK    1  A    between atoms: N1_1  and  C1_4 
REMARK    2  A    between atoms: C2_10  and  C3_11 
REMARK    3  A    between atoms: C3_11  and  C4_12 
REMARK    4  A    between atoms: C3_11  and  N5_28 
REMARK    5  A    between atoms: C4_12  and  C5_13 
REMARK    6  A    between atoms: C5_13  and  N4_14 
REMARK    7  A    between atoms: C5_13  and  C6_18 
REMARK    8  A    between atoms: C6_18  and  O3_20 
REMARK    9  A    between atoms: O3_20  and  C7_21 
REMARK   10  A    between atoms: C7_21  and  C8_22 
REMARK   11  A    between atoms: C8_22  and  O4_23 
REMARK   12  A    between atoms: C8_22  and  C9_25 
REMARK   13  A    between atoms: C9_25  and  O5_26 
REMARK       I    between atoms: N5_28  and  C10_30 
REMARK   14  A    between atoms: C10_30  and  C11_32 
REMARK   15  A    between atoms: C11_32  and  C12_33 
REMARK   16  A    between atoms: N6_35  and  C14_36 
REMARK   17  A    between atoms: C14_36  and  C15_37 
REMARK   18  A    between atoms: C18_43  and  N8_44 
ROOT
HETATM    1  C3  UNL     1      -5.220   2.865  68.616  1.00  0.00     0.047 C 
ENDROOT
BRANCH   1   2
HETATM    2  C2  UNL     1      -3.916   2.920  68.695  1.00  0.00     0.124 C 
HETATM    3  C1  UNL     1      -2.918   2.385  69.582  1.00  0.00     0.152 C 
HETATM    4  N2  UNL     1      -1.636   2.832  69.042  1.00  0.00    -0.224 N 
HETATM    5  O1  UNL     1      -1.883   3.931  68.309  1.00  0.00    -0.155 OA
ATOM      6  H2  UNL     1      -0.728   2.394  69.192  1.00  0.00     0.198 HD
HETATM    7  N3  UNL     1      -3.069   3.634  67.714  1.00  0.00    -0.236 N 
ATOM      8  H3  UNL     1      -3.330   3.863  66.754  1.00  0.00     0.197 HD
BRANCH   3   9
HETATM    9  N1  UNL     1      -3.030   1.683  70.631  1.00  0.00    -0.382 N 
ATOM     10  H12 UNL     1      -3.030   0.671  70.762  1.00  0.00     0.157 HD
ATOM     11  H11 UNL     1      -3.154   2.077  71.563  1.00  0.00     0.157 HD
ENDBRANCH   3   9
ENDBRANCH   1   2
BRANCH   1  12
HETATM   12  C4  UNL     1      -5.830   4.187  67.982  1.00  0.00     0.103 C 
BRANCH  12  13
HETATM   13  C5  UNL     1      -7.225   4.246  68.460  1.00  0.00     0.287 C 
BRANCH  13  14
HETATM   14  N4  UNL     1      -7.629   5.343  69.259  1.00  0.00    -0.066 N 
ATOM     15  H43 UNL     1      -8.058   4.989  70.113  1.00  0.00     0.275 HD
ATOM     16  H42 UNL     1      -6.798   5.803  69.630  1.00  0.00     0.275 HD
ATOM     17  H41 UNL     1      -8.241   6.050  68.851  1.00  0.00     0.275 HD
ENDBRANCH  13  14
BRANCH  13  18
HETATM   18  C6  UNL     1      -8.153   4.179  67.257  1.00  0.00     0.290 C 
HETATM   19  O2  UNL     1      -8.969   5.094  67.096  1.00  0.00    -0.263 OA
BRANCH  18  20
HETATM   20  O3  UNL     1      -8.039   3.103  66.409  1.00  0.00    -0.317 OA
BRANCH  20  21
HETATM   21  C7  UNL     1      -7.316   3.171  65.218  1.00  0.00     0.212 C 
BRANCH  21  22
HETATM   22  C8  UNL     1      -6.772   1.818  64.857  1.00  0.00     0.166 C 
BRANCH  22  23
HETATM   23  O4  UNL     1      -5.700   2.003  63.982  1.00  0.00    -0.391 OA
ATOM     24  H4  UNL     1      -5.209   1.190  63.941  1.00  0.00     0.210 HD
ENDBRANCH  22  23
BRANCH  22  25
HETATM   25  C9  UNL     1      -7.863   1.060  64.107  1.00  0.00     0.198 C 
BRANCH  25  26
HETATM   26  O5  UNL     1      -9.103   1.556  64.442  1.00  0.00    -0.398 OA
ATOM     27  H5  UNL     1      -9.503   1.011  65.110  1.00  0.00     0.209 HD
ENDBRANCH  25  26
ENDBRANCH  22  25
ENDBRANCH  21  22
ENDBRANCH  20  21
ENDBRANCH  18  20
ENDBRANCH  13  18
ENDBRANCH  12  13
ENDBRANCH   1  12
BRANCH   1  28
HETATM   28  N5  UNL     1      -6.234   1.983  68.905  1.00  0.00    -0.328 N 
HETATM   29  C10 UNL     1      -6.703   0.737  68.595  1.00  0.00     0.227 C 
HETATM   30  O6  UNL     1      -6.261  -0.106  67.817  1.00  0.00    -0.273 OA
ATOM     31  H5  UNL     1      -6.856   2.408  69.594  1.00  0.00     0.168 HD
BRANCH  29  32
HETATM   32  C11 UNL     1      -8.004   0.270  69.320  1.00  0.00     0.162 C 
BRANCH  32  33
HETATM   33  C12 UNL     1      -9.130   0.448  68.401  1.00  0.00     0.049 A 
HETATM   34  C13 UNL     1     -10.277   1.156  68.649  1.00  0.00     0.135 A 
HETATM   35  N6  UNL     1     -11.043   1.056  67.524  1.00  0.00    -0.279 N 
HETATM   36  N10 UNL     1     -10.394   0.320  66.630  1.00  0.00    -0.020 NA
HETATM   37  N11 UNL     1      -9.239  -0.045  67.162  1.00  0.00    -0.286 N 
ATOM     38  H11 UNL     1      -8.535  -0.618  66.696  1.00  0.00     0.184 HD
BRANCH  35  39
HETATM   39  C14 UNL     1     -12.354   1.677  67.382  1.00  0.00     0.203 C 
BRANCH  39  40
HETATM   40  C15 UNL     1     -12.381   2.582  66.198  1.00  0.00     0.051 A 
HETATM   41  C16 UNL     1     -13.560   2.743  65.470  1.00  0.00     0.102 A 
HETATM   42  C17 UNL     1     -13.532   3.582  64.396  1.00  0.00     0.261 A 
HETATM   43  O7  UNL     1     -14.582   3.740  63.727  1.00  0.00    -0.268 OA
HETATM   44  N7  UNL     1     -12.420   4.241  64.033  1.00  0.00    -0.156 N 
HETATM   45  C18 UNL     1     -11.294   4.073  64.747  1.00  0.00     0.679 A 
ATOM     46  H7  UNL     1     -12.429   4.862  63.224  1.00  0.00     0.187 HD
HETATM   47  N9  UNL     1     -11.274   3.251  65.820  1.00  0.00    -0.194 N 
ATOM     48  H9  UNL     1     -10.410   3.135  66.350  1.00  0.00     0.184 HD
BRANCH  45  49
HETATM   49  N8  UNL     1     -10.189   4.691  64.433  1.00  0.00    -0.234 N 
ATOM     50  H82 UNL     1      -9.622   5.066  65.193  1.00  0.00     0.174 HD
ATOM     51  H81 UNL     1      -9.896   4.799  63.462  1.00  0.00     0.174 HD
ENDBRANCH  45  49
ENDBRANCH  39  40
ENDBRANCH  35  39
ENDBRANCH  32  33
ENDBRANCH  29  32
ENDBRANCH   1  28
TORSDOF 18
ENDMDL
MODEL 2
REMARK VINA RESULT: -6.513874164      2.607      3.376
REMARK  18 active torsions:
REMARK  status: ('A' for Active; 'I' for Inactive)
REMARK    1  A    between atoms: N1_1  and  C1_4 
REMARK    2  A    between atoms: C2_10  and  C3_11 
REMARK    3  A    between atoms: C3_11  and  C4_12 
REMARK    4  A    between atoms: C3_11  and  N5_28 
REMARK    5  A    between atoms: C4_12  and  C5_13 
REMARK    6  A    between atoms: C5_13  and  N4_14 
REMARK    7  A    between atoms: C5_13  and  C6_18 
REMARK    8  A    between atoms: C6_18  and  O3_20 
REMARK    9  A    between atoms: O3_20  and  C7_21 
REMARK   10  A    between atoms: C7_21  and  C8_22 
REMARK   11  A    between atoms: C8_22  and  O4_23 
REMARK   12  A    between atoms: C8_22  and  C9_25 
REMARK   13  A    between atoms: C9_25  and  O5_26 
REMARK       I    between atoms: N5_28  and  C10_30 
REMARK   14  A    between atoms: C10_30  and  C11_32 
REMARK   15  A    between atoms: C11_32  and  C12_33 
REMARK   16  A    between atoms: N6_35  and  C14_36 
REMARK   17  A    between atoms: C14_36  and  C15_37 
REMARK   18  A    between atoms: C18_43  and  N8_44 
ROOT
HETATM    1  C3  UNL     1      -3.359   2.863  68.837  1.00  0.00     0.047 C 
ENDROOT
BRANCH   1   2
HETATM    2  C2  UNL     1      -2.122   3.262  68.984  1.00  0.00     0.124 C 
HETATM    3  C1  UNL     1      -1.076   3.031  69.944  1.00  0.00     0.152 C 
HETATM    4  N2  UNL     1       0.075   3.785  69.455  1.00  0.00    -0.224 N 
HETATM    5  O1  UNL     1      -0.403   4.761  68.666  1.00  0.00    -0.155 OA
ATOM      6  H2  UNL     1       1.056   3.606  69.672  1.00  0.00     0.198 HD
HETATM    7  N3  UNL     1      -1.431   4.147  68.021  1.00  0.00    -0.236 N 
ATOM      8  H3  UNL     1      -1.682   4.275  67.040  1.00  0.00     0.197 HD
BRANCH   3   9
HETATM    9  N1  UNL     1      -1.066   2.351  71.014  1.00  0.00    -0.382 N 
ATOM     10  H12 UNL     1      -0.311   1.845  71.478  1.00  0.00     0.157 HD
ATOM     11  H11 UNL     1      -1.890   2.202  71.595  1.00  0.00     0.157 HD
ENDBRANCH   3   9
ENDBRANCH   1   2
BRANCH   1  12
HETATM   12  C4  UNL     1      -4.047   3.527  67.570  1.00  0.00     0.103 C 
BRANCH  12  13
HETATM   13  C5  UNL     1      -5.448   3.774  67.966  1.00  0.00     0.287 C 
BRANCH  13  14
HETATM   14  N4  UNL     1      -5.789   5.032  68.521  1.00  0.00    -0.066 N 
ATOM     15  H43 UNL     1      -5.658   4.993  69.531  1.00  0.00     0.275 HD
ATOM     16  H42 UNL     1      -5.079   5.713  68.255  1.00  0.00     0.275 HD
ATOM     17  H41 UNL     1      -6.711   5.423  68.323  1.00  0.00     0.275 HD
ENDBRANCH  13  14
BRANCH  13  18
HETATM   18  C6  UNL     1      -6.342   3.539  66.759  1.00  0.00     0.290 C 
HETATM   19  O2  UNL     1      -6.832   4.523  66.194  1.00  0.00    -0.263 OA
BRANCH  18  20
HETATM   20  O3  UNL     1      -6.562   2.242  66.358  1.00  0.00    -0.317 OA
BRANCH  20  21
HETATM   21  C7  UNL     1      -6.345   1.825  65.044  1.00  0.00     0.212 C 
BRANCH  21  22
HETATM   22  C8  UNL     1      -7.653   1.548  64.360  1.00  0.00     0.166 C 
BRANCH  22  23
HETATM   23  O4  UNL     1      -8.216   2.771  63.991  1.00  0.00    -0.391 OA
ATOM     24  H4  UNL     1      -8.735   3.089  64.721  1.00  0.00     0.210 HD
ENDBRANCH  22  23
BRANCH  22  25
HETATM   25  C9  UNL     1      -8.583   0.893  65.378  1.00  0.00     0.198 C 
BRANCH  25  26
HETATM   26  O5  UNL     1      -9.390   1.843  65.963  1.00  0.00    -0.398 OA
ATOM     27  H5  UNL     1     -10.284   1.746  65.657  1.00  0.00     0.209 HD
ENDBRANCH  25  26
ENDBRANCH  22  25
ENDBRANCH  21  22
ENDBRANCH  20  21
ENDBRANCH  18  20
ENDBRANCH  13  18
ENDBRANCH  12  13
ENDBRANCH   1  12
BRANCH   1  28
HETATM   28  N5  UNL     1      -4.249   2.015  69.453  1.00  0.00    -0.328 N 
HETATM   29  C10 UNL     1      -4.563   1.478  70.671  1.00  0.00     0.227 C 
HETATM   30  O6  UNL     1      -4.031   1.635  71.768  1.00  0.00    -0.273 OA
ATOM     31  H5  UNL     1      -4.906   1.663  68.757  1.00  0.00     0.168 HD
BRANCH  29  32
HETATM   32  C11 UNL     1      -5.783   0.505  70.721  1.00  0.00     0.162 C 
BRANCH  32  33
HETATM   33  C12 UNL     1      -6.949   1.206  70.180  1.00  0.00     0.049 A 
HETATM   34  C13 UNL     1      -7.569   2.297  70.731  1.00  0.00     0.135 A 
HETATM   35  N6  UNL     1      -8.603   2.615  69.899  1.00  0.00    -0.279 N 
HETATM   36  N10 UNL     1      -8.614   1.757  68.886  1.00  0.00    -0.020 NA
HETATM   37  N11 UNL     1      -7.614   0.908  69.058  1.00  0.00    -0.286 N 
ATOM     38  H11 UNL     1      -7.385   0.140  68.428  1.00  0.00     0.184 HD
BRANCH  35  39
HETATM   39  C14 UNL     1      -9.515   3.727  70.133  1.00  0.00     0.203 C 
BRANCH  39  40
HETATM   40  C15 UNL     1      -9.438   4.714  69.018  1.00  0.00     0.051 A 
HETATM   41  C16 UNL     1      -9.086   6.038  69.281  1.00  0.00     0.102 A 
HETATM   42  C17 UNL     1      -9.030   6.900  68.228  1.00  0.00     0.261 A 
HETATM   43  O7  UNL     1      -8.717   8.096  68.442  1.00  0.00    -0.268 OA
HETATM   44  N7  UNL     1      -9.301   6.511  66.971  1.00  0.00    -0.156 N 
HETATM   45  C18 UNL     1      -9.637   5.232  66.737  1.00  0.00     0.679 A 
ATOM     46  H7  UNL     1      -9.251   7.179  66.202  1.00  0.00     0.187 HD
HETATM   47  N9  UNL     1      -9.706   4.340  67.752  1.00  0.00    -0.194 N 
ATOM     48  H9  UNL     1      -9.964   3.373  67.556  1.00  0.00     0.184 HD
BRANCH  45  49
HETATM   49  N8  UNL     1      -9.909   4.807  65.534  1.00  0.00    -0.234 N 
ATOM     50  H82 UNL     1     -10.666   5.266  65.027  1.00  0.00     0.174 HD
ATOM     51  H81 UNL     1      -9.385   4.042  65.108  1.00  0.00     0.174 HD
ENDBRANCH  45  49
ENDBRANCH  39  40
ENDBRANCH  35  39
ENDBRANCH  32  33
ENDBRANCH  29  32
ENDBRANCH   1  28
TORSDOF 18
ENDMDL
MODEL 3
REMARK VINA RESULT: -6.433345984      1.941      2.402
REMARK  18 active torsions:
REMARK  status: ('A' for Active; 'I' for Inactive)
REMARK    1  A    between atoms: N1_1  and  C1_4 
REMARK    2  A    between atoms: C2_10  and  C3_11 
REMARK    3  A    between atoms: C3_11  and  C4_12 
REMARK    4  A    between atoms: C3_11  and  N5_28 
REMARK    5  A    between atoms: C4_12  and  C5_13 
REMARK    6  A    between atoms: C5_13  and  N4_14 
REMARK    7  A    between atoms: C5_13  and  C6_18 
REMARK    8  A    between atoms: C6_18  and  O3_20 
REMARK    9  A    between atoms: O3_20  and  C7_21 
REMARK   10  A    between atoms: C7_21  and  C8_22 
REMARK   11  A    between atoms: C8_22  and  O4_23 
REMARK   12  A    between atoms: C8_22  and  C9_25 
REMARK   13  A    between atoms: C9_25  and  O5_26 
REMARK       I    between atoms: N5_28  and  C10_30 
REMARK   14  A    between atoms: C10_30  and  C11_32 
REMARK   15  A    between atoms: C11_32  and  C12_33 
REMARK   16  A    between atoms: N6_35  and  C14_36 
REMARK   17  A    between atoms: C14_36  and  C15_37 
REMARK   18  A    between atoms: C18_43  and  N8_44 
ROOT
HETATM    1  C3  UNL     1      -4.089   2.957  68.673  1.00  0.00     0.047 C 
ENDROOT
BRANCH   1   2
HETATM    2  C2  UNL     1      -2.812   3.226  68.759  1.00  0.00     0.124 C 
HETATM    3  C1  UNL     1      -1.764   2.942  69.704  1.00  0.00     0.152 C 
HETATM    4  N2  UNL     1      -0.556   3.536  69.135  1.00  0.00    -0.224 N 
HETATM    5  O1  UNL     1      -0.955   4.509  68.299  1.00  0.00    -0.155 OA
ATOM      6  H2  UNL     1       0.406   3.265  69.336  1.00  0.00     0.198 HD
HETATM    7  N3  UNL     1      -2.064   3.972  67.723  1.00  0.00    -0.236 N 
ATOM      8  H3  UNL     1      -2.334   4.067  66.744  1.00  0.00     0.197 HD
BRANCH   3   9
HETATM    9  N1  UNL     1      -1.789   2.331  70.814  1.00  0.00    -0.382 N 
ATOM     10  H12 UNL     1      -1.324   2.532  71.699  1.00  0.00     0.157 HD
ATOM     11  H11 UNL     1      -2.319   1.475  70.974  1.00  0.00     0.157 HD
ENDBRANCH   3   9
ENDBRANCH   1   2
BRANCH   1  12
HETATM   12  C4  UNL     1      -4.797   3.811  67.539  1.00  0.00     0.103 C 
BRANCH  12  13
HETATM   13  C5  UNL     1      -6.235   3.798  67.875  1.00  0.00     0.287 C 
BRANCH  13  14
HETATM   14  N4  UNL     1      -6.788   4.911  68.554  1.00  0.00    -0.066 N 
ATOM     15  H43 UNL     1      -6.045   5.388  69.065  1.00  0.00     0.275 HD
ATOM     16  H42 UNL     1      -7.044   5.621  67.868  1.00  0.00     0.275 HD
ATOM     17  H41 UNL     1      -7.577   4.761  69.183  1.00  0.00     0.275 HD
ENDBRANCH  13  14
BRANCH  13  18
HETATM   18  C6  UNL     1      -7.031   3.589  66.597  1.00  0.00     0.290 C 
HETATM   19  O2  UNL     1      -7.085   4.519  65.784  1.00  0.00    -0.263 OA
BRANCH  18  20
HETATM   20  O3  UNL     1      -7.651   2.377  66.410  1.00  0.00    -0.317 OA
BRANCH  20  21
HETATM   21  C7  UNL     1      -6.941   1.226  66.063  1.00  0.00     0.212 C 
BRANCH  21  22
HETATM   22  C8  UNL     1      -6.921   1.053  64.571  1.00  0.00     0.166 C 
BRANCH  22  23
HETATM   23  O4  UNL     1      -6.032   1.989  64.039  1.00  0.00    -0.391 OA
ATOM     24  H4  UNL     1      -5.150   1.724  64.274  1.00  0.00     0.210 HD
ENDBRANCH  22  23
BRANCH  22  25
HETATM   25  C9  UNL     1      -8.316   1.381  64.044  1.00  0.00     0.198 C 
BRANCH  25  26
HETATM   26  O5  UNL     1      -8.340   2.656  63.526  1.00  0.00    -0.398 OA
ATOM     27  H5  UNL     1      -9.197   3.044  63.652  1.00  0.00     0.209 HD
ENDBRANCH  25  26
ENDBRANCH  22  25
ENDBRANCH  21  22
ENDBRANCH  20  21
ENDBRANCH  18  20
ENDBRANCH  13  18
ENDBRANCH  12  13
ENDBRANCH   1  12
BRANCH   1  28
HETATM   28  N5  UNL     1      -5.010   2.129  69.270  1.00  0.00    -0.328 N 
HETATM   29  C10 UNL     1      -5.282   1.485  70.445  1.00  0.00     0.227 C 
HETATM   30  O6  UNL     1      -4.654   1.463  71.501  1.00  0.00    -0.273 OA
ATOM     31  H5  UNL     1      -5.751   1.922  68.600  1.00  0.00     0.168 HD
BRANCH  29  32
HETATM   32  C11 UNL     1      -6.587   0.630  70.497  1.00  0.00     0.162 C 
BRANCH  32  33
HETATM   33  C12 UNL     1      -7.726   1.519  70.259  1.00  0.00     0.049 A 
HETATM   34  C13 UNL     1      -8.750   1.307  69.372  1.00  0.00     0.135 A 
HETATM   35  N6  UNL     1      -9.582   2.383  69.480  1.00  0.00    -0.279 N 
HETATM   36  N10 UNL     1      -9.089   3.214  70.391  1.00  0.00    -0.020 NA
HETATM   37  N11 UNL     1      -7.969   2.689  70.860  1.00  0.00    -0.286 N 
ATOM     38  H11 UNL     1      -7.378   3.114  71.574  1.00  0.00     0.184 HD
BRANCH  35  39
HETATM   39  C14 UNL     1     -10.801   2.543  68.698  1.00  0.00     0.203 C 
BRANCH  39  40
HETATM   40  C15 UNL     1     -10.615   3.573  67.638  1.00  0.00     0.051 A 
HETATM   41  C16 UNL     1     -10.894   3.263  66.307  1.00  0.00     0.102 A 
HETATM   42  C17 UNL     1     -10.707   4.240  65.376  1.00  0.00     0.261 A 
HETATM   43  O7  UNL     1     -10.952   3.982  64.172  1.00  0.00    -0.268 OA
HETATM   44  N7  UNL     1     -10.270   5.467  65.705  1.00  0.00    -0.156 N 
HETATM   45  C18 UNL     1     -10.007   5.747  66.992  1.00  0.00     0.679 A 
ATOM     46  H7  UNL     1     -10.139   6.178  64.986  1.00  0.00     0.187 HD
HETATM   47  N9  UNL     1     -10.177   4.809  67.951  1.00  0.00    -0.194 N 
ATOM     48  H9  UNL     1      -9.972   5.039  68.923  1.00  0.00     0.184 HD
BRANCH  45  49
HETATM   49  N8  UNL     1      -9.581   6.923  67.361  1.00  0.00    -0.234 N 
ATOM     50  H82 UNL     1      -8.827   7.347  66.820  1.00  0.00     0.174 HD
ATOM     51  H81 UNL     1      -9.983   7.409  68.162  1.00  0.00     0.174 HD
ENDBRANCH  45  49
ENDBRANCH  39  40
ENDBRANCH  35  39
ENDBRANCH  32  33
ENDBRANCH  29  32
ENDBRANCH   1  28
TORSDOF 18
ENDMDL
MODEL 4
REMARK VINA RESULT: -6.422954886      2.752      3.894
REMARK  18 active torsions:
REMARK  status: ('A' for Active; 'I' for Inactive)
REMARK    1  A    between atoms: N1_1  and  C1_4 
REMARK    2  A    between atoms: C2_10  and  C3_11 
REMARK    3  A    between atoms: C3_11  and  C4_12 
REMARK    4  A    between atoms: C3_11  and  N5_28 
REMARK    5  A    between atoms: C4_12  and  C5_13 
REMARK    6  A    between atoms: C5_13  and  N4_14 
REMARK    7  A    between atoms: C5_13  and  C6_18 
REMARK    8  A    between atoms: C6_18  and  O3_20 
REMARK    9  A    between atoms: O3_20  and  C7_21 
REMARK   10  A    between atoms: C7_21  and  C8_22 
REMARK   11  A    between atoms: C8_22  and  O4_23 
REMARK   12  A    between atoms: C8_22  and  C9_25 
REMARK   13  A    between atoms: C9_25  and  O5_26 
REMARK       I    between atoms: N5_28  and  C10_30 
REMARK   14  A    between atoms: C10_30  and  C11_32 
REMARK   15  A    between atoms: C11_32  and  C12_33 
REMARK   16  A    between atoms: N6_35  and  C14_36 
REMARK   17  A    between atoms: C14_36  and  C15_37 
REMARK   18  A    between atoms: C18_43  and  N8_44 
ROOT
HETATM    1  C3  UNL     1      -4.920   2.602  68.554  1.00  0.00     0.047 C 
ENDROOT
BRANCH   1   2
HETATM    2  C2  UNL     1      -3.655   2.904  68.693  1.00  0.00     0.124 C 
HETATM    3  C1  UNL     1      -2.628   2.603  69.654  1.00  0.00     0.152 C 
HETATM    4  N2  UNL     1      -1.422   3.259  69.153  1.00  0.00    -0.224 N 
HETATM    5  O1  UNL     1      -1.825   4.260  68.353  1.00  0.00    -0.155 OA
ATOM      6  H2  UNL     1      -0.458   3.006  69.370  1.00  0.00     0.198 HD
HETATM    7  N3  UNL     1      -2.899   3.721  67.718  1.00  0.00    -0.236 N 
ATOM      8  H3  UNL     1      -3.143   3.856  66.736  1.00  0.00     0.197 HD
BRANCH   3   9
HETATM    9  N1  UNL     1      -2.667   1.937  70.732  1.00  0.00    -0.382 N 
ATOM     10  H12 UNL     1      -1.955   1.774  71.444  1.00  0.00     0.157 HD
ATOM     11  H11 UNL     1      -3.490   1.425  71.048  1.00  0.00     0.157 HD
ENDBRANCH   3   9
ENDBRANCH   1   2
BRANCH   1  12
HETATM   12  C4  UNL     1      -5.613   3.471  67.420  1.00  0.00     0.103 C 
BRANCH  12  13
HETATM   13  C5  UNL     1      -6.816   4.050  68.048  1.00  0.00     0.287 C 
BRANCH  13  14
HETATM   14  N4  UNL     1      -6.770   5.389  68.508  1.00  0.00    -0.066 N 
ATOM     15  H43 UNL     1      -6.882   6.015  67.711  1.00  0.00     0.275 HD
ATOM     16  H42 UNL     1      -7.619   5.586  69.036  1.00  0.00     0.275 HD
ATOM     17  H41 UNL     1      -5.964   5.693  69.055  1.00  0.00     0.275 HD
ENDBRANCH  13  14
BRANCH  13  18
HETATM   18  C6  UNL     1      -7.977   3.933  67.073  1.00  0.00     0.290 C 
HETATM   19  O2  UNL     1      -8.776   4.873  66.999  1.00  0.00    -0.263 OA
BRANCH  18  20
HETATM   20  O3  UNL     1      -8.080   2.786  66.323  1.00  0.00    -0.317 OA
BRANCH  20  21
HETATM   21  C7  UNL     1      -9.250   2.026  66.287  1.00  0.00     0.212 C 
BRANCH  21  22
HETATM   22  C8  UNL     1      -9.173   0.999  65.193  1.00  0.00     0.166 C 
BRANCH  22  23
HETATM   23  O4  UNL     1      -9.153  -0.265  65.786  1.00  0.00    -0.391 OA
ATOM     24  H4  UNL     1      -8.928  -0.901  65.117  1.00  0.00     0.210 HD
ENDBRANCH  22  23
BRANCH  22  25
HETATM   25  C9  UNL     1      -7.848   1.194  64.461  1.00  0.00     0.198 C 
BRANCH  25  26
HETATM   26  O5  UNL     1      -6.857   0.455  65.068  1.00  0.00    -0.398 OA
ATOM     27  H5  UNL     1      -6.005   0.824  64.868  1.00  0.00     0.209 HD
ENDBRANCH  25  26
ENDBRANCH  22  25
ENDBRANCH  21  22
ENDBRANCH  20  21
ENDBRANCH  18  20
ENDBRANCH  13  18
ENDBRANCH  12  13
ENDBRANCH   1  12
BRANCH   1  28
HETATM   28  N5  UNL     1      -5.837   1.732  69.093  1.00  0.00    -0.328 N 
HETATM   29  C10 UNL     1      -6.597   0.637  68.786  1.00  0.00     0.227 C 
HETATM   30  O6  UNL     1      -6.689   0.004  67.736  1.00  0.00    -0.273 OA
ATOM     31  H5  UNL     1      -6.013   1.995  70.063  1.00  0.00     0.168 HD
BRANCH  29  32
HETATM   32  C11 UNL     1      -7.508   0.068  69.919  1.00  0.00     0.162 C 
BRANCH  32  33
HETATM   33  C12 UNL     1      -8.765  -0.377  69.314  1.00  0.00     0.049 A 
HETATM   34  C13 UNL     1      -9.993   0.212  69.467  1.00  0.00     0.135 A 
HETATM   35  N6  UNL     1     -10.872  -0.531  68.733  1.00  0.00    -0.279 N 
HETATM   36  N10 UNL     1     -10.210  -1.529  68.158  1.00  0.00    -0.020 NA
HETATM   37  N11 UNL     1      -8.939  -1.433  68.510  1.00  0.00    -0.286 N 
ATOM     38  H11 UNL     1      -8.200  -2.069  68.213  1.00  0.00     0.184 HD
BRANCH  35  39
HETATM   39  C14 UNL     1     -12.294  -0.232  68.631  1.00  0.00     0.203 C 
BRANCH  39  40
HETATM   40  C15 UNL     1     -13.079  -1.480  68.407  1.00  0.00     0.051 A 
HETATM   41  C16 UNL     1     -14.391  -1.404  67.940  1.00  0.00     0.102 A 
HETATM   42  C17 UNL     1     -15.065  -2.573  67.751  1.00  0.00     0.261 A 
HETATM   43  O7  UNL     1     -16.247  -2.528  67.332  1.00  0.00    -0.268 OA
HETATM   44  N7  UNL     1     -14.506  -3.769  68.002  1.00  0.00    -0.156 N 
HETATM   45  C18 UNL     1     -13.242  -3.821  68.451  1.00  0.00     0.679 A 
ATOM     46  H7  UNL     1     -15.036  -4.627  67.852  1.00  0.00     0.187 HD
HETATM   47  N9  UNL     1     -12.533  -2.687  68.653  1.00  0.00    -0.194 N 
ATOM     48  H9  UNL     1     -11.574  -2.746  68.996  1.00  0.00     0.184 HD
BRANCH  45  49
HETATM   49  N8  UNL     1     -12.656  -4.958  68.709  1.00  0.00    -0.234 N 
ATOM     50  H82 UNL     1     -12.321  -5.510  67.919  1.00  0.00     0.174 HD
ATOM     51  H81 UNL     1     -12.533  -5.290  69.665  1.00  0.00     0.174 HD
ENDBRANCH  45  49
ENDBRANCH  39  40
ENDBRANCH  35  39
ENDBRANCH  32  33
ENDBRANCH  29  32
ENDBRANCH   1  28
TORSDOF 18
ENDMDL
MODEL 5
REMARK VINA RESULT: -6.367191968      3.160      4.703
REMARK  18 active torsions:
REMARK  status: ('A' for Active; 'I' for Inactive)
REMARK    1  A    between atoms: N1_1  and  C1_4 
REMARK    2  A    between atoms: C2_10  and  C3_11 
REMARK    3  A    between atoms: C3_11  and  C4_12 
REMARK    4  A    between atoms: C3_11  and  N5_28 
REMARK    5  A    between atoms: C4_12  and  C5_13 
REMARK    6  A    between atoms: C5_13  and  N4_14 
REMARK    7  A    between atoms: C5_13  and  C6_18 
REMARK    8  A    between atoms: C6_18  and  O3_20 
REMARK    9  A    between atoms: O3_20  and  C7_21 
REMARK   10  A    between atoms: C7_21  and  C8_22 
REMARK   11  A    between atoms: C8_22  and  O4_23 
REMARK   12  A    between atoms: C8_22  and  C9_25 
REMARK   13  A    between atoms: C9_25  and  O5_26 
REMARK       I    between atoms: N5_28  and  C10_30 
REMARK   14  A    between atoms: C10_30  and  C11_32 
REMARK   15  A    between atoms: C11_32  and  C12_33 
REMARK   16  A    between atoms: N6_35  and  C14_36 
REMARK   17  A    between atoms: C14_36  and  C15_37 
REMARK   18  A    between atoms: C18_43  and  N8_44 
ROOT
HETATM    1  C3  UNL     1      -4.736   2.371  69.024  1.00  0.00     0.047 C 
ENDROOT
BRANCH   1   2
HETATM    2  C2  UNL     1      -3.503   2.792  68.914  1.00  0.00     0.124 C 
HETATM    3  C1  UNL     1      -2.305   2.676  69.702  1.00  0.00     0.152 C 
HETATM    4  N2  UNL     1      -1.271   3.381  68.946  1.00  0.00    -0.224 N 
HETATM    5  O1  UNL     1      -1.901   4.260  68.149  1.00  0.00    -0.155 OA
ATOM      6  H2  UNL     1      -0.265   3.233  69.010  1.00  0.00     0.198 HD
HETATM    7  N3  UNL     1      -3.006   3.571  67.758  1.00  0.00    -0.236 N 
ATOM      8  H3  UNL     1      -3.422   3.589  66.826  1.00  0.00     0.197 HD
BRANCH   3   9
HETATM    9  N1  UNL     1      -2.097   2.119  70.821  1.00  0.00    -0.382 N 
ATOM     10  H12 UNL     1      -1.228   1.898  71.307  1.00  0.00     0.157 HD
ATOM     11  H11 UNL     1      -2.842   1.780  71.429  1.00  0.00     0.157 HD
ENDBRANCH   3   9
ENDBRANCH   1   2
BRANCH   1  12
HETATM   12  C4  UNL     1      -5.698   3.084  67.981  1.00  0.00     0.103 C 
BRANCH  12  13
HETATM   13  C5  UNL     1      -6.889   2.217  67.887  1.00  0.00     0.287 C 
BRANCH  13  14
HETATM   14  N4  UNL     1      -8.160   2.767  68.184  1.00  0.00    -0.066 N 
ATOM     15  H43 UNL     1      -8.042   3.525  68.856  1.00  0.00     0.275 HD
ATOM     16  H42 UNL     1      -8.496   3.278  67.367  1.00  0.00     0.275 HD
ATOM     17  H41 UNL     1      -8.900   2.147  68.512  1.00  0.00     0.275 HD
ENDBRANCH  13  14
BRANCH  13  18
HETATM   18  C6  UNL     1      -6.952   1.628  66.487  1.00  0.00     0.290 C 
HETATM   19  O2  UNL     1      -6.898   0.399  66.367  1.00  0.00    -0.263 OA
BRANCH  18  20
HETATM   20  O3  UNL     1      -7.064   2.493  65.424  1.00  0.00    -0.317 OA
BRANCH  20  21
HETATM   21  C7  UNL     1      -7.968   2.277  64.384  1.00  0.00     0.212 C 
BRANCH  21  22
HETATM   22  C8  UNL     1      -8.805   3.503  64.154  1.00  0.00     0.166 C 
BRANCH  22  23
HETATM   23  O4  UNL     1      -8.443   4.049  62.921  1.00  0.00    -0.391 OA
ATOM     24  H4  UNL     1      -9.154   4.607  62.627  1.00  0.00     0.210 HD
ENDBRANCH  22  23
BRANCH  22  25
HETATM   25  C9  UNL     1      -8.451   4.519  65.237  1.00  0.00     0.198 C 
BRANCH  25  26
HETATM   26  O5  UNL     1      -7.272   5.156  64.925  1.00  0.00    -0.398 OA
ATOM     27  H5  UNL     1      -7.445   5.926  64.396  1.00  0.00     0.209 HD
ENDBRANCH  25  26
ENDBRANCH  22  25
ENDBRANCH  21  22
ENDBRANCH  20  21
ENDBRANCH  18  20
ENDBRANCH  13  18
ENDBRANCH  12  13
ENDBRANCH   1  12
BRANCH   1  28
HETATM   28  N5  UNL     1      -5.455   1.469  69.772  1.00  0.00    -0.328 N 
HETATM   29  C10 UNL     1      -5.453   0.167  70.188  1.00  0.00     0.227 C 
HETATM   30  O6  UNL     1      -4.650  -0.737  69.962  1.00  0.00    -0.273 OA
ATOM     31  H5  UNL     1      -6.280   1.936  70.150  1.00  0.00     0.168 HD
BRANCH  29  32
HETATM   32  C11 UNL     1      -6.640  -0.288  71.093  1.00  0.00     0.162 C 
BRANCH  32  33
HETATM   33  C12 UNL     1      -7.788  -0.577  70.232  1.00  0.00     0.049 A 
HETATM   34  C13 UNL     1      -9.109  -0.393  70.549  1.00  0.00     0.135 A 
HETATM   35  N6  UNL     1      -9.827  -0.792  69.460  1.00  0.00    -0.279 N 
HETATM   36  N10 UNL     1      -8.983  -1.201  68.519  1.00  0.00    -0.020 NA
HETATM   37  N11 UNL     1      -7.754  -1.070  68.988  1.00  0.00    -0.286 N 
ATOM     38  H11 UNL     1      -6.904  -1.309  68.477  1.00  0.00     0.184 HD
BRANCH  35  39
HETATM   39  C14 UNL     1     -11.282  -0.752  69.393  1.00  0.00     0.203 C 
BRANCH  39  40
HETATM   40  C15 UNL     1     -11.844  -2.132  69.346  1.00  0.00     0.051 A 
HETATM   41  C16 UNL     1     -12.857  -2.443  68.440  1.00  0.00     0.102 A 
HETATM   42  C17 UNL     1     -13.337  -3.718  68.437  1.00  0.00     0.261 A 
HETATM   43  O7  UNL     1     -14.249  -4.018  67.629  1.00  0.00    -0.268 OA
HETATM   44  N7  UNL     1     -12.865  -4.660  69.269  1.00  0.00    -0.156 N 
HETATM   45  C18 UNL     1     -11.889  -4.343  70.135  1.00  0.00     0.679 A 
ATOM     46  H7  UNL     1     -13.244  -5.607  69.245  1.00  0.00     0.187 HD
HETATM   47  N9  UNL     1     -11.382  -3.089  70.174  1.00  0.00    -0.194 N 
ATOM     48  H9  UNL     1     -10.641  -2.866  70.839  1.00  0.00     0.184 HD
BRANCH  45  49
HETATM   49  N8  UNL     1     -11.398  -5.223  70.963  1.00  0.00    -0.234 N 
ATOM     50  H82 UNL     1     -11.919  -5.412  71.821  1.00  0.00     0.174 HD
ATOM     51  H81 UNL     1     -10.525  -5.712  70.767  1.00  0.00     0.174 HD
ENDBRANCH  45  49
ENDBRANCH  39  40
ENDBRANCH  35  39
ENDBRANCH  32  33
ENDBRANCH  29  32
ENDBRANCH   1  28
TORSDOF 18
ENDMDL
