MODEL 1
REMARK VINA RESULT: -6.062465613      0.000      0.000
REMARK  19 active torsions:
REMARK  status: ('A' for Active; 'I' for Inactive)
REMARK    1  A    between atoms: O1_2  and  C2_3 
REMARK    2  A    between atoms: C3_4  and  N1_5 
REMARK    3  A    between atoms: C5_10  and  N2_11 
REMARK    4  A    between atoms: C6_15  and  O2_16 
REMARK    5  A    between atoms: O2_16  and  C7_17 
REMARK    6  A    between atoms: C8_19  and  C9_20 
REMARK    7  A    between atoms: C9_20  and  N3_21 
REMARK       I    between atoms: N3_21  and  C10_22 
REMARK    8  A    between atoms: C10_22  and  C11_24 
REMARK    9  A    between atoms: C11_24  and  C12_25 
REMARK   10  A    between atoms: C12_25  and  C13_26 
REMARK   11  A    between atoms: C13_26  and  C14_27 
REMARK   12  A    between atoms: C14_27  and  C15_28 
REMARK   13  A    between atoms: C15_28  and  N4_29 
REMARK   14  A    between atoms: C16_33  and  N5_34 
REMARK   15  A    between atoms: C18_39  and  N6_40 
REMARK   16  A    between atoms: C19_44  and  O5_45 
REMARK   17  A    between atoms: C20_47  and  N7_48 
REMARK   18  A    between atoms: C21_52  and  O6_53 
REMARK   19  A    between atoms: O6_53  and  N8_54 
ROOT
HETATM    1  C7  UNL     1      -9.193   1.754  66.806  1.00  0.00     0.292 C 
HETATM    2  O3  UNL     1      -9.129   3.113  66.637  1.00  0.00    -0.345 OA
HETATM    3  C8  UNL     1      -9.963   3.669  65.671  1.00  0.00     0.207 C 
HETATM    4  C16 UNL     1      -9.161   3.850  64.442  1.00  0.00     0.220 C 
HETATM    5  C17 UNL     1      -8.941   2.584  63.635  1.00  0.00     0.071 C 
HETATM    6  C18 UNL     1      -8.577   1.382  64.421  1.00  0.00     0.219 C 
HETATM    7  C19 UNL     1      -9.526   1.034  65.528  1.00  0.00     0.203 C 
ENDROOT
BRANCH   1   8
HETATM    8  O2  UNL     1      -7.914   1.398  67.292  1.00  0.00    -0.349 OA
BRANCH   8   9
HETATM    9  C6  UNL     1      -7.880   1.300  68.694  1.00  0.00     0.188 C 
HETATM   10  C5  UNL     1      -9.030   0.460  69.122  1.00  0.00     0.216 C 
HETATM   11  C4  UNL     1      -9.358   0.561  70.575  1.00  0.00     0.071 C 
HETATM   12  C3  UNL     1      -8.332  -0.024  71.497  1.00  0.00     0.217 C 
HETATM   13  C2  UNL     1      -7.115   0.842  71.487  1.00  0.00     0.184 C 
HETATM   14  C21 UNL     1      -6.130   0.602  70.409  1.00  0.00     0.215 C 
HETATM   15  C20 UNL     1      -6.523   0.719  69.012  1.00  0.00     0.248 C 
BRANCH  10  16
HETATM   16  N2  UNL     1      -8.842  -0.918  68.691  1.00  0.00    -0.072 N 
ATOM     17  H23 UNL     1      -9.629  -1.503  68.974  1.00  0.00     0.274 HD
ATOM     18  H22 UNL     1      -8.932  -1.003  67.679  1.00  0.00     0.274 HD
ATOM     19  H21 UNL     1      -7.957  -1.308  69.017  1.00  0.00     0.274 HD
ENDBRANCH  10  16
BRANCH  12  20
HETATM   20  N1  UNL     1      -8.123  -1.394  71.167  1.00  0.00    -0.072 N 
ATOM     21  H13 UNL     1      -8.356  -1.554  70.187  1.00  0.00     0.274 HD
ATOM     22  H12 UNL     1      -7.123  -1.598  71.152  1.00  0.00     0.274 HD
ATOM     23  H11 UNL     1      -8.606  -2.073  71.754  1.00  0.00     0.274 HD
ENDBRANCH  12  20
BRANCH  13  24
HETATM   24  O1  UNL     1      -6.481   0.801  72.756  1.00  0.00    -0.386 OA
HETATM   25  C1  UNL     1      -6.933   1.735  73.637  1.00  0.00     0.202 C 
ENDBRANCH  13  24
BRANCH  14  26
HETATM   26  O6  UNL     1      -5.080   1.531  70.650  1.00  0.00    -0.277 OA
BRANCH  26  27
HETATM   27  N8  UNL     1      -3.943   0.951  71.017  1.00  0.00    -0.311 N 
ATOM     28  H82 UNL     1      -3.909   0.015  71.419  1.00  0.00     0.184 HD
ATOM     29  H81 UNL     1      -3.122   1.536  70.856  1.00  0.00     0.184 HD
ENDBRANCH  26  27
ENDBRANCH  14  26
BRANCH  15  30
HETATM   30  N7  UNL     1      -6.319  -0.577  68.341  1.00  0.00    -0.070 N 
ATOM     31  H73 UNL     1      -6.706  -0.573  67.397  1.00  0.00     0.274 HD
ATOM     32  H72 UNL     1      -5.337  -0.727  68.110  1.00  0.00     0.274 HD
ATOM     33  H71 UNL     1      -6.694  -1.347  68.894  1.00  0.00     0.274 HD
ENDBRANCH  15  30
ENDBRANCH   8   9
ENDBRANCH   1   8
BRANCH   7  34
HETATM   34  O5  UNL     1      -9.481  -0.368  65.681  1.00  0.00    -0.389 OA
ATOM     35  H5  UNL     1      -9.643  -0.822  64.862  1.00  0.00     0.210 HD
ENDBRANCH   7  34
BRANCH   3  36
HETATM   36  C9  UNL     1     -10.351   5.047  66.250  1.00  0.00     0.193 C 
BRANCH  36  37
HETATM   37  N3  UNL     1      -9.449   5.700  67.031  1.00  0.00    -0.385 NA
HETATM   38  C10 UNL     1      -8.539   6.359  67.819  1.00  0.00     0.290 C 
HETATM   39  O4  UNL     1      -8.390   7.602  67.929  1.00  0.00    -0.257 OA
BRANCH  38  40
HETATM   40  C11 UNL     1      -7.570   5.566  68.678  1.00  0.00     0.119 C 
BRANCH  40  41
HETATM   41  C12 UNL     1      -6.486   4.925  67.879  1.00  0.00     0.010 C 
BRANCH  41  42
HETATM   42  C13 UNL     1      -5.392   4.290  68.675  1.00  0.00     0.002 C 
BRANCH  42  43
HETATM   43  C14 UNL     1      -4.412   3.547  67.760  1.00  0.00     0.027 C 
BRANCH  43  44
HETATM   44  C15 UNL     1      -3.063   3.411  68.474  1.00  0.00     0.229 C 
BRANCH  44  45
HETATM   45  N4  UNL     1      -1.980   3.764  67.594  1.00  0.00    -0.079 N 
ATOM     46  H43 UNL     1      -2.010   4.751  67.337  1.00  0.00     0.274 HD
ATOM     47  H42 UNL     1      -1.082   3.758  68.079  1.00  0.00     0.274 HD
ATOM     48  H41 UNL     1      -1.968   3.160  66.771  1.00  0.00     0.274 HD
ENDBRANCH  44  45
ENDBRANCH  43  44
ENDBRANCH  42  43
ENDBRANCH  41  42
ENDBRANCH  40  41
ENDBRANCH  38  40
ENDBRANCH  36  37
ENDBRANCH   3  36
BRANCH   6  49
HETATM   49  N6  UNL     1      -7.228   1.392  64.926  1.00  0.00    -0.072 N 
ATOM     50  H63 UNL     1      -6.624   1.944  64.318  1.00  0.00     0.274 HD
ATOM     51  H62 UNL     1      -7.171   1.949  65.779  1.00  0.00     0.274 HD
ATOM     52  H61 UNL     1      -6.831   0.466  65.077  1.00  0.00     0.274 HD
ENDBRANCH   6  49
BRANCH   4  53
HETATM   53  N5  UNL     1      -7.920   4.509  64.741  1.00  0.00    -0.072 N 
ATOM     54  H53 UNL     1      -7.771   5.326  64.147  1.00  0.00     0.274 HD
ATOM     55  H52 UNL     1      -7.951   4.982  65.645  1.00  0.00     0.274 HD
ATOM     56  H51 UNL     1      -7.143   3.852  64.684  1.00  0.00     0.274 HD
ENDBRANCH   4  53
TORSDOF 19
ENDMDL
MODEL 2
REMARK VINA RESULT: -5.988942322      0.922      1.088
REMARK  19 active torsions:
REMARK  status: ('A' for Active; 'I' for Inactive)
REMARK    1  A    between atoms: O1_2  and  C2_3 
REMARK    2  A    between atoms: C3_4  and  N1_5 
REMARK    3  A    between atoms: C5_10  and  N2_11 
REMARK    4  A    between atoms: C6_15  and  O2_16 
REMARK    5  A    between atoms: O2_16  and  C7_17 
REMARK    6  A    between atoms: C8_19  and  C9_20 
REMARK    7  A    between atoms: C9_20  and  N3_21 
REMARK       I    between atoms: N3_21  and  C10_22 
REMARK    8  A    between atoms: C10_22  and  C11_24 
REMARK    9  A    between atoms: C11_24  and  C12_25 
REMARK   10  A    between atoms: C12_25  and  C13_26 
REMARK   11  A    between atoms: C13_26  and  C14_27 
REMARK   12  A    between atoms: C14_27  and  C15_28 
REMARK   13  A    between atoms: C15_28  and  N4_29 
REMARK   14  A    between atoms: C16_33  and  N5_34 
REMARK   15  A    between atoms: C18_39  and  N6_40 
REMARK   16  A    between atoms: C19_44  and  O5_45 
REMARK   17  A    between atoms: C20_47  and  N7_48 
REMARK   18  A    between atoms: C21_52  and  O6_53 
REMARK   19  A    between atoms: O6_53  and  N8_54 
ROOT
HETATM    1  C7  UNL     1      -8.703   1.529  66.977  1.00  0.00     0.292 C 
HETATM    2  O3  UNL     1      -8.285   2.830  66.854  1.00  0.00    -0.345 OA
HETATM    3  C8  UNL     1      -8.924   3.611  65.897  1.00  0.00     0.207 C 
HETATM    4  C16 UNL     1      -8.076   3.612  64.685  1.00  0.00     0.220 C 
HETATM    5  C17 UNL     1      -8.175   2.357  63.839  1.00  0.00     0.071 C 
HETATM    6  C18 UNL     1      -8.154   1.079  64.589  1.00  0.00     0.219 C 
HETATM    7  C19 UNL     1      -9.184   0.959  65.671  1.00  0.00     0.203 C 
ENDROOT
BRANCH   1   8
HETATM    8  O2  UNL     1      -7.572   0.839  67.467  1.00  0.00    -0.349 OA
BRANCH   8   9
HETATM    9  C6  UNL     1      -7.551   0.772  68.872  1.00  0.00     0.188 C 
HETATM   10  C5  UNL     1      -8.799   0.097  69.316  1.00  0.00     0.216 C 
HETATM   11  C4  UNL     1      -9.110   0.275  70.766  1.00  0.00     0.071 C 
HETATM   12  C3  UNL     1      -8.168  -0.414  71.705  1.00  0.00     0.217 C 
HETATM   13  C2  UNL     1      -6.850   0.289  71.678  1.00  0.00     0.184 C 
HETATM   14  C21 UNL     1      -5.904  -0.102  70.608  1.00  0.00     0.215 C 
HETATM   15  C20 UNL     1      -6.279   0.030  69.208  1.00  0.00     0.248 C 
BRANCH  10  16
HETATM   16  N2  UNL     1      -8.789  -1.304  68.920  1.00  0.00    -0.072 N 
ATOM     17  H23 UNL     1      -7.836  -1.637  68.766  1.00  0.00     0.274 HD
ATOM     18  H22 UNL     1      -9.048  -1.909  69.700  1.00  0.00     0.274 HD
ATOM     19  H21 UNL     1      -9.377  -1.480  68.106  1.00  0.00     0.274 HD
ENDBRANCH  10  16
BRANCH  12  20
HETATM   20  N1  UNL     1      -8.135  -1.807  71.409  1.00  0.00    -0.072 N 
ATOM     21  H13 UNL     1      -9.039  -2.105  71.040  1.00  0.00     0.274 HD
ATOM     22  H12 UNL     1      -7.543  -1.975  70.596  1.00  0.00     0.274 HD
ATOM     23  H11 UNL     1      -7.855  -2.419  72.175  1.00  0.00     0.274 HD
ENDBRANCH  12  20
BRANCH  13  24
HETATM   24  O1  UNL     1      -6.226   0.198  72.949  1.00  0.00    -0.386 OA
HETATM   25  C1  UNL     1      -6.598   1.172  73.824  1.00  0.00     0.202 C 
ENDBRANCH  13  24
BRANCH  14  26
HETATM   26  O6  UNL     1      -4.743   0.691  70.829  1.00  0.00    -0.277 OA
BRANCH  26  27
HETATM   27  N8  UNL     1      -3.772   0.033  71.453  1.00  0.00    -0.311 N 
ATOM     28  H82 UNL     1      -3.181  -0.650  70.980  1.00  0.00     0.184 HD
ATOM     29  H81 UNL     1      -3.685   0.283  72.438  1.00  0.00     0.184 HD
ENDBRANCH  26  27
ENDBRANCH  14  26
BRANCH  15  30
HETATM   30  N7  UNL     1      -6.243  -1.297  68.569  1.00  0.00    -0.070 N 
ATOM     31  H73 UNL     1      -5.987  -1.231  67.584  1.00  0.00     0.274 HD
ATOM     32  H72 UNL     1      -5.452  -1.850  68.902  1.00  0.00     0.274 HD
ATOM     33  H71 UNL     1      -7.124  -1.795  68.693  1.00  0.00     0.274 HD
ENDBRANCH  15  30
ENDBRANCH   8   9
ENDBRANCH   1   8
BRANCH   7  34
HETATM   34  O5  UNL     1      -9.509  -0.410  65.777  1.00  0.00    -0.389 OA
ATOM     35  H5  UNL     1      -9.411  -0.866  64.949  1.00  0.00     0.210 HD
ENDBRANCH   7  34
BRANCH   3  36
HETATM   36  C9  UNL     1      -8.953   5.025  66.517  1.00  0.00     0.193 C 
BRANCH  36  37
HETATM   37  N3  UNL     1      -8.122   5.294  67.559  1.00  0.00    -0.385 NA
HETATM   38  C10 UNL     1      -7.283   5.563  68.612  1.00  0.00     0.290 C 
HETATM   39  O4  UNL     1      -7.589   6.092  69.709  1.00  0.00    -0.257 OA
BRANCH  38  40
HETATM   40  C11 UNL     1      -5.807   5.217  68.510  1.00  0.00     0.119 C 
BRANCH  40  41
HETATM   41  C12 UNL     1      -5.564   3.747  68.470  1.00  0.00     0.010 C 
BRANCH  41  42
HETATM   42  C13 UNL     1      -4.185   3.335  68.066  1.00  0.00     0.002 C 
BRANCH  42  43
HETATM   43  C14 UNL     1      -3.258   3.263  69.285  1.00  0.00     0.027 C 
BRANCH  43  44
HETATM   44  C15 UNL     1      -1.801   3.299  68.811  1.00  0.00     0.229 C 
BRANCH  44  45
HETATM   45  N4  UNL     1      -1.707   3.847  67.484  1.00  0.00    -0.079 N 
ATOM     46  H43 UNL     1      -1.082   3.298  66.893  1.00  0.00     0.274 HD
ATOM     47  H42 UNL     1      -2.572   3.713  66.959  1.00  0.00     0.274 HD
ATOM     48  H41 UNL     1      -1.432   4.829  67.514  1.00  0.00     0.274 HD
ENDBRANCH  44  45
ENDBRANCH  43  44
ENDBRANCH  42  43
ENDBRANCH  41  42
ENDBRANCH  40  41
ENDBRANCH  38  40
ENDBRANCH  36  37
ENDBRANCH   3  36
BRANCH   6  49
HETATM   49  N6  UNL     1      -6.860   0.723  65.112  1.00  0.00    -0.072 N 
ATOM     50  H63 UNL     1      -6.162   0.724  64.369  1.00  0.00     0.274 HD
ATOM     51  H62 UNL     1      -6.492   1.474  65.696  1.00  0.00     0.274 HD
ATOM     52  H61 UNL     1      -6.842  -0.163  65.617  1.00  0.00     0.274 HD
ENDBRANCH   6  49
BRANCH   4  53
HETATM   53  N5  UNL     1      -6.713   3.917  65.023  1.00  0.00    -0.072 N 
ATOM     54  H53 UNL     1      -6.596   4.897  65.282  1.00  0.00     0.274 HD
ATOM     55  H52 UNL     1      -6.438   3.491  65.909  1.00  0.00     0.274 HD
ATOM     56  H51 UNL     1      -6.087   3.648  64.264  1.00  0.00     0.274 HD
ENDBRANCH   4  53
TORSDOF 19
ENDMDL
MODEL 3
REMARK VINA RESULT: -5.815095834      2.361      7.127
REMARK  19 active torsions:
REMARK  status: ('A' for Active; 'I' for Inactive)
REMARK    1  A    between atoms: O1_2  and  C2_3 
REMARK    2  A    between atoms: C3_4  and  N1_5 
REMARK    3  A    between atoms: C5_10  and  N2_11 
REMARK    4  A    between atoms: C6_15  and  O2_16 
REMARK    5  A    between atoms: O2_16  and  C7_17 
REMARK    6  A    between atoms: C8_19  and  C9_20 
REMARK    7  A    between atoms: C9_20  and  N3_21 
REMARK       I    between atoms: N3_21  and  C10_22 
REMARK    8  A    between atoms: C10_22  and  C11_24 
REMARK    9  A    between atoms: C11_24  and  C12_25 
REMARK   10  A    between atoms: C12_25  and  C13_26 
REMARK   11  A    between atoms: C13_26  and  C14_27 
REMARK   12  A    between atoms: C14_27  and  C15_28 
REMARK   13  A    between atoms: C15_28  and  N4_29 
REMARK   14  A    between atoms: C16_33  and  N5_34 
REMARK   15  A    between atoms: C18_39  and  N6_40 
REMARK   16  A    between atoms: C19_44  and  O5_45 
REMARK   17  A    between atoms: C20_47  and  N7_48 
REMARK   18  A    between atoms: C21_52  and  O6_53 
REMARK   19  A    between atoms: O6_53  and  N8_54 
ROOT
HETATM    1  C7  UNL     1      -6.546   1.689  70.761  1.00  0.00     0.292 C 
HETATM    2  O3  UNL     1      -7.432   0.827  70.166  1.00  0.00    -0.345 OA
HETATM    3  C8  UNL     1      -7.771  -0.320  70.877  1.00  0.00     0.207 C 
HETATM    4  C16 UNL     1      -6.926  -1.424  70.369  1.00  0.00     0.220 C 
HETATM    5  C17 UNL     1      -5.502  -1.426  70.892  1.00  0.00     0.071 C 
HETATM    6  C18 UNL     1      -4.826  -0.108  70.909  1.00  0.00     0.219 C 
HETATM    7  C19 UNL     1      -5.559   0.974  71.643  1.00  0.00     0.203 C 
ENDROOT
BRANCH   1   8
HETATM    8  O2  UNL     1      -5.910   2.342  69.681  1.00  0.00    -0.349 OA
BRANCH   8   9
HETATM    9  C6  UNL     1      -6.784   2.576  68.605  1.00  0.00     0.188 C 
HETATM   10  C5  UNL     1      -7.501   3.852  68.866  1.00  0.00     0.216 C 
HETATM   11  C4  UNL     1      -8.717   4.057  68.024  1.00  0.00     0.071 C 
HETATM   12  C3  UNL     1      -8.448   4.277  66.567  1.00  0.00     0.217 C 
HETATM   13  C2  UNL     1      -7.975   2.997  65.958  1.00  0.00     0.184 C 
HETATM   14  C21 UNL     1      -6.531   2.694  66.073  1.00  0.00     0.215 C 
HETATM   15  C20 UNL     1      -5.900   2.589  67.381  1.00  0.00     0.248 C 
BRANCH  10  16
HETATM   16  N2  UNL     1      -6.581   4.978  68.793  1.00  0.00    -0.072 N 
ATOM     17  H23 UNL     1      -5.677   4.691  68.415  1.00  0.00     0.274 HD
ATOM     18  H22 UNL     1      -6.861   5.635  68.065  1.00  0.00     0.274 HD
ATOM     19  H21 UNL     1      -6.472   5.448  69.691  1.00  0.00     0.274 HD
ENDBRANCH  10  16
BRANCH  12  20
HETATM   20  N1  UNL     1      -7.583   5.397  66.407  1.00  0.00    -0.072 N 
ATOM     21  H13 UNL     1      -7.220   5.423  65.454  1.00  0.00     0.274 HD
ATOM     22  H12 UNL     1      -8.128   6.260  66.417  1.00  0.00     0.274 HD
ATOM     23  H11 UNL     1      -6.814   5.465  67.074  1.00  0.00     0.274 HD
ENDBRANCH  12  20
BRANCH  13  24
HETATM   24  O1  UNL     1      -8.392   2.921  64.604  1.00  0.00    -0.386 OA
HETATM   25  C1  UNL     1      -9.740   2.829  64.440  1.00  0.00     0.202 C 
ENDBRANCH  13  24
BRANCH  14  26
HETATM   26  O6  UNL     1      -6.355   1.453  65.399  1.00  0.00    -0.277 OA
BRANCH  26  27
HETATM   27  N8  UNL     1      -7.219   0.521  65.786  1.00  0.00    -0.311 N 
ATOM     28  H82 UNL     1      -7.365  -0.343  65.264  1.00  0.00     0.184 HD
ATOM     29  H81 UNL     1      -7.711   0.761  66.647  1.00  0.00     0.184 HD
ENDBRANCH  26  27
ENDBRANCH  14  26
BRANCH  15  30
HETATM   30  N7  UNL     1      -4.840   3.607  67.491  1.00  0.00    -0.070 N 
ATOM     31  H73 UNL     1      -4.796   4.192  66.656  1.00  0.00     0.274 HD
ATOM     32  H72 UNL     1      -5.083   4.325  68.174  1.00  0.00     0.274 HD
ATOM     33  H71 UNL     1      -3.936   3.184  67.699  1.00  0.00     0.274 HD
ENDBRANCH  15  30
ENDBRANCH   8   9
ENDBRANCH   1   8
BRANCH   7  34
HETATM   34  O5  UNL     1      -4.583   1.850  72.164  1.00  0.00    -0.389 OA
ATOM     35  H5  UNL     1      -4.846   2.221  72.999  1.00  0.00     0.210 HD
ENDBRANCH   7  34
BRANCH   3  36
HETATM   36  C9  UNL     1      -9.247  -0.577  70.505  1.00  0.00     0.193 C 
BRANCH  36  37
HETATM   37  N3  UNL     1      -9.645  -0.341  69.226  1.00  0.00    -0.385 NA
HETATM   38  C10 UNL     1     -10.047  -0.102  67.936  1.00  0.00     0.290 C 
HETATM   39  O4  UNL     1      -9.582  -0.617  66.888  1.00  0.00    -0.257 OA
BRANCH  38  40
HETATM   40  C11 UNL     1     -11.170   0.884  67.664  1.00  0.00     0.119 C 
BRANCH  40  41
HETATM   41  C12 UNL     1     -12.297   0.750  68.631  1.00  0.00     0.010 C 
BRANCH  41  42
HETATM   42  C13 UNL     1     -13.261  -0.357  68.344  1.00  0.00     0.002 C 
BRANCH  42  43
HETATM   43  C14 UNL     1     -13.134  -1.475  69.385  1.00  0.00     0.027 C 
BRANCH  43  44
HETATM   44  C15 UNL     1     -12.696  -2.766  68.686  1.00  0.00     0.229 C 
BRANCH  44  45
HETATM   45  N4  UNL     1     -11.370  -3.146  69.097  1.00  0.00    -0.079 N 
ATOM     46  H43 UNL     1     -10.933  -3.777  68.424  1.00  0.00     0.274 HD
ATOM     47  H42 UNL     1     -10.715  -2.368  69.027  1.00  0.00     0.274 HD
ATOM     48  H41 UNL     1     -11.382  -3.547  70.036  1.00  0.00     0.274 HD
ENDBRANCH  44  45
ENDBRANCH  43  44
ENDBRANCH  42  43
ENDBRANCH  41  42
ENDBRANCH  40  41
ENDBRANCH  38  40
ENDBRANCH  36  37
ENDBRANCH   3  36
BRANCH   6  49
HETATM   49  N6  UNL     1      -4.435   0.371  69.607  1.00  0.00    -0.072 N 
ATOM     50  H63 UNL     1      -3.854  -0.319  69.133  1.00  0.00     0.274 HD
ATOM     51  H62 UNL     1      -5.236   0.386  68.977  1.00  0.00     0.274 HD
ATOM     52  H61 UNL     1      -3.972   1.280  69.618  1.00  0.00     0.274 HD
ENDBRANCH   6  49
BRANCH   4  53
HETATM   53  N5  UNL     1      -6.963  -1.468  68.934  1.00  0.00    -0.072 N 
ATOM     54  H53 UNL     1      -7.919  -1.529  68.581  1.00  0.00     0.274 HD
ATOM     55  H52 UNL     1      -6.705  -0.571  68.520  1.00  0.00     0.274 HD
ATOM     56  H51 UNL     1      -6.380  -2.228  68.584  1.00  0.00     0.274 HD
ENDBRANCH   4  53
TORSDOF 19
ENDMDL
MODEL 4
REMARK VINA RESULT: -5.793989836      1.783      2.815
REMARK  19 active torsions:
REMARK  status: ('A' for Active; 'I' for Inactive)
REMARK    1  A    between atoms: O1_2  and  C2_3 
REMARK    2  A    between atoms: C3_4  and  N1_5 
REMARK    3  A    between atoms: C5_10  and  N2_11 
REMARK    4  A    between atoms: C6_15  and  O2_16 
REMARK    5  A    between atoms: O2_16  and  C7_17 
REMARK    6  A    between atoms: C8_19  and  C9_20 
REMARK    7  A    between atoms: C9_20  and  N3_21 
REMARK       I    between atoms: N3_21  and  C10_22 
REMARK    8  A    between atoms: C10_22  and  C11_24 
REMARK    9  A    between atoms: C11_24  and  C12_25 
REMARK   10  A    between atoms: C12_25  and  C13_26 
REMARK   11  A    between atoms: C13_26  and  C14_27 
REMARK   12  A    between atoms: C14_27  and  C15_28 
REMARK   13  A    between atoms: C15_28  and  N4_29 
REMARK   14  A    between atoms: C16_33  and  N5_34 
REMARK   15  A    between atoms: C18_39  and  N6_40 
REMARK   16  A    between atoms: C19_44  and  O5_45 
REMARK   17  A    between atoms: C20_47  and  N7_48 
REMARK   18  A    between atoms: C21_52  and  O6_53 
REMARK   19  A    between atoms: O6_53  and  N8_54 
ROOT
HETATM    1  C7  UNL     1      -8.527   1.619  67.160  1.00  0.00     0.292 C 
HETATM    2  O3  UNL     1      -7.984   2.847  66.880  1.00  0.00    -0.345 OA
HETATM    3  C8  UNL     1      -8.626   3.616  65.915  1.00  0.00     0.207 C 
HETATM    4  C16 UNL     1      -7.906   3.418  64.638  1.00  0.00     0.220 C 
HETATM    5  C17 UNL     1      -8.223   2.117  63.925  1.00  0.00     0.071 C 
HETATM    6  C18 UNL     1      -8.268   0.912  64.786  1.00  0.00     0.219 C 
HETATM    7  C19 UNL     1      -9.193   1.003  65.961  1.00  0.00     0.203 C 
ENDROOT
BRANCH   1   8
HETATM    8  O2  UNL     1      -7.435   0.844  67.611  1.00  0.00    -0.349 OA
BRANCH   8   9
HETATM    9  C6  UNL     1      -7.379   0.761  69.014  1.00  0.00     0.188 C 
HETATM   10  C5  UNL     1      -8.634   0.116  69.484  1.00  0.00     0.216 C 
HETATM   11  C4  UNL     1      -8.902   0.286  70.943  1.00  0.00     0.071 C 
HETATM   12  C3  UNL     1      -7.956  -0.441  71.849  1.00  0.00     0.217 C 
HETATM   13  C2  UNL     1      -6.619   0.224  71.795  1.00  0.00     0.184 C 
HETATM   14  C21 UNL     1      -5.713  -0.181  70.696  1.00  0.00     0.215 C 
HETATM   15  C20 UNL     1      -6.120  -0.022  69.308  1.00  0.00     0.248 C 
BRANCH  10  16
HETATM   16  N2  UNL     1      -8.675  -1.280  69.072  1.00  0.00    -0.072 N 
ATOM     17  H23 UNL     1      -8.224  -1.881  69.763  1.00  0.00     0.274 HD
ATOM     18  H22 UNL     1      -9.623  -1.652  69.126  1.00  0.00     0.274 HD
ATOM     19  H21 UNL     1      -8.276  -1.422  68.144  1.00  0.00     0.274 HD
ENDBRANCH  10  16
BRANCH  12  20
HETATM   20  N1  UNL     1      -7.971  -1.831  71.537  1.00  0.00    -0.072 N 
ATOM     21  H13 UNL     1      -7.203  -2.053  70.904  1.00  0.00     0.274 HD
ATOM     22  H12 UNL     1      -7.696  -2.374  72.356  1.00  0.00     0.274 HD
ATOM     23  H11 UNL     1      -8.847  -2.192  71.159  1.00  0.00     0.274 HD
ENDBRANCH  12  20
BRANCH  13  24
HETATM   24  O1  UNL     1      -5.965   0.100  73.048  1.00  0.00    -0.386 OA
HETATM   25  C1  UNL     1      -6.270   1.085  73.936  1.00  0.00     0.202 C 
ENDBRANCH  13  24
BRANCH  14  26
HETATM   26  O6  UNL     1      -4.524   0.575  70.895  1.00  0.00    -0.277 OA
BRANCH  26  27
HETATM   27  N8  UNL     1      -3.570  -0.106  71.519  1.00  0.00    -0.311 N 
ATOM     28  H82 UNL     1      -3.325  -1.063  71.267  1.00  0.00     0.184 HD
ATOM     29  H81 UNL     1      -3.117   0.425  72.263  1.00  0.00     0.184 HD
ENDBRANCH  26  27
ENDBRANCH  14  26
BRANCH  15  30
HETATM   30  N7  UNL     1      -6.140  -1.342  68.654  1.00  0.00    -0.070 N 
ATOM     31  H73 UNL     1      -6.400  -2.080  69.309  1.00  0.00     0.274 HD
ATOM     32  H72 UNL     1      -6.923  -1.425  68.005  1.00  0.00     0.274 HD
ATOM     33  H71 UNL     1      -5.252  -1.546  68.196  1.00  0.00     0.274 HD
ENDBRANCH  15  30
ENDBRANCH   8   9
ENDBRANCH   1   8
BRANCH   7  34
HETATM   34  O5  UNL     1      -9.653  -0.305  66.223  1.00  0.00    -0.389 OA
ATOM     35  H5  UNL     1      -9.678  -0.495  67.154  1.00  0.00     0.210 HD
ENDBRANCH   7  34
BRANCH   3  36
HETATM   36  C9  UNL     1      -8.440   5.070  66.400  1.00  0.00     0.193 C 
BRANCH  36  37
HETATM   37  N3  UNL     1      -7.773   5.285  67.566  1.00  0.00    -0.385 NA
HETATM   38  C10 UNL     1      -7.101   5.503  68.742  1.00  0.00     0.290 C 
HETATM   39  O4  UNL     1      -5.857   5.575  68.903  1.00  0.00    -0.257 OA
BRANCH  38  40
HETATM   40  C11 UNL     1      -7.879   5.682  70.035  1.00  0.00     0.119 C 
BRANCH  40  41
HETATM   41  C12 UNL     1      -9.350   5.773  69.812  1.00  0.00     0.010 C 
BRANCH  41  42
HETATM   42  C13 UNL     1      -9.934   7.144  69.934  1.00  0.00     0.002 C 
BRANCH  42  43
HETATM   43  C14 UNL     1     -10.348   7.686  68.561  1.00  0.00     0.027 C 
BRANCH  43  44
HETATM   44  C15 UNL     1      -9.384   8.804  68.150  1.00  0.00     0.229 C 
BRANCH  44  45
HETATM   45  N4  UNL     1      -8.598   8.409  67.011  1.00  0.00    -0.079 N 
ATOM     46  H43 UNL     1      -8.466   7.398  66.976  1.00  0.00     0.274 HD
ATOM     47  H42 UNL     1      -9.113   8.527  66.138  1.00  0.00     0.274 HD
ATOM     48  H41 UNL     1      -7.708   8.907  66.994  1.00  0.00     0.274 HD
ENDBRANCH  44  45
ENDBRANCH  43  44
ENDBRANCH  42  43
ENDBRANCH  41  42
ENDBRANCH  40  41
ENDBRANCH  38  40
ENDBRANCH  36  37
ENDBRANCH   3  36
BRANCH   6  49
HETATM   49  N6  UNL     1      -6.975   0.452  65.223  1.00  0.00    -0.072 N 
ATOM     50  H63 UNL     1      -7.001  -0.548  65.423  1.00  0.00     0.274 HD
ATOM     51  H62 UNL     1      -6.313   0.457  64.448  1.00  0.00     0.274 HD
ATOM     52  H61 UNL     1      -6.596   0.964  66.019  1.00  0.00     0.274 HD
ENDBRANCH   6  49
BRANCH   4  53
HETATM   53  N5  UNL     1      -6.491   3.588  64.824  1.00  0.00    -0.072 N 
ATOM     54  H53 UNL     1      -6.086   2.826  65.369  1.00  0.00     0.274 HD
ATOM     55  H52 UNL     1      -5.975   3.445  63.956  1.00  0.00     0.274 HD
ATOM     56  H51 UNL     1      -6.292   4.498  65.239  1.00  0.00     0.274 HD
ENDBRANCH   4  53
TORSDOF 19
ENDMDL
MODEL 5
REMARK VINA RESULT: -5.753699637      1.730      2.843
REMARK  19 active torsions:
REMARK  status: ('A' for Active; 'I' for Inactive)
REMARK    1  A    between atoms: O1_2  and  C2_3 
REMARK    2  A    between atoms: C3_4  and  N1_5 
REMARK    3  A    between atoms: C5_10  and  N2_11 
REMARK    4  A    between atoms: C6_15  and  O2_16 
REMARK    5  A    between atoms: O2_16  and  C7_17 
REMARK    6  A    between atoms: C8_19  and  C9_20 
REMARK    7  A    between atoms: C9_20  and  N3_21 
REMARK       I    between atoms: N3_21  and  C10_22 
REMARK    8  A    between atoms: C10_22  and  C11_24 
REMARK    9  A    between atoms: C11_24  and  C12_25 
REMARK   10  A    between atoms: C12_25  and  C13_26 
REMARK   11  A    between atoms: C13_26  and  C14_27 
REMARK   12  A    between atoms: C14_27  and  C15_28 
REMARK   13  A    between atoms: C15_28  and  N4_29 
REMARK   14  A    between atoms: C16_33  and  N5_34 
REMARK   15  A    between atoms: C18_39  and  N6_40 
REMARK   16  A    between atoms: C19_44  and  O5_45 
REMARK   17  A    between atoms: C20_47  and  N7_48 
REMARK   18  A    between atoms: C21_52  and  O6_53 
REMARK   19  A    between atoms: O6_53  and  N8_54 
ROOT
HETATM    1  C7  UNL     1      -9.266   2.181  67.138  1.00  0.00     0.292 C 
HETATM    2  O3  UNL     1      -8.150   2.874  66.743  1.00  0.00    -0.345 OA
HETATM    3  C8  UNL     1      -8.302   3.765  65.685  1.00  0.00     0.207 C 
HETATM    4  C16 UNL     1      -7.857   3.075  64.455  1.00  0.00     0.220 C 
HETATM    5  C17 UNL     1      -8.860   2.095  63.877  1.00  0.00     0.071 C 
HETATM    6  C18 UNL     1      -9.524   1.207  64.860  1.00  0.00     0.219 C 
HETATM    7  C19 UNL     1     -10.205   1.911  65.995  1.00  0.00     0.203 C 
ENDROOT
BRANCH   1   8
HETATM    8  O2  UNL     1      -8.759   0.985  67.697  1.00  0.00    -0.349 OA
BRANCH   8   9
HETATM    9  C6  UNL     1      -8.292   1.162  69.011  1.00  0.00     0.188 C 
HETATM   10  C5  UNL     1      -9.115   0.308  69.908  1.00  0.00     0.216 C 
HETATM   11  C4  UNL     1      -9.004   0.653  71.357  1.00  0.00     0.071 C 
HETATM   12  C3  UNL     1      -7.671   0.362  71.976  1.00  0.00     0.217 C 
HETATM   13  C2  UNL     1      -6.663   1.329  71.444  1.00  0.00     0.184 C 
HETATM   14  C21 UNL     1      -6.022   0.987  70.155  1.00  0.00     0.215 C 
HETATM   15  C20 UNL     1      -6.828   0.793  68.958  1.00  0.00     0.248 C 
BRANCH  10  16
HETATM   16  N2  UNL     1      -8.852  -1.101  69.652  1.00  0.00    -0.072 N 
ATOM     17  H23 UNL     1      -8.098  -1.448  70.245  1.00  0.00     0.274 HD
ATOM     18  H22 UNL     1      -9.613  -1.686  69.997  1.00  0.00     0.274 HD
ATOM     19  H21 UNL     1      -8.661  -1.287  68.667  1.00  0.00     0.274 HD
ENDBRANCH  10  16
BRANCH  12  20
HETATM   20  N1  UNL     1      -7.359  -1.018  71.805  1.00  0.00    -0.072 N 
ATOM     21  H13 UNL     1      -6.414  -1.117  71.434  1.00  0.00     0.274 HD
ATOM     22  H12 UNL     1      -7.243  -1.462  72.716  1.00  0.00     0.274 HD
ATOM     23  H11 UNL     1      -8.013  -1.555  71.237  1.00  0.00     0.274 HD
ENDBRANCH  12  20
BRANCH  13  24
HETATM   24  O1  UNL     1      -5.680   1.595  72.432  1.00  0.00    -0.386 OA
HETATM   25  C1  UNL     1      -6.186   1.827  73.674  1.00  0.00     0.202 C 
ENDBRANCH  13  24
BRANCH  14  26
HETATM   26  O6  UNL     1      -5.107   2.046  69.901  1.00  0.00    -0.277 OA
BRANCH  26  27
HETATM   27  N8  UNL     1      -3.836   1.659  69.937  1.00  0.00    -0.311 N 
ATOM     28  H82 UNL     1      -3.359   1.269  69.125  1.00  0.00     0.184 HD
ATOM     29  H81 UNL     1      -3.401   1.793  70.849  1.00  0.00     0.184 HD
ENDBRANCH  26  27
ENDBRANCH  14  26
BRANCH  15  30
HETATM   30  N7  UNL     1      -6.636  -0.580  68.460  1.00  0.00    -0.070 N 
ATOM     31  H73 UNL     1      -7.299  -0.805  67.718  1.00  0.00     0.274 HD
ATOM     32  H72 UNL     1      -5.769  -0.666  67.929  1.00  0.00     0.274 HD
ATOM     33  H71 UNL     1      -6.678  -1.262  69.218  1.00  0.00     0.274 HD
ENDBRANCH  15  30
ENDBRANCH   8   9
ENDBRANCH   1   8
BRANCH   7  34
HETATM   34  O5  UNL     1     -11.295   1.103  66.383  1.00  0.00    -0.389 OA
ATOM     35  H5  UNL     1     -11.883   0.925  65.658  1.00  0.00     0.210 HD
ENDBRANCH   7  34
BRANCH   3  36
HETATM   36  C9  UNL     1      -7.334   4.921  66.017  1.00  0.00     0.193 C 
BRANCH  36  37
HETATM   37  N3  UNL     1      -7.002   5.136  67.319  1.00  0.00    -0.385 NA
HETATM   38  C10 UNL     1      -6.669   5.353  68.632  1.00  0.00     0.290 C 
HETATM   39  O4  UNL     1      -5.563   5.748  69.079  1.00  0.00    -0.257 OA
BRANCH  38  40
HETATM   40  C11 UNL     1      -7.697   5.108  69.723  1.00  0.00     0.119 C 
BRANCH  40  41
HETATM   41  C12 UNL     1      -9.081   5.465  69.299  1.00  0.00     0.010 C 
BRANCH  41  42
HETATM   42  C13 UNL     1      -9.453   6.903  69.471  1.00  0.00     0.002 C 
BRANCH  42  43
HETATM   43  C14 UNL     1     -10.247   7.410  68.261  1.00  0.00     0.027 C 
BRANCH  43  44
HETATM   44  C15 UNL     1      -9.511   8.601  67.640  1.00  0.00     0.229 C 
BRANCH  44  45
HETATM   45  N4  UNL     1      -8.363   8.161  66.893  1.00  0.00    -0.079 N 
ATOM     46  H43 UNL     1      -8.279   7.144  66.894  1.00  0.00     0.274 HD
ATOM     47  H42 UNL     1      -8.487   8.304  65.890  1.00  0.00     0.274 HD
ATOM     48  H41 UNL     1      -7.512   8.610  67.235  1.00  0.00     0.274 HD
ENDBRANCH  44  45
ENDBRANCH  43  44
ENDBRANCH  42  43
ENDBRANCH  41  42
ENDBRANCH  40  41
ENDBRANCH  38  40
ENDBRANCH  36  37
ENDBRANCH   3  36
BRANCH   6  49
HETATM   49  N6  UNL     1      -8.678   0.162  65.376  1.00  0.00    -0.072 N 
ATOM     50  H63 UNL     1      -8.741  -0.670  64.790  1.00  0.00     0.274 HD
ATOM     51  H62 UNL     1      -7.695   0.398  65.239  1.00  0.00     0.274 HD
ATOM     52  H61 UNL     1      -8.855  -0.075  66.352  1.00  0.00     0.274 HD
ENDBRANCH   6  49
BRANCH   4  53
HETATM   53  N5  UNL     1      -6.574   2.461  64.658  1.00  0.00    -0.072 N 
ATOM     54  H53 UNL     1      -6.015   2.458  63.804  1.00  0.00     0.274 HD
ATOM     55  H52 UNL     1      -5.964   3.038  65.237  1.00  0.00     0.274 HD
ATOM     56  H51 UNL     1      -6.683   1.522  65.042  1.00  0.00     0.274 HD
ENDBRANCH   4  53
TORSDOF 19
ENDMDL
