MODEL 1
REMARK VINA RESULT: -8.186352897      0.000      0.000
REMARK  11 active torsions:
REMARK  status: ('A' for Active; 'I' for Inactive)
REMARK    1  A    between atoms: C5_5  and  C6_6 
REMARK    2  A    between atoms: C6_6  and  N1_7 
REMARK    3  A    between atoms: N1_7  and  C7_10 
REMARK    4  A    between atoms: C7_10  and  C8_11 
REMARK    5  A    between atoms: C8_11  and  C9_12 
REMARK    6  A    between atoms: C9_12  and  C10_13 
REMARK    7  A    between atoms: C10_13  and  C11_14 
REMARK    8  A    between atoms: C11_14  and  C12_15 
REMARK    9  A    between atoms: C12_15  and  N2_16 
REMARK   10  A    between atoms: N2_16  and  C13_18 
REMARK   11  A    between atoms: C13_18  and  C14_19 
ROOT
HETATM    1  C8  UNL     1     190.574 120.339  31.347  1.00  0.00     0.027 C 
ENDROOT
BRANCH   1   2
HETATM    2  C7  UNL     1     191.221 121.636  30.854  1.00  0.00     0.232 C 
BRANCH   2   3
HETATM    3  N1  UNL     1     192.629 121.340  30.716  1.00  0.00    -0.071 N 
ATOM      4  H12 UNL     1     192.773 120.336  30.618  1.00  0.00     0.277 HD
ATOM      5  H11 UNL     1     193.115 121.502  31.598  1.00  0.00     0.277 HD
BRANCH   3   6
HETATM    6  C6  UNL     1     193.279 122.045  29.650  1.00  0.00     0.273 C 
BRANCH   6   7
HETATM    7  C5  UNL     1     194.069 123.157  30.259  1.00  0.00    -0.005 A 
HETATM    8  C4  UNL     1     193.769 124.491  30.078  1.00  0.00    -0.000 A 
HETATM    9  C3  UNL     1     192.808 125.210  29.404  1.00  0.00     0.014 A 
HETATM   10  C22 UNL     1     194.736 125.191  30.800  1.00  0.00     0.043 A 
HETATM   11  C2  UNL     1     192.786 126.592  29.430  1.00  0.00     0.001 A 
HETATM   12  C1  UNL     1     193.741 127.284  30.143  1.00  0.00     0.002 A 
HETATM   13  C23 UNL     1     194.710 126.567  30.823  1.00  0.00     0.030 A 
HETATM   14  N3  UNL     1     195.567 124.296  31.377  1.00  0.00    -0.365 N 
HETATM   15  C21 UNL     1     195.188 123.050  31.068  1.00  0.00     0.098 A 
ATOM     16  H3  UNL     1     196.367 124.535  31.964  1.00  0.00     0.165 HD
ENDBRANCH   6   7
ENDBRANCH   3   6
ENDBRANCH   2   3
ENDBRANCH   1   2
BRANCH   1  17
HETATM   17  C9  UNL     1     189.128 120.243  30.903  1.00  0.00     0.002 C 
BRANCH  17  18
HETATM   18  C10 UNL     1     188.303 121.365  31.476  1.00  0.00     0.002 C 
BRANCH  18  19
HETATM   19  C11 UNL     1     187.665 120.943  32.788  1.00  0.00     0.020 C 
BRANCH  19  20
HETATM   20  C12 UNL     1     186.435 120.046  32.530  1.00  0.00     0.119 C 
BRANCH  20  21
HETATM   21  N2  UNL     1     185.621 120.711  31.612  1.00  0.00    -0.400 N 
ATOM     22  H2  UNL     1     185.803 120.572  30.618  1.00  0.00     0.158 HD
BRANCH  21  23
HETATM   23  C13 UNL     1     184.580 121.549  31.978  1.00  0.00     0.087 C 
BRANCH  23  24
HETATM   24  C14 UNL     1     184.717 123.025  31.898  1.00  0.00     0.169 C 
HETATM   25  C15 UNL     1     184.319 123.733  33.157  1.00  0.00     0.043 C 
HETATM   26  C16 UNL     1     183.533 124.982  32.996  1.00  0.00     0.046 C 
HETATM   27  C17 UNL     1     183.490 125.560  31.653  1.00  0.00     0.002 A 
HETATM   28  C18 UNL     1     183.314 126.830  31.158  1.00  0.00     0.036 A 
HETATM   29  C20 UNL     1     183.642 124.750  30.546  1.00  0.00     0.192 A 
HETATM   30  C19 UNL     1     183.368 126.721  29.784  1.00  0.00     0.145 A 
HETATM   31  O1  UNL     1     183.566 125.455  29.445  1.00  0.00    -0.300 OA
HETATM   32  O2  UNL     1     183.835 123.413  30.812  1.00  0.00    -0.319 OA
ENDBRANCH  23  24
ENDBRANCH  21  23
ENDBRANCH  20  21
ENDBRANCH  19  20
ENDBRANCH  18  19
ENDBRANCH  17  18
ENDBRANCH   1  17
TORSDOF 11
ENDMDL
MODEL 2
REMARK VINA RESULT: -8.174310062      4.240      6.321
REMARK  11 active torsions:
REMARK  status: ('A' for Active; 'I' for Inactive)
REMARK    1  A    between atoms: C5_5  and  C6_6 
REMARK    2  A    between atoms: C6_6  and  N1_7 
REMARK    3  A    between atoms: N1_7  and  C7_10 
REMARK    4  A    between atoms: C7_10  and  C8_11 
REMARK    5  A    between atoms: C8_11  and  C9_12 
REMARK    6  A    between atoms: C9_12  and  C10_13 
REMARK    7  A    between atoms: C10_13  and  C11_14 
REMARK    8  A    between atoms: C11_14  and  C12_15 
REMARK    9  A    between atoms: C12_15  and  N2_16 
REMARK   10  A    between atoms: N2_16  and  C13_18 
REMARK   11  A    between atoms: C13_18  and  C14_19 
ROOT
HETATM    1  C8  UNL     1     187.715 124.225  33.046  1.00  0.00     0.027 C 
ENDROOT
BRANCH   1   2
HETATM    2  C7  UNL     1     188.942 124.949  33.606  1.00  0.00     0.232 C 
BRANCH   2   3
HETATM    3  N1  UNL     1     188.798 126.329  33.202  1.00  0.00    -0.071 N 
ATOM      4  H12 UNL     1     188.033 126.426  32.534  1.00  0.00     0.277 HD
ATOM      5  H11 UNL     1     189.581 126.611  32.612  1.00  0.00     0.277 HD
BRANCH   3   6
HETATM    6  C6  UNL     1     188.633 127.250  34.288  1.00  0.00     0.273 C 
BRANCH   6   7
HETATM    7  C5  UNL     1     187.384 128.028  34.036  1.00  0.00    -0.005 A 
HETATM    8  C4  UNL     1     187.092 129.222  34.663  1.00  0.00    -0.000 A 
HETATM    9  C3  UNL     1     187.707 130.034  35.590  1.00  0.00     0.014 A 
HETATM   10  C22 UNL     1     185.851 129.613  34.160  1.00  0.00     0.043 A 
HETATM   11  C2  UNL     1     187.126 131.211  36.022  1.00  0.00     0.001 A 
HETATM   12  C1  UNL     1     185.900 131.598  35.524  1.00  0.00     0.002 A 
HETATM   13  C23 UNL     1     185.276 130.786  34.593  1.00  0.00     0.030 A 
HETATM   14  N3  UNL     1     185.439 128.681  33.274  1.00  0.00    -0.365 N 
HETATM   15  C21 UNL     1     186.348 127.704  33.176  1.00  0.00     0.098 A 
ATOM     16  H3  UNL     1     184.561 128.716  32.754  1.00  0.00     0.165 HD
ENDBRANCH   6   7
ENDBRANCH   3   6
ENDBRANCH   2   3
ENDBRANCH   1   2
BRANCH   1  17
HETATM   17  C9  UNL     1     187.583 122.834  33.632  1.00  0.00     0.002 C 
BRANCH  17  18
HETATM   18  C10 UNL     1     187.707 121.777  32.567  1.00  0.00     0.002 C 
BRANCH  18  19
HETATM   19  C11 UNL     1     186.860 120.565  32.914  1.00  0.00     0.020 C 
BRANCH  19  20
HETATM   20  C12 UNL     1     185.849 120.268  31.785  1.00  0.00     0.119 C 
BRANCH  20  21
HETATM   21  N2  UNL     1     184.780 121.150  31.943  1.00  0.00    -0.400 N 
ATOM     22  H2  UNL     1     184.295 121.165  32.840  1.00  0.00     0.158 HD
BRANCH  21  23
HETATM   23  C13 UNL     1     184.342 122.009  30.947  1.00  0.00     0.087 C 
BRANCH  23  24
HETATM   24  C14 UNL     1     184.516 123.479  31.067  1.00  0.00     0.169 C 
HETATM   25  C15 UNL     1     184.159 124.014  32.420  1.00  0.00     0.043 C 
HETATM   26  C16 UNL     1     183.404 125.292  32.449  1.00  0.00     0.046 C 
HETATM   27  C17 UNL     1     183.352 126.051  31.200  1.00  0.00     0.002 A 
HETATM   28  C18 UNL     1     183.201 127.381  30.888  1.00  0.00     0.036 A 
HETATM   29  C20 UNL     1     183.463 125.398  29.989  1.00  0.00     0.192 A 
HETATM   30  C19 UNL     1     183.227 127.462  29.512  1.00  0.00     0.145 A 
HETATM   31  O1  UNL     1     183.387 126.250  28.997  1.00  0.00    -0.300 OA
HETATM   32  O2  UNL     1     183.626 124.033  30.064  1.00  0.00    -0.319 OA
ENDBRANCH  23  24
ENDBRANCH  21  23
ENDBRANCH  20  21
ENDBRANCH  19  20
ENDBRANCH  18  19
ENDBRANCH  17  18
ENDBRANCH   1  17
TORSDOF 11
ENDMDL
MODEL 3
REMARK VINA RESULT: -8.127357548      4.710      7.767
REMARK  11 active torsions:
REMARK  status: ('A' for Active; 'I' for Inactive)
REMARK    1  A    between atoms: C5_5  and  C6_6 
REMARK    2  A    between atoms: C6_6  and  N1_7 
REMARK    3  A    between atoms: N1_7  and  C7_10 
REMARK    4  A    between atoms: C7_10  and  C8_11 
REMARK    5  A    between atoms: C8_11  and  C9_12 
REMARK    6  A    between atoms: C9_12  and  C10_13 
REMARK    7  A    between atoms: C10_13  and  C11_14 
REMARK    8  A    between atoms: C11_14  and  C12_15 
REMARK    9  A    between atoms: C12_15  and  N2_16 
REMARK   10  A    between atoms: N2_16  and  C13_18 
REMARK   11  A    between atoms: C13_18  and  C14_19 
ROOT
HETATM    1  C8  UNL     1     187.539 120.997  31.982  1.00  0.00     0.027 C 
ENDROOT
BRANCH   1   2
HETATM    2  C7  UNL     1     186.316 120.307  32.593  1.00  0.00     0.232 C 
BRANCH   2   3
HETATM    3  N1  UNL     1     185.346 120.220  31.525  1.00  0.00    -0.071 N 
ATOM      4  H12 UNL     1     185.247 119.254  31.212  1.00  0.00     0.277 HD
ATOM      5  H11 UNL     1     185.715 120.643  30.673  1.00  0.00     0.277 HD
BRANCH   3   6
HETATM    6  C6  UNL     1     184.063 120.776  31.845  1.00  0.00     0.273 C 
BRANCH   6   7
HETATM    7  C5  UNL     1     183.881 122.002  31.012  1.00  0.00    -0.005 A 
HETATM    8  C4  UNL     1     183.869 123.279  31.532  1.00  0.00    -0.000 A 
HETATM    9  C3  UNL     1     183.998 123.845  32.780  1.00  0.00     0.014 A 
HETATM   10  C22 UNL     1     183.674 124.124  30.439  1.00  0.00     0.043 A 
HETATM   11  C2  UNL     1     183.940 125.213  32.966  1.00  0.00     0.001 A 
HETATM   12  C1  UNL     1     183.748 126.049  31.886  1.00  0.00     0.002 A 
HETATM   13  C23 UNL     1     183.616 125.486  30.628  1.00  0.00     0.030 A 
HETATM   14  N3  UNL     1     183.576 123.364  29.326  1.00  0.00    -0.365 N 
HETATM   15  C21 UNL     1     183.699 122.069  29.641  1.00  0.00     0.098 A 
ATOM     16  H3  UNL     1     183.431 123.726  28.383  1.00  0.00     0.165 HD
ENDBRANCH   6   7
ENDBRANCH   3   6
ENDBRANCH   2   3
ENDBRANCH   1   2
BRANCH   1  17
HETATM   17  C9  UNL     1     187.444 122.503  32.115  1.00  0.00     0.002 C 
BRANCH  17  18
HETATM   18  C10 UNL     1     187.490 123.176  30.769  1.00  0.00     0.002 C 
BRANCH  18  19
HETATM   19  C11 UNL     1     187.308 124.677  30.914  1.00  0.00     0.020 C 
BRANCH  19  20
HETATM   20  C12 UNL     1     187.174 125.345  29.529  1.00  0.00     0.119 C 
BRANCH  20  21
HETATM   21  N2  UNL     1     186.957 126.706  29.744  1.00  0.00    -0.400 N 
ATOM     22  H2  UNL     1     187.183 127.091  30.661  1.00  0.00     0.158 HD
BRANCH  21  23
HETATM   23  C13 UNL     1     186.453 127.564  28.779  1.00  0.00     0.087 C 
BRANCH  23  24
HETATM   24  C14 UNL     1     185.386 127.125  27.843  1.00  0.00     0.169 C 
HETATM   25  C15 UNL     1     185.808 127.143  26.405  1.00  0.00     0.043 C 
HETATM   26  C16 UNL     1     184.813 127.653  25.428  1.00  0.00     0.046 C 
HETATM   27  C17 UNL     1     183.439 127.795  25.907  1.00  0.00     0.002 A 
HETATM   28  C18 UNL     1     182.203 127.772  25.305  1.00  0.00     0.036 A 
HETATM   29  C20 UNL     1     183.191 128.012  27.248  1.00  0.00     0.192 A 
HETATM   30  C19 UNL     1     181.279 127.975  26.308  1.00  0.00     0.145 A 
HETATM   31  O1  UNL     1     181.905 128.116  27.469  1.00  0.00    -0.300 OA
HETATM   32  O2  UNL     1     184.307 128.071  28.054  1.00  0.00    -0.319 OA
ENDBRANCH  23  24
ENDBRANCH  21  23
ENDBRANCH  20  21
ENDBRANCH  19  20
ENDBRANCH  18  19
ENDBRANCH  17  18
ENDBRANCH   1  17
TORSDOF 11
ENDMDL
MODEL 4
REMARK VINA RESULT: -8.096412854      2.483      5.376
REMARK  11 active torsions:
REMARK  status: ('A' for Active; 'I' for Inactive)
REMARK    1  A    between atoms: C5_5  and  C6_6 
REMARK    2  A    between atoms: C6_6  and  N1_7 
REMARK    3  A    between atoms: N1_7  and  C7_10 
REMARK    4  A    between atoms: C7_10  and  C8_11 
REMARK    5  A    between atoms: C8_11  and  C9_12 
REMARK    6  A    between atoms: C9_12  and  C10_13 
REMARK    7  A    between atoms: C10_13  and  C11_14 
REMARK    8  A    between atoms: C11_14  and  C12_15 
REMARK    9  A    between atoms: C12_15  and  N2_16 
REMARK   10  A    between atoms: N2_16  and  C13_18 
REMARK   11  A    between atoms: C13_18  and  C14_19 
ROOT
HETATM    1  C8  UNL     1     191.202 124.380  29.952  1.00  0.00     0.027 C 
ENDROOT
BRANCH   1   2
HETATM    2  C7  UNL     1     192.373 124.519  30.929  1.00  0.00     0.232 C 
BRANCH   2   3
HETATM    3  N1  UNL     1     191.795 124.396  32.248  1.00  0.00    -0.071 N 
ATOM      4  H12 UNL     1     190.842 124.758  32.254  1.00  0.00     0.277 HD
ATOM      5  H11 UNL     1     192.235 125.054  32.892  1.00  0.00     0.277 HD
BRANCH   3   6
HETATM    6  C6  UNL     1     191.830 123.068  32.788  1.00  0.00     0.273 C 
BRANCH   6   7
HETATM    7  C5  UNL     1     190.446 122.723  33.231  1.00  0.00    -0.005 A 
HETATM    8  C4  UNL     1     189.628 121.845  32.553  1.00  0.00    -0.000 A 
HETATM    9  C3  UNL     1     189.725 121.071  31.418  1.00  0.00     0.014 A 
HETATM   10  C22 UNL     1     188.439 121.804  33.282  1.00  0.00     0.043 A 
HETATM   11  C2  UNL     1     188.682 120.267  30.997  1.00  0.00     0.001 A 
HETATM   12  C1  UNL     1     187.508 120.226  31.719  1.00  0.00     0.002 A 
HETATM   13  C23 UNL     1     187.404 121.003  32.859  1.00  0.00     0.030 A 
HETATM   14  N3  UNL     1     188.564 122.629  34.344  1.00  0.00    -0.365 N 
HETATM   15  C21 UNL     1     189.774 123.204  34.342  1.00  0.00     0.098 A 
ATOM     16  H3  UNL     1     187.842 122.791  35.047  1.00  0.00     0.165 HD
ENDBRANCH   6   7
ENDBRANCH   3   6
ENDBRANCH   2   3
ENDBRANCH   1   2
BRANCH   1  17
HETATM   17  C9  UNL     1     190.004 125.186  30.412  1.00  0.00     0.002 C 
BRANCH  17  18
HETATM   18  C10 UNL     1     188.723 124.419  30.220  1.00  0.00     0.002 C 
BRANCH  18  19
HETATM   19  C11 UNL     1     187.678 124.861  31.230  1.00  0.00     0.020 C 
BRANCH  19  20
HETATM   20  C12 UNL     1     186.932 126.116  30.727  1.00  0.00     0.119 C 
BRANCH  20  21
HETATM   21  N2  UNL     1     185.921 125.681  29.869  1.00  0.00    -0.400 N 
ATOM     22  H2  UNL     1     186.191 125.268  28.977  1.00  0.00     0.158 HD
BRANCH  21  23
HETATM   23  C13 UNL     1     184.571 125.780  30.165  1.00  0.00     0.087 C 
BRANCH  23  24
HETATM   24  C14 UNL     1     183.808 124.612  30.674  1.00  0.00     0.169 C 
HETATM   25  C15 UNL     1     184.072 124.308  32.117  1.00  0.00     0.043 C 
HETATM   26  C16 UNL     1     184.213 122.875  32.478  1.00  0.00     0.046 C 
HETATM   27  C17 UNL     1     183.782 121.902  31.476  1.00  0.00     0.002 A 
HETATM   28  C18 UNL     1     183.316 120.609  31.528  1.00  0.00     0.036 A 
HETATM   29  C20 UNL     1     183.806 122.231  30.135  1.00  0.00     0.192 A 
HETATM   30  C19 UNL     1     183.086 120.228  30.223  1.00  0.00     0.145 A 
HETATM   31  O1  UNL     1     183.390 121.227  29.405  1.00  0.00    -0.300 OA
HETATM   32  O2  UNL     1     184.247 123.504  29.846  1.00  0.00    -0.319 OA
ENDBRANCH  23  24
ENDBRANCH  21  23
ENDBRANCH  20  21
ENDBRANCH  19  20
ENDBRANCH  18  19
ENDBRANCH  17  18
ENDBRANCH   1  17
TORSDOF 11
ENDMDL
MODEL 5
REMARK VINA RESULT: -8.080036294      4.376     10.074
REMARK  11 active torsions:
REMARK  status: ('A' for Active; 'I' for Inactive)
REMARK    1  A    between atoms: C5_5  and  C6_6 
REMARK    2  A    between atoms: C6_6  and  N1_7 
REMARK    3  A    between atoms: N1_7  and  C7_10 
REMARK    4  A    between atoms: C7_10  and  C8_11 
REMARK    5  A    between atoms: C8_11  and  C9_12 
REMARK    6  A    between atoms: C9_12  and  C10_13 
REMARK    7  A    between atoms: C10_13  and  C11_14 
REMARK    8  A    between atoms: C11_14  and  C12_15 
REMARK    9  A    between atoms: C12_15  and  N2_16 
REMARK   10  A    between atoms: N2_16  and  C13_18 
REMARK   11  A    between atoms: C13_18  and  C14_19 
ROOT
HETATM    1  C8  UNL     1     190.291 121.635  30.598  1.00  0.00     0.027 C 
ENDROOT
BRANCH   1   2
HETATM    2  C7  UNL     1     189.702 120.288  31.030  1.00  0.00     0.232 C 
BRANCH   2   3
HETATM    3  N1  UNL     1     188.268 120.456  30.975  1.00  0.00    -0.071 N 
ATOM      4  H12 UNL     1     187.867 119.855  30.255  1.00  0.00     0.277 HD
ATOM      5  H11 UNL     1     188.031 121.371  30.590  1.00  0.00     0.277 HD
BRANCH   3   6
HETATM    6  C6  UNL     1     187.600 120.251  32.227  1.00  0.00     0.273 C 
BRANCH   6   7
HETATM    7  C5  UNL     1     187.245 121.593  32.776  1.00  0.00    -0.005 A 
HETATM    8  C4  UNL     1     186.061 122.242  32.491  1.00  0.00    -0.000 A 
HETATM    9  C3  UNL     1     184.938 121.976  31.740  1.00  0.00     0.014 A 
HETATM   10  C22 UNL     1     186.122 123.450  33.186  1.00  0.00     0.043 A 
HETATM   11  C2  UNL     1     183.887 122.870  31.666  1.00  0.00     0.001 A 
HETATM   12  C1  UNL     1     183.946 124.063  32.354  1.00  0.00     0.002 A 
HETATM   13  C23 UNL     1     185.073 124.337  33.109  1.00  0.00     0.030 A 
HETATM   14  N3  UNL     1     187.298 123.500  33.850  1.00  0.00    -0.365 N 
HETATM   15  C21 UNL     1     188.004 122.385  33.621  1.00  0.00     0.098 A 
ATOM     16  H3  UNL     1     187.604 124.274  34.440  1.00  0.00     0.165 HD
ENDBRANCH   6   7
ENDBRANCH   3   6
ENDBRANCH   2   3
ENDBRANCH   1   2
BRANCH   1  17
HETATM   17  C9  UNL     1     191.574 121.938  31.346  1.00  0.00     0.002 C 
BRANCH  17  18
HETATM   18  C10 UNL     1     192.775 121.403  30.611  1.00  0.00     0.002 C 
BRANCH  18  19
HETATM   19  C11 UNL     1     193.122 122.296  29.433  1.00  0.00     0.020 C 
BRANCH  19  20
HETATM   20  C12 UNL     1     193.644 123.664  29.922  1.00  0.00     0.119 C 
BRANCH  20  21
HETATM   21  N2  UNL     1     194.749 123.418  30.738  1.00  0.00    -0.400 N 
ATOM     22  H2  UNL     1     195.079 122.457  30.827  1.00  0.00     0.158 HD
BRANCH  21  23
HETATM   23  C13 UNL     1     195.422 124.410  31.434  1.00  0.00     0.087 C 
BRANCH  23  24
HETATM   24  C14 UNL     1     195.417 124.445  32.919  1.00  0.00     0.169 C 
HETATM   25  C15 UNL     1     195.905 125.742  33.488  1.00  0.00     0.043 C 
HETATM   26  C16 UNL     1     196.796 125.653  34.673  1.00  0.00     0.046 C 
HETATM   27  C17 UNL     1     196.861 124.357  35.347  1.00  0.00     0.002 A 
HETATM   28  C18 UNL     1     197.140 123.955  36.632  1.00  0.00     0.036 A 
HETATM   29  C20 UNL     1     196.613 123.197  34.642  1.00  0.00     0.192 A 
HETATM   30  C19 UNL     1     197.047 122.579  36.635  1.00  0.00     0.145 A 
HETATM   31  O1  UNL     1     196.727 122.150  35.421  1.00  0.00    -0.300 OA
HETATM   32  O2  UNL     1     196.306 123.367  33.311  1.00  0.00    -0.319 OA
ENDBRANCH  23  24
ENDBRANCH  21  23
ENDBRANCH  20  21
ENDBRANCH  19  20
ENDBRANCH  18  19
ENDBRANCH  17  18
ENDBRANCH   1  17
TORSDOF 11
ENDMDL
