MODEL 1
REMARK VINA RESULT: -7.062184737      0.000      0.000
REMARK  11 active torsions:
REMARK  status: ('A' for Active; 'I' for Inactive)
REMARK    1  A    between atoms: C2_2  and  C3_3 
REMARK    2  A    between atoms: C3_3  and  C5_5 
REMARK    3  A    between atoms: C5_5  and  N1_6 
REMARK    4  A    between atoms: C5_5  and  C8_11 
REMARK       I    between atoms: N1_6  and  C6_8 
REMARK    5  A    between atoms: C8_11  and  N2_12 
REMARK    6  A    between atoms: C8_11  and  C13_23 
REMARK    7  A    between atoms: N2_12  and  S1_14 
REMARK    8  A    between atoms: S1_14  and  C9_16 
REMARK    9  A    between atoms: C9_16  and  C10_17 
REMARK   10  A    between atoms: C10_17  and  C11_18 
REMARK   11  A    between atoms: C11_18  and  C12_19 
ROOT
HETATM    1  C8  UNL     1      16.363 -14.894  21.852  1.00  0.00     0.079 C 
ENDROOT
BRANCH   1   2
HETATM    2  C5  UNL     1      17.289 -13.971  21.128  1.00  0.00     0.041 C 
BRANCH   2   3
HETATM    3  C3  UNL     1      18.652 -13.781  21.604  1.00  0.00     0.033 C 
HETATM    4  C4  UNL     1      19.090 -14.411  22.881  1.00  0.00     0.016 C 
BRANCH   3   5
HETATM    5  C2  UNL     1      19.706 -14.227  20.558  1.00  0.00     0.006 C 
HETATM    6  C1  UNL     1      20.455 -13.110  19.949  1.00  0.00     0.006 C 
ENDBRANCH   3   5
ENDBRANCH   2   3
BRANCH   2   7
HETATM    7  N1  UNL     1      17.032 -13.923  19.707  1.00  0.00    -0.329 N 
HETATM    8  C6  UNL     1      16.560 -12.871  18.929  1.00  0.00     0.217 C 
HETATM    9  C7  UNL     1      16.375 -13.068  17.480  1.00  0.00     0.117 C 
HETATM   10  O1  UNL     1      16.278 -11.745  19.395  1.00  0.00    -0.274 OA
ATOM     11  H1  UNL     1      17.226 -14.787  19.200  1.00  0.00     0.168 HD
ENDBRANCH   2   7
ENDBRANCH   1   2
BRANCH   1  12
HETATM   12  N2  UNL     1      15.229 -14.394  22.489  1.00  0.00    -0.327 N 
ATOM     13  H2  UNL     1      15.170 -14.491  23.503  1.00  0.00     0.174 HD
BRANCH  12  14
HETATM   14  S1  UNL     1      13.976 -13.654  21.707  1.00  0.00    -0.030 SA
HETATM   15 CL1  UNL     1      13.513 -14.261  19.831  1.00  0.00    -0.034 Cl
BRANCH  14  16
HETATM   16  C9  UNL     1      12.484 -13.821  22.736  1.00  0.00     0.102 C 
BRANCH  16  17
HETATM   17  C10 UNL     1      11.595 -12.653  22.461  1.00  0.00     0.021 C 
BRANCH  17  18
HETATM   18  C11 UNL     1      11.637 -11.586  23.471  1.00  0.00     0.118 C 
BRANCH  18  19
HETATM   19  C12 UNL     1      12.179 -10.286  23.017  1.00  0.00     0.387 C 
HETATM   20  F1  UNL     1      13.570 -10.389  22.752  1.00  0.00    -0.171 F 
HETATM   21  F2  UNL     1      11.604  -9.948  21.782  1.00  0.00    -0.171 F 
HETATM   22  F3  UNL     1      12.009  -9.241  23.887  1.00  0.00    -0.171 F 
ENDBRANCH  18  19
ENDBRANCH  17  18
ENDBRANCH  16  17
ENDBRANCH  14  16
ENDBRANCH  12  14
ENDBRANCH   1  12
BRANCH   1  23
HETATM   23  C13 UNL     1      16.086 -16.173  21.042  1.00  0.00     0.331 C 
HETATM   24  N3  UNL     1      17.270 -17.021  21.231  1.00  0.00    -0.036 N 
HETATM   25  C14 UNL     1      17.206 -17.518  22.587  1.00  0.00     0.283 C 
ATOM     26  H32 UNL     1      17.353 -17.761  20.533  1.00  0.00     0.281 HD
ATOM     27  H31 UNL     1      18.147 -16.545  21.016  1.00  0.00     0.281 HD
HETATM   28  C15 UNL     1      17.515 -19.017  22.507  1.00  0.00     0.063 C 
HETATM   29  N4  UNL     1      15.810 -17.415  22.955  1.00  0.00    -0.331 N 
HETATM   30  C16 UNL     1      15.088 -17.020  21.782  1.00  0.00     0.256 C 
ATOM     31  H4  UNL     1      15.413 -17.590  23.879  1.00  0.00     0.164 HD
HETATM   32  O2  UNL     1      13.905 -17.325  21.472  1.00  0.00    -0.271 OA
ENDBRANCH   1  23
TORSDOF 11
ENDMDL
MODEL 2
REMARK VINA RESULT: -6.930714814      2.188      4.201
REMARK  11 active torsions:
REMARK  status: ('A' for Active; 'I' for Inactive)
REMARK    1  A    between atoms: C2_2  and  C3_3 
REMARK    2  A    between atoms: C3_3  and  C5_5 
REMARK    3  A    between atoms: C5_5  and  N1_6 
REMARK    4  A    between atoms: C5_5  and  C8_11 
REMARK       I    between atoms: N1_6  and  C6_8 
REMARK    5  A    between atoms: C8_11  and  N2_12 
REMARK    6  A    between atoms: C8_11  and  C13_23 
REMARK    7  A    between atoms: N2_12  and  S1_14 
REMARK    8  A    between atoms: S1_14  and  C9_16 
REMARK    9  A    between atoms: C9_16  and  C10_17 
REMARK   10  A    between atoms: C10_17  and  C11_18 
REMARK   11  A    between atoms: C11_18  and  C12_19 
ROOT
HETATM    1  C8  UNL     1      17.133 -14.425  22.243  1.00  0.00     0.079 C 
ENDROOT
BRANCH   1   2
HETATM    2  C5  UNL     1      18.071 -15.207  23.104  1.00  0.00     0.041 C 
BRANCH   2   3
HETATM    3  C3  UNL     1      18.163 -14.924  24.530  1.00  0.00     0.033 C 
HETATM    4  C4  UNL     1      17.884 -16.000  25.523  1.00  0.00     0.016 C 
BRANCH   3   5
HETATM    5  C2  UNL     1      19.553 -14.366  24.929  1.00  0.00     0.006 C 
HETATM    6  C1  UNL     1      20.005 -14.789  26.270  1.00  0.00     0.006 C 
ENDBRANCH   3   5
ENDBRANCH   2   3
BRANCH   2   7
HETATM    7  N1  UNL     1      18.244 -16.568  22.650  1.00  0.00    -0.329 N 
HETATM    8  C6  UNL     1      19.389 -17.204  22.184  1.00  0.00     0.217 C 
HETATM    9  C7  UNL     1      19.315 -18.618  21.770  1.00  0.00     0.117 C 
HETATM   10  O1  UNL     1      20.501 -16.639  22.092  1.00  0.00    -0.274 OA
ATOM     11  H1  UNL     1      17.404 -17.146  22.676  1.00  0.00     0.168 HD
ENDBRANCH   2   7
ENDBRANCH   1   2
BRANCH   1  12
HETATM   12  N2  UNL     1      15.768 -14.414  22.522  1.00  0.00    -0.327 N 
ATOM     13  H2  UNL     1      15.468 -14.030  23.419  1.00  0.00     0.174 HD
BRANCH  12  14
HETATM   14  S1  UNL     1      14.606 -14.980  21.494  1.00  0.00    -0.030 SA
HETATM   15 CL1  UNL     1      13.377 -16.455  22.142  1.00  0.00    -0.034 Cl
BRANCH  14  16
HETATM   16  C9  UNL     1      13.571 -13.577  20.973  1.00  0.00     0.102 C 
BRANCH  16  17
HETATM   17  C10 UNL     1      13.562 -12.570  22.075  1.00  0.00     0.021 C 
BRANCH  17  18
HETATM   18  C11 UNL     1      12.229 -12.207  22.579  1.00  0.00     0.118 C 
BRANCH  18  19
HETATM   19  C12 UNL     1      12.000 -10.766  22.824  1.00  0.00     0.387 C 
HETATM   20  F1  UNL     1      13.206 -10.126  23.213  1.00  0.00    -0.171 F 
HETATM   21  F2  UNL     1      11.637 -10.141  21.620  1.00  0.00    -0.171 F 
HETATM   22  F3  UNL     1      11.061 -10.473  23.777  1.00  0.00    -0.171 F 
ENDBRANCH  18  19
ENDBRANCH  17  18
ENDBRANCH  16  17
ENDBRANCH  14  16
ENDBRANCH  12  14
ENDBRANCH   1  12
BRANCH   1  23
HETATM   23  C13 UNL     1      17.693 -13.032  21.909  1.00  0.00     0.331 C 
HETATM   24  N3  UNL     1      19.107 -13.247  21.575  1.00  0.00    -0.036 N 
HETATM   25  C14 UNL     1      19.129 -13.886  20.279  1.00  0.00     0.283 C 
ATOM     26  H32 UNL     1      19.666 -12.395  21.615  1.00  0.00     0.281 HD
ATOM     27  H31 UNL     1      19.617 -13.766  22.291  1.00  0.00     0.281 HD
HETATM   28  C15 UNL     1      20.196 -13.150  19.459  1.00  0.00     0.063 C 
HETATM   29  N4  UNL     1      17.857 -13.550  19.676  1.00  0.00    -0.331 N 
HETATM   30  C16 UNL     1      17.207 -12.617  20.548  1.00  0.00     0.256 C 
ATOM     31  H4  UNL     1      17.491 -13.910  18.795  1.00  0.00     0.164 HD
HETATM   32  O2  UNL     1      16.423 -11.684  20.224  1.00  0.00    -0.271 OA
ENDBRANCH   1  23
TORSDOF 11
ENDMDL
MODEL 3
REMARK VINA RESULT: -6.924309611      1.968      2.861
REMARK  11 active torsions:
REMARK  status: ('A' for Active; 'I' for Inactive)
REMARK    1  A    between atoms: C2_2  and  C3_3 
REMARK    2  A    between atoms: C3_3  and  C5_5 
REMARK    3  A    between atoms: C5_5  and  N1_6 
REMARK    4  A    between atoms: C5_5  and  C8_11 
REMARK       I    between atoms: N1_6  and  C6_8 
REMARK    5  A    between atoms: C8_11  and  N2_12 
REMARK    6  A    between atoms: C8_11  and  C13_23 
REMARK    7  A    between atoms: N2_12  and  S1_14 
REMARK    8  A    between atoms: S1_14  and  C9_16 
REMARK    9  A    between atoms: C9_16  and  C10_17 
REMARK   10  A    between atoms: C10_17  and  C11_18 
REMARK   11  A    between atoms: C11_18  and  C12_19 
ROOT
HETATM    1  C8  UNL     1      16.584 -15.488  21.836  1.00  0.00     0.079 C 
ENDROOT
BRANCH   1   2
HETATM    2  C5  UNL     1      17.931 -14.846  21.926  1.00  0.00     0.041 C 
BRANCH   2   3
HETATM    3  C3  UNL     1      18.401 -13.979  20.854  1.00  0.00     0.033 C 
HETATM    4  C4  UNL     1      18.188 -12.506  20.939  1.00  0.00     0.016 C 
BRANCH   3   5
HETATM    5  C2  UNL     1      19.919 -14.146  20.587  1.00  0.00     0.006 C 
HETATM    6  C1  UNL     1      20.515 -13.041  19.809  1.00  0.00     0.006 C 
ENDBRANCH   3   5
ENDBRANCH   2   3
BRANCH   2   7
HETATM    7  N1  UNL     1      18.319 -14.548  23.285  1.00  0.00    -0.329 N 
HETATM    8  C6  UNL     1      19.249 -15.186  24.099  1.00  0.00     0.217 C 
HETATM    9  C7  UNL     1      19.471 -14.693  25.470  1.00  0.00     0.117 C 
HETATM   10  O1  UNL     1      19.923 -16.173  23.729  1.00  0.00    -0.274 OA
ATOM     11  H1  UNL     1      17.840 -13.754  23.711  1.00  0.00     0.168 HD
ENDBRANCH   2   7
ENDBRANCH   1   2
BRANCH   1  12
HETATM   12  N2  UNL     1      15.523 -14.811  21.238  1.00  0.00    -0.327 N 
ATOM     13  H2  UNL     1      15.268 -15.070  20.285  1.00  0.00     0.174 HD
BRANCH  12  14
HETATM   14  S1  UNL     1      14.652 -13.617  21.976  1.00  0.00    -0.030 SA
HETATM   15 CL1  UNL     1      14.591 -11.787  21.109  1.00  0.00    -0.034 Cl
BRANCH  14  16
HETATM   16  C9  UNL     1      12.939 -14.200  22.175  1.00  0.00     0.102 C 
BRANCH  16  17
HETATM   17  C10 UNL     1      12.032 -13.016  22.103  1.00  0.00     0.021 C 
BRANCH  17  18
HETATM   18  C11 UNL     1      11.863 -12.282  23.365  1.00  0.00     0.118 C 
BRANCH  18  19
HETATM   19  C12 UNL     1      11.762 -10.810  23.249  1.00  0.00     0.387 C 
HETATM   20  F1  UNL     1      13.001 -10.196  23.571  1.00  0.00    -0.171 F 
HETATM   21  F2  UNL     1      11.529 -10.464  21.909  1.00  0.00    -0.171 F 
HETATM   22  F3  UNL     1      10.803 -10.223  24.032  1.00  0.00    -0.171 F 
ENDBRANCH  18  19
ENDBRANCH  17  18
ENDBRANCH  16  17
ENDBRANCH  14  16
ENDBRANCH  12  14
ENDBRANCH   1  12
BRANCH   1  23
HETATM   23  C13 UNL     1      16.683 -16.960  21.402  1.00  0.00     0.331 C 
HETATM   24  N3  UNL     1      17.396 -17.643  22.489  1.00  0.00    -0.036 N 
HETATM   25  C14 UNL     1      16.469 -17.729  23.594  1.00  0.00     0.283 C 
ATOM     26  H32 UNL     1      17.782 -18.546  22.214  1.00  0.00     0.281 HD
ATOM     27  H31 UNL     1      18.280 -17.197  22.735  1.00  0.00     0.281 HD
HETATM   28  C15 UNL     1      16.567 -19.166  24.121  1.00  0.00     0.063 C 
HETATM   29  N4  UNL     1      15.159 -17.610  22.993  1.00  0.00    -0.331 N 
HETATM   30  C16 UNL     1      15.341 -17.617  21.571  1.00  0.00     0.256 C 
ATOM     31  H4  UNL     1      14.270 -17.535  23.488  1.00  0.00     0.164 HD
HETATM   32  O2  UNL     1      14.551 -18.070  20.700  1.00  0.00    -0.271 OA
ENDBRANCH   1  23
TORSDOF 11
ENDMDL
MODEL 4
REMARK VINA RESULT: -6.810439592      1.951      3.018
REMARK  11 active torsions:
REMARK  status: ('A' for Active; 'I' for Inactive)
REMARK    1  A    between atoms: C2_2  and  C3_3 
REMARK    2  A    between atoms: C3_3  and  C5_5 
REMARK    3  A    between atoms: C5_5  and  N1_6 
REMARK    4  A    between atoms: C5_5  and  C8_11 
REMARK       I    between atoms: N1_6  and  C6_8 
REMARK    5  A    between atoms: C8_11  and  N2_12 
REMARK    6  A    between atoms: C8_11  and  C13_23 
REMARK    7  A    between atoms: N2_12  and  S1_14 
REMARK    8  A    between atoms: S1_14  and  C9_16 
REMARK    9  A    between atoms: C9_16  and  C10_17 
REMARK   10  A    between atoms: C10_17  and  C11_18 
REMARK   11  A    between atoms: C11_18  and  C12_19 
ROOT
HETATM    1  C8  UNL     1      16.517 -15.334  22.297  1.00  0.00     0.079 C 
ENDROOT
BRANCH   1   2
HETATM    2  C5  UNL     1      17.892 -14.752  22.222  1.00  0.00     0.041 C 
BRANCH   2   3
HETATM    3  C3  UNL     1      18.289 -13.961  21.065  1.00  0.00     0.033 C 
HETATM    4  C4  UNL     1      18.110 -12.481  21.078  1.00  0.00     0.016 C 
BRANCH   3   5
HETATM    5  C2  UNL     1      19.776 -14.179  20.688  1.00  0.00     0.006 C 
HETATM    6  C1  UNL     1      20.290 -13.210  19.698  1.00  0.00     0.006 C 
ENDBRANCH   3   5
ENDBRANCH   2   3
BRANCH   2   7
HETATM    7  N1  UNL     1      18.425 -14.407  23.520  1.00  0.00    -0.329 N 
HETATM    8  C6  UNL     1      19.432 -15.023  24.254  1.00  0.00     0.217 C 
HETATM    9  C7  UNL     1      19.803 -14.481  25.573  1.00  0.00     0.117 C 
HETATM   10  O1  UNL     1      20.056 -16.031  23.853  1.00  0.00    -0.274 OA
ATOM     11  H1  UNL     1      17.999 -13.592  23.963  1.00  0.00     0.168 HD
ENDBRANCH   2   7
ENDBRANCH   1   2
BRANCH   1  12
HETATM   12  N2  UNL     1      15.402 -14.533  22.063  1.00  0.00    -0.327 N 
ATOM     13  H2  UNL     1      14.986 -14.051  22.860  1.00  0.00     0.174 HD
BRANCH  12  14
HETATM   14  S1  UNL     1      14.713 -14.314  20.578  1.00  0.00    -0.030 SA
HETATM   15 CL1  UNL     1      12.920 -15.181  20.207  1.00  0.00    -0.034 Cl
BRANCH  14  16
HETATM   16  C9  UNL     1      14.542 -12.525  20.286  1.00  0.00     0.102 C 
BRANCH  16  17
HETATM   17  C10 UNL     1      14.265 -11.864  21.596  1.00  0.00     0.021 C 
BRANCH  17  18
HETATM   18  C11 UNL     1      12.873 -11.955  22.060  1.00  0.00     0.118 C 
BRANCH  18  19
HETATM   19  C12 UNL     1      12.280 -10.702  22.577  1.00  0.00     0.387 C 
HETATM   20  F1  UNL     1      11.697  -9.952  21.522  1.00  0.00    -0.171 F 
HETATM   21  F2  UNL     1      11.210 -11.011  23.430  1.00  0.00    -0.171 F 
HETATM   22  F3  UNL     1      13.146  -9.869  23.235  1.00  0.00    -0.171 F 
ENDBRANCH  18  19
ENDBRANCH  17  18
ENDBRANCH  16  17
ENDBRANCH  14  16
ENDBRANCH  12  14
ENDBRANCH   1  12
BRANCH   1  23
HETATM   23  C13 UNL     1      16.438 -16.700  21.594  1.00  0.00     0.331 C 
HETATM   24  N3  UNL     1      17.543 -17.493  22.150  1.00  0.00    -0.036 N 
HETATM   25  C14 UNL     1      17.157 -17.840  23.499  1.00  0.00     0.283 C 
ATOM     26  H32 UNL     1      17.787 -18.302  21.579  1.00  0.00     0.281 HD
ATOM     27  H31 UNL     1      18.446 -17.022  22.095  1.00  0.00     0.281 HD
HETATM   28  C15 UNL     1      17.475 -19.331  23.663  1.00  0.00     0.063 C 
HETATM   29  N4  UNL     1      15.714 -17.732  23.515  1.00  0.00    -0.331 N 
HETATM   30  C16 UNL     1      15.292 -17.486  22.168  1.00  0.00     0.256 C 
ATOM     31  H4  UNL     1      15.110 -17.815  24.332  1.00  0.00     0.164 HD
HETATM   32  O2  UNL     1      14.215 -17.852  21.624  1.00  0.00    -0.271 OA
ENDBRANCH   1  23
TORSDOF 11
ENDMDL
MODEL 5
REMARK VINA RESULT: -6.685209612      4.115      6.845
REMARK  11 active torsions:
REMARK  status: ('A' for Active; 'I' for Inactive)
REMARK    1  A    between atoms: C2_2  and  C3_3 
REMARK    2  A    between atoms: C3_3  and  C5_5 
REMARK    3  A    between atoms: C5_5  and  N1_6 
REMARK    4  A    between atoms: C5_5  and  C8_11 
REMARK       I    between atoms: N1_6  and  C6_8 
REMARK    5  A    between atoms: C8_11  and  N2_12 
REMARK    6  A    between atoms: C8_11  and  C13_23 
REMARK    7  A    between atoms: N2_12  and  S1_14 
REMARK    8  A    between atoms: S1_14  and  C9_16 
REMARK    9  A    between atoms: C9_16  and  C10_17 
REMARK   10  A    between atoms: C10_17  and  C11_18 
REMARK   11  A    between atoms: C11_18  and  C12_19 
ROOT
HETATM    1  C8  UNL     1      15.232 -14.082  21.400  1.00  0.00     0.079 C 
ENDROOT
BRANCH   1   2
HETATM    2  C5  UNL     1      13.910 -14.776  21.469  1.00  0.00     0.041 C 
BRANCH   2   3
HETATM    3  C3  UNL     1      13.816 -16.199  21.173  1.00  0.00     0.033 C 
HETATM    4  C4  UNL     1      13.816 -17.193  22.284  1.00  0.00     0.016 C 
BRANCH   3   5
HETATM    5  C2  UNL     1      12.559 -16.542  20.333  1.00  0.00     0.006 C 
HETATM    6  C1  UNL     1      11.793 -17.696  20.846  1.00  0.00     0.006 C 
ENDBRANCH   3   5
ENDBRANCH   2   3
BRANCH   2   7
HETATM    7  N1  UNL     1      13.033 -14.211  22.469  1.00  0.00    -0.329 N 
HETATM    8  C6  UNL     1      12.372 -12.988  22.474  1.00  0.00     0.217 C 
HETATM    9  C7  UNL     1      11.523 -12.628  23.624  1.00  0.00     0.117 C 
HETATM   10  O1  UNL     1      12.456 -12.157  21.542  1.00  0.00    -0.274 OA
ATOM     11  H1  UNL     1      12.876 -14.795  23.291  1.00  0.00     0.168 HD
ENDBRANCH   2   7
ENDBRANCH   1   2
BRANCH   1  12
HETATM   12  N2  UNL     1      16.082 -14.080  22.504  1.00  0.00    -0.327 N 
ATOM     13  H2  UNL     1      16.039 -13.282  23.138  1.00  0.00     0.174 HD
BRANCH  12  14
HETATM   14  S1  UNL     1      17.154 -15.288  22.850  1.00  0.00    -0.030 SA
HETATM   15 CL1  UNL     1      17.434 -16.756  21.482  1.00  0.00    -0.034 Cl
BRANCH  14  16
HETATM   16  C9  UNL     1      18.773 -14.531  23.200  1.00  0.00     0.102 C 
BRANCH  16  17
HETATM   17  C10 UNL     1      19.052 -14.681  24.659  1.00  0.00     0.021 C 
BRANCH  17  18
HETATM   18  C11 UNL     1      20.471 -14.598  25.036  1.00  0.00     0.118 C 
BRANCH  18  19
HETATM   19  C12 UNL     1      20.748 -14.154  26.420  1.00  0.00     0.387 C 
HETATM   20  F1  UNL     1      22.057 -14.536  26.815  1.00  0.00    -0.171 F 
HETATM   21  F2  UNL     1      20.755 -12.751  26.465  1.00  0.00    -0.171 F 
HETATM   22  F3  UNL     1      19.883 -14.624  27.372  1.00  0.00    -0.171 F 
ENDBRANCH  18  19
ENDBRANCH  17  18
ENDBRANCH  16  17
ENDBRANCH  14  16
ENDBRANCH  12  14
ENDBRANCH   1  12
BRANCH   1  23
HETATM   23  C13 UNL     1      15.960 -14.373  20.077  1.00  0.00     0.331 C 
HETATM   24  N3  UNL     1      14.983 -14.085  19.019  1.00  0.00    -0.036 N 
HETATM   25  C14 UNL     1      14.851 -12.647  18.965  1.00  0.00     0.283 C 
ATOM     26  H32 UNL     1      15.226 -14.502  18.120  1.00  0.00     0.281 HD
ATOM     27  H31 UNL     1      14.094 -14.568  19.147  1.00  0.00     0.281 HD
HETATM   28  C15 UNL     1      14.909 -12.268  17.481  1.00  0.00     0.063 C 
HETATM   29  N4  UNL     1      16.070 -12.138  19.557  1.00  0.00    -0.331 N 
HETATM   30  C16 UNL     1      16.930 -13.260  19.791  1.00  0.00     0.256 C 
ATOM     31  H4  UNL     1      16.278 -11.162  19.770  1.00  0.00     0.164 HD
HETATM   32  O2  UNL     1      18.190 -13.280  19.757  1.00  0.00    -0.271 OA
ENDBRANCH   1  23
TORSDOF 11
ENDMDL
