MODEL 1
REMARK VINA RESULT: -7.777579155      0.000      0.000
REMARK  12 active torsions:
REMARK  status: ('A' for Active; 'I' for Inactive)
REMARK    1  A    between atoms: C2_2  and  C4_4 
REMARK    2  A    between atoms: C4_4  and  C5_5 
REMARK    3  A    between atoms: C5_5  and  N1_6 
REMARK    4  A    between atoms: C5_5  and  C17_28 
REMARK       I    between atoms: N1_6  and  C6_8 
REMARK    5  A    between atoms: C6_8  and  C7_10 
REMARK    6  A    between atoms: C7_10  and  C8_11 
REMARK    7  A    between atoms: C7_10  and  N3_23 
REMARK    8  A    between atoms: C8_11  and  C9_12 
REMARK    9  A    between atoms: C9_12  and  C10_13 
REMARK   10  A    between atoms: C13_16  and  C14_17 
REMARK       I    between atoms: C14_17  and  N2_19 
REMARK       I    between atoms: N3_23  and  C16_25 
REMARK   11  A    between atoms: C17_28  and  O4_30 
REMARK   12  A    between atoms: C17_28  and  C19_32 
ROOT
HETATM    1  C7  UNL     1      16.773 -14.822  20.959  1.00  0.00     0.178 C 
ENDROOT
BRANCH   1   2
HETATM    2  C6  UNL     1      17.916 -15.070  21.888  1.00  0.00     0.240 C 
HETATM    3  N1  UNL     1      17.698 -15.450  23.201  1.00  0.00    -0.351 N 
ATOM      4  H1  UNL     1      16.729 -15.558  23.503  1.00  0.00     0.163 HD
HETATM    5  O1  UNL     1      19.059 -14.905  21.356  1.00  0.00    -0.271 OA
BRANCH   3   6
HETATM    6  C5  UNL     1      18.775 -15.718  24.219  1.00  0.00     0.128 C 
BRANCH   6   7
HETATM    7  C4  UNL     1      19.167 -14.451  24.790  1.00  0.00     0.032 C 
BRANCH   7   8
HETATM    8  C2  UNL     1      20.473 -14.095  25.330  1.00  0.00    -0.021 C 
HETATM    9  C1  UNL     1      21.562 -15.095  24.780  1.00  0.00     0.009 C 
HETATM   10  C3  UNL     1      20.632 -14.182  26.823  1.00  0.00     0.009 C 
ENDBRANCH   7   8
ENDBRANCH   6   7
BRANCH   6  11
HETATM   11  C17 UNL     1      18.322 -16.906  24.925  1.00  0.00     0.172 C 
HETATM   12  C18 UNL     1      18.793 -18.164  24.124  1.00  0.00     0.058 C 
BRANCH  11  13
HETATM   13  O4  UNL     1      16.906 -17.045  24.801  1.00  0.00    -0.379 OA
ATOM     14  H4  UNL     1      16.677 -17.955  24.654  1.00  0.00     0.211 HD
ENDBRANCH  11  13
BRANCH  11  15
HETATM   15  C19 UNL     1      18.619 -17.230  26.317  1.00  0.00     0.419 C 
HETATM   16  F2  UNL     1      17.798 -18.373  26.606  1.00  0.00    -0.168 F 
HETATM   17  F3  UNL     1      18.083 -16.358  27.285  1.00  0.00    -0.168 F 
HETATM   18  F4  UNL     1      19.871 -17.645  26.633  1.00  0.00    -0.168 F 
ENDBRANCH  11  15
ENDBRANCH   6  11
ENDBRANCH   3   6
ENDBRANCH   1   2
BRANCH   1  19
HETATM   19  C8  UNL     1      15.471 -14.681  21.732  1.00  0.00     0.035 C 
BRANCH  19  20
HETATM   20  C9  UNL     1      15.229 -13.269  22.130  1.00  0.00     0.012 C 
BRANCH  20  21
HETATM   21  C10 UNL     1      13.863 -12.753  21.787  1.00  0.00    -0.031 A 
HETATM   22  C11 UNL     1      12.669 -13.626  22.085  1.00  0.00     0.016 C 
HETATM   23  C12 UNL     1      13.672 -11.884  20.580  1.00  0.00     0.025 A 
HETATM   24  C13 UNL     1      13.687 -11.260  21.926  1.00  0.00     0.087 A 
BRANCH  24  25
HETATM   25  C14 UNL     1      12.475 -10.717  22.567  1.00  0.00     0.228 C 
HETATM   26  O2  UNL     1      11.584 -10.207  21.799  1.00  0.00    -0.273 OA
HETATM   27  N2  UNL     1      12.185 -10.693  23.934  1.00  0.00    -0.314 N 
HETATM   28  C15 UNL     1      11.400 -11.624  24.424  1.00  0.00     0.283 C 
ATOM     29  H2  UNL     1      12.574  -9.968  24.537  1.00  0.00     0.170 HD
HETATM   30  F1  UNL     1      11.059 -11.695  25.708  1.00  0.00    -0.201 F 
ENDBRANCH  24  25
ENDBRANCH  20  21
ENDBRANCH  19  20
ENDBRANCH   1  19
BRANCH   1  31
HETATM   31  N3  UNL     1      17.049 -13.693  20.101  1.00  0.00    -0.332 N 
HETATM   32  C16 UNL     1      16.527 -13.485  18.809  1.00  0.00     0.329 C 
HETATM   33  N4  UNL     1      16.840 -12.358  18.008  1.00  0.00    -0.040 NA
HETATM   34  O3  UNL     1      15.723 -14.344  18.308  1.00  0.00    -0.251 OA
ATOM     35  H3  UNL     1      17.680 -12.979  20.463  1.00  0.00     0.164 HD
ENDBRANCH   1  31
TORSDOF 12
ENDMDL
MODEL 2
REMARK VINA RESULT: -7.670632929      2.346      3.314
REMARK  12 active torsions:
REMARK  status: ('A' for Active; 'I' for Inactive)
REMARK    1  A    between atoms: C2_2  and  C4_4 
REMARK    2  A    between atoms: C4_4  and  C5_5 
REMARK    3  A    between atoms: C5_5  and  N1_6 
REMARK    4  A    between atoms: C5_5  and  C17_28 
REMARK       I    between atoms: N1_6  and  C6_8 
REMARK    5  A    between atoms: C6_8  and  C7_10 
REMARK    6  A    between atoms: C7_10  and  C8_11 
REMARK    7  A    between atoms: C7_10  and  N3_23 
REMARK    8  A    between atoms: C8_11  and  C9_12 
REMARK    9  A    between atoms: C9_12  and  C10_13 
REMARK   10  A    between atoms: C13_16  and  C14_17 
REMARK       I    between atoms: C14_17  and  N2_19 
REMARK       I    between atoms: N3_23  and  C16_25 
REMARK   11  A    between atoms: C17_28  and  O4_30 
REMARK   12  A    between atoms: C17_28  and  C19_32 
ROOT
HETATM    1  C7  UNL     1      15.660 -16.016  21.727  1.00  0.00     0.178 C 
ENDROOT
BRANCH   1   2
HETATM    2  C6  UNL     1      17.133 -16.257  21.763  1.00  0.00     0.240 C 
HETATM    3  N1  UNL     1      17.991 -15.348  22.357  1.00  0.00    -0.351 N 
ATOM      4  H1  UNL     1      17.575 -14.513  22.772  1.00  0.00     0.163 HD
HETATM    5  O1  UNL     1      17.492 -17.347  21.214  1.00  0.00    -0.271 OA
BRANCH   3   6
HETATM    6  C5  UNL     1      19.488 -15.491  22.442  1.00  0.00     0.128 C 
BRANCH   6   7
HETATM    7  C4  UNL     1      20.076 -14.496  21.576  1.00  0.00     0.032 C 
BRANCH   7   8
HETATM    8  C2  UNL     1      19.415 -13.757  20.508  1.00  0.00    -0.021 C 
HETATM    9  C1  UNL     1      20.498 -13.033  19.619  1.00  0.00     0.009 C 
HETATM   10  C3  UNL     1      18.497 -12.642  20.927  1.00  0.00     0.009 C 
ENDBRANCH   7   8
ENDBRANCH   6   7
BRANCH   6  11
HETATM   11  C17 UNL     1      19.754 -15.704  23.856  1.00  0.00     0.172 C 
HETATM   12  C18 UNL     1      21.304 -15.695  24.071  1.00  0.00     0.058 C 
BRANCH  11  13
HETATM   13  O4  UNL     1      19.459 -17.054  24.216  1.00  0.00    -0.379 OA
ATOM     14  H4  UNL     1      18.561 -17.126  24.515  1.00  0.00     0.211 HD
ENDBRANCH  11  13
BRANCH  11  15
HETATM   15  C19 UNL     1      19.231 -14.892  24.949  1.00  0.00     0.419 C 
HETATM   16  F2  UNL     1      19.512 -15.655  26.134  1.00  0.00    -0.168 F 
HETATM   17  F3  UNL     1      17.828 -14.850  25.075  1.00  0.00    -0.168 F 
HETATM   18  F4  UNL     1      19.808 -13.689  25.197  1.00  0.00    -0.168 F 
ENDBRANCH  11  15
ENDBRANCH   6  11
ENDBRANCH   3   6
ENDBRANCH   1   2
BRANCH   1  19
HETATM   19  C8  UNL     1      15.345 -14.717  21.002  1.00  0.00     0.035 C 
BRANCH  19  20
HETATM   20  C9  UNL     1      14.962 -13.644  21.958  1.00  0.00     0.012 C 
BRANCH  20  21
HETATM   21  C10 UNL     1      13.705 -12.911  21.597  1.00  0.00    -0.031 A 
HETATM   22  C11 UNL     1      12.387 -13.636  21.727  1.00  0.00     0.016 C 
HETATM   23  C12 UNL     1      13.717 -11.904  20.486  1.00  0.00     0.025 A 
HETATM   24  C13 UNL     1      13.716 -11.430  21.891  1.00  0.00     0.087 A 
BRANCH  24  25
HETATM   25  C14 UNL     1      12.544 -10.792  22.518  1.00  0.00     0.228 C 
HETATM   26  O2  UNL     1      11.700 -10.224  21.739  1.00  0.00    -0.273 OA
HETATM   27  N2  UNL     1      12.246 -10.736  23.883  1.00  0.00    -0.314 N 
HETATM   28  C15 UNL     1      11.390 -11.603  24.373  1.00  0.00     0.283 C 
ATOM     29  H2  UNL     1      12.684 -10.038  24.484  1.00  0.00     0.170 HD
HETATM   30  F1  UNL     1      11.036 -11.637  25.655  1.00  0.00    -0.201 F 
ENDBRANCH  24  25
ENDBRANCH  20  21
ENDBRANCH  19  20
ENDBRANCH   1  19
BRANCH   1  31
HETATM   31  N3  UNL     1      14.969 -17.157  21.172  1.00  0.00    -0.332 N 
HETATM   32  C16 UNL     1      13.678 -17.597  21.524  1.00  0.00     0.329 C 
HETATM   33  N4  UNL     1      13.052 -18.732  20.949  1.00  0.00    -0.040 NA
HETATM   34  O3  UNL     1      13.011 -16.956  22.406  1.00  0.00    -0.251 OA
ATOM     35  H3  UNL     1      15.462 -17.695  20.460  1.00  0.00     0.164 HD
ENDBRANCH   1  31
TORSDOF 12
ENDMDL
MODEL 3
REMARK VINA RESULT: -7.628327469      2.269      2.925
REMARK  12 active torsions:
REMARK  status: ('A' for Active; 'I' for Inactive)
REMARK    1  A    between atoms: C2_2  and  C4_4 
REMARK    2  A    between atoms: C4_4  and  C5_5 
REMARK    3  A    between atoms: C5_5  and  N1_6 
REMARK    4  A    between atoms: C5_5  and  C17_28 
REMARK       I    between atoms: N1_6  and  C6_8 
REMARK    5  A    between atoms: C6_8  and  C7_10 
REMARK    6  A    between atoms: C7_10  and  C8_11 
REMARK    7  A    between atoms: C7_10  and  N3_23 
REMARK    8  A    between atoms: C8_11  and  C9_12 
REMARK    9  A    between atoms: C9_12  and  C10_13 
REMARK   10  A    between atoms: C13_16  and  C14_17 
REMARK       I    between atoms: C14_17  and  N2_19 
REMARK       I    between atoms: N3_23  and  C16_25 
REMARK   11  A    between atoms: C17_28  and  O4_30 
REMARK   12  A    between atoms: C17_28  and  C19_32 
ROOT
HETATM    1  C7  UNL     1      16.517 -15.309  21.259  1.00  0.00     0.178 C 
ENDROOT
BRANCH   1   2
HETATM    2  C6  UNL     1      17.671 -15.531  22.180  1.00  0.00     0.240 C 
HETATM    3  N1  UNL     1      17.477 -15.709  23.538  1.00  0.00    -0.351 N 
ATOM      4  H1  UNL     1      16.516 -15.687  23.881  1.00  0.00     0.163 HD
HETATM    5  O1  UNL     1      18.802 -15.542  21.596  1.00  0.00    -0.271 OA
BRANCH   3   6
HETATM    6  C5  UNL     1      18.569 -15.932  24.551  1.00  0.00     0.128 C 
BRANCH   6   7
HETATM    7  C4  UNL     1      18.953 -14.644  25.078  1.00  0.00     0.032 C 
BRANCH   7   8
HETATM    8  C2  UNL     1      20.296 -14.200  25.430  1.00  0.00    -0.021 C 
HETATM    9  C1  UNL     1      21.356 -15.191  24.813  1.00  0.00     0.009 C 
HETATM   10  C3  UNL     1      20.638 -14.180  26.894  1.00  0.00     0.009 C 
ENDBRANCH   7   8
ENDBRANCH   6   7
BRANCH   6  11
HETATM   11  C17 UNL     1      18.139 -17.103  25.299  1.00  0.00     0.172 C 
HETATM   12  C18 UNL     1      18.671 -18.378  24.566  1.00  0.00     0.058 C 
BRANCH  11  13
HETATM   13  O4  UNL     1      16.731 -17.296  25.148  1.00  0.00    -0.379 OA
ATOM     14  H4  UNL     1      16.555 -18.152  24.776  1.00  0.00     0.211 HD
ENDBRANCH  11  13
BRANCH  11  15
HETATM   15  C19 UNL     1      18.411 -17.355  26.710  1.00  0.00     0.419 C 
HETATM   16  F2  UNL     1      19.840 -17.491  26.785  1.00  0.00    -0.168 F 
HETATM   17  F3  UNL     1      18.069 -18.635  27.190  1.00  0.00    -0.168 F 
HETATM   18  F4  UNL     1      18.134 -16.376  27.608  1.00  0.00    -0.168 F 
ENDBRANCH  11  15
ENDBRANCH   6  11
ENDBRANCH   3   6
ENDBRANCH   1   2
BRANCH   1  19
HETATM   19  C8  UNL     1      16.783 -14.129  20.337  1.00  0.00     0.035 C 
BRANCH  19  20
HETATM   20  C9  UNL     1      16.249 -12.865  20.908  1.00  0.00     0.012 C 
BRANCH  20  21
HETATM   21  C10 UNL     1      14.756 -12.742  20.857  1.00  0.00    -0.031 A 
HETATM   22  C11 UNL     1      14.032 -13.264  19.641  1.00  0.00     0.016 C 
HETATM   23  C12 UNL     1      14.080 -11.557  21.483  1.00  0.00     0.025 A 
HETATM   24  C13 UNL     1      14.055 -12.861  22.189  1.00  0.00     0.087 A 
BRANCH  24  25
HETATM   25  C14 UNL     1      12.835 -13.680  22.311  1.00  0.00     0.228 C 
HETATM   26  O2  UNL     1      11.711 -13.081  22.167  1.00  0.00    -0.273 OA
HETATM   27  N2  UNL     1      12.765 -15.052  22.569  1.00  0.00    -0.314 N 
HETATM   28  C15 UNL     1      12.593 -15.872  21.557  1.00  0.00     0.283 C 
ATOM     29  H2  UNL     1      12.845 -15.409  23.521  1.00  0.00     0.170 HD
HETATM   30  F1  UNL     1      12.511 -17.193  21.690  1.00  0.00    -0.201 F 
ENDBRANCH  24  25
ENDBRANCH  20  21
ENDBRANCH  19  20
ENDBRANCH   1  19
BRANCH   1  31
HETATM   31  N3  UNL     1      16.189 -16.523  20.548  1.00  0.00    -0.332 N 
HETATM   32  C16 UNL     1      15.720 -17.721  21.122  1.00  0.00     0.329 C 
HETATM   33  N4  UNL     1      15.422 -18.886  20.372  1.00  0.00    -0.040 NA
HETATM   34  O3  UNL     1      15.545 -17.788  22.387  1.00  0.00    -0.251 OA
ATOM     35  H3  UNL     1      16.308 -16.512  19.535  1.00  0.00     0.164 HD
ENDBRANCH   1  31
TORSDOF 12
ENDMDL
MODEL 4
REMARK VINA RESULT: -7.597858524      3.165      8.140
REMARK  12 active torsions:
REMARK  status: ('A' for Active; 'I' for Inactive)
REMARK    1  A    between atoms: C2_2  and  C4_4 
REMARK    2  A    between atoms: C4_4  and  C5_5 
REMARK    3  A    between atoms: C5_5  and  N1_6 
REMARK    4  A    between atoms: C5_5  and  C17_28 
REMARK       I    between atoms: N1_6  and  C6_8 
REMARK    5  A    between atoms: C6_8  and  C7_10 
REMARK    6  A    between atoms: C7_10  and  C8_11 
REMARK    7  A    between atoms: C7_10  and  N3_23 
REMARK    8  A    between atoms: C8_11  and  C9_12 
REMARK    9  A    between atoms: C9_12  and  C10_13 
REMARK   10  A    between atoms: C13_16  and  C14_17 
REMARK       I    between atoms: C14_17  and  N2_19 
REMARK       I    between atoms: N3_23  and  C16_25 
REMARK   11  A    between atoms: C17_28  and  O4_30 
REMARK   12  A    between atoms: C17_28  and  C19_32 
ROOT
HETATM    1  C7  UNL     1      17.944 -14.388  22.343  1.00  0.00     0.178 C 
ENDROOT
BRANCH   1   2
HETATM    2  C6  UNL     1      16.602 -14.435  21.690  1.00  0.00     0.240 C 
HETATM    3  N1  UNL     1      15.658 -13.451  21.927  1.00  0.00    -0.351 N 
ATOM      4  H1  UNL     1      15.919 -12.694  22.560  1.00  0.00     0.163 HD
HETATM    5  O1  UNL     1      16.437 -15.435  20.921  1.00  0.00    -0.271 OA
BRANCH   3   6
HETATM    6  C5  UNL     1      14.278 -13.407  21.327  1.00  0.00     0.128 C 
BRANCH   6   7
HETATM    7  C4  UNL     1      13.427 -14.269  22.113  1.00  0.00     0.032 C 
BRANCH   7   8
HETATM    8  C2  UNL     1      12.636 -15.397  21.638  1.00  0.00    -0.021 C 
HETATM    9  C1  UNL     1      13.370 -16.746  21.999  1.00  0.00     0.009 C 
HETATM   10  C3  UNL     1      12.423 -15.494  20.153  1.00  0.00     0.009 C 
ENDBRANCH   7   8
ENDBRANCH   6   7
BRANCH   6  11
HETATM   11  C17 UNL     1      14.064 -12.005  21.006  1.00  0.00     0.172 C 
HETATM   12  C18 UNL     1      13.735 -11.895  19.481  1.00  0.00     0.058 C 
BRANCH  11  13
HETATM   13  O4  UNL     1      15.303 -11.294  21.046  1.00  0.00    -0.379 OA
ATOM     14  H4  UNL     1      15.443 -10.830  20.230  1.00  0.00     0.211 HD
ENDBRANCH  11  13
BRANCH  11  15
HETATM   15  C19 UNL     1      13.096 -11.125  21.652  1.00  0.00     0.419 C 
HETATM   16  F2  UNL     1      12.894 -10.057  20.712  1.00  0.00    -0.168 F 
HETATM   17  F3  UNL     1      13.581 -10.350  22.724  1.00  0.00    -0.168 F 
HETATM   18  F4  UNL     1      11.844 -11.595  21.878  1.00  0.00    -0.168 F 
ENDBRANCH  11  15
ENDBRANCH   6  11
ENDBRANCH   3   6
ENDBRANCH   1   2
BRANCH   1  19
HETATM   19  C8  UNL     1      18.135 -15.581  23.267  1.00  0.00     0.035 C 
BRANCH  19  20
HETATM   20  C9  UNL     1      18.202 -15.158  24.691  1.00  0.00     0.012 C 
BRANCH  20  21
HETATM   21  C10 UNL     1      19.348 -15.743  25.460  1.00  0.00    -0.031 A 
HETATM   22  C11 UNL     1      20.130 -16.873  24.836  1.00  0.00     0.016 C 
HETATM   23  C12 UNL     1      19.281 -15.827  26.956  1.00  0.00     0.025 A 
HETATM   24  C13 UNL     1      20.106 -14.767  26.327  1.00  0.00     0.087 A 
BRANCH  24  25
HETATM   25  C14 UNL     1      21.580 -14.787  26.345  1.00  0.00     0.228 C 
HETATM   26  O2  UNL     1      22.145 -15.545  27.211  1.00  0.00    -0.273 OA
HETATM   27  N2  UNL     1      22.442 -14.063  25.516  1.00  0.00    -0.314 N 
HETATM   28  C15 UNL     1      22.961 -14.667  24.472  1.00  0.00     0.283 C 
ATOM     29  H2  UNL     1      22.662 -13.087  25.717  1.00  0.00     0.170 HD
HETATM   30  F1  UNL     1      23.792 -14.072  23.619  1.00  0.00    -0.201 F 
ENDBRANCH  24  25
ENDBRANCH  20  21
ENDBRANCH  19  20
ENDBRANCH   1  19
BRANCH   1  31
HETATM   31  N3  UNL     1      18.990 -14.264  21.354  1.00  0.00    -0.332 N 
HETATM   32  C16 UNL     1      19.126 -13.222  20.416  1.00  0.00     0.329 C 
HETATM   33  N4  UNL     1      20.173 -13.157  19.462  1.00  0.00    -0.040 NA
HETATM   34  O3  UNL     1      18.273 -12.270  20.403  1.00  0.00    -0.251 OA
ATOM     35  H3  UNL     1      19.697 -14.999  21.333  1.00  0.00     0.164 HD
ENDBRANCH   1  31
TORSDOF 12
ENDMDL
MODEL 5
REMARK VINA RESULT: -7.532155400      1.713      2.157
REMARK  12 active torsions:
REMARK  status: ('A' for Active; 'I' for Inactive)
REMARK    1  A    between atoms: C2_2  and  C4_4 
REMARK    2  A    between atoms: C4_4  and  C5_5 
REMARK    3  A    between atoms: C5_5  and  N1_6 
REMARK    4  A    between atoms: C5_5  and  C17_28 
REMARK       I    between atoms: N1_6  and  C6_8 
REMARK    5  A    between atoms: C6_8  and  C7_10 
REMARK    6  A    between atoms: C7_10  and  C8_11 
REMARK    7  A    between atoms: C7_10  and  N3_23 
REMARK    8  A    between atoms: C8_11  and  C9_12 
REMARK    9  A    between atoms: C9_12  and  C10_13 
REMARK   10  A    between atoms: C13_16  and  C14_17 
REMARK       I    between atoms: C14_17  and  N2_19 
REMARK       I    between atoms: N3_23  and  C16_25 
REMARK   11  A    between atoms: C17_28  and  O4_30 
REMARK   12  A    between atoms: C17_28  and  C19_32 
ROOT
HETATM    1  C7  UNL     1      15.526 -15.735  21.699  1.00  0.00     0.178 C 
ENDROOT
BRANCH   1   2
HETATM    2  C6  UNL     1      16.871 -15.947  22.312  1.00  0.00     0.240 C 
HETATM    3  N1  UNL     1      17.060 -15.827  23.678  1.00  0.00    -0.351 N 
ATOM      4  H1  UNL     1      16.244 -15.594  24.245  1.00  0.00     0.163 HD
HETATM    5  O1  UNL     1      17.780 -16.243  21.472  1.00  0.00    -0.271 OA
BRANCH   3   6
HETATM    6  C5  UNL     1      18.372 -16.013  24.394  1.00  0.00     0.128 C 
BRANCH   6   7
HETATM    7  C4  UNL     1      18.840 -14.710  24.803  1.00  0.00     0.032 C 
BRANCH   7   8
HETATM    8  C2  UNL     1      20.214 -14.316  25.084  1.00  0.00    -0.021 C 
HETATM    9  C1  UNL     1      21.202 -15.402  24.509  1.00  0.00     0.009 C 
HETATM   10  C3  UNL     1      20.604 -14.213  26.533  1.00  0.00     0.009 C 
ENDBRANCH   7   8
ENDBRANCH   6   7
BRANCH   6  11
HETATM   11  C17 UNL     1      18.167 -17.184  25.231  1.00  0.00     0.172 C 
HETATM   12  C18 UNL     1      18.704 -18.437  24.465  1.00  0.00     0.058 C 
BRANCH  11  13
HETATM   13  O4  UNL     1      16.777 -17.508  25.298  1.00  0.00    -0.379 OA
ATOM     14  H4  UNL     1      16.597 -18.026  26.073  1.00  0.00     0.211 HD
ENDBRANCH  11  13
BRANCH  11  15
HETATM   15  C19 UNL     1      18.664 -17.350  26.593  1.00  0.00     0.419 C 
HETATM   16  F2  UNL     1      17.990 -18.521  27.085  1.00  0.00    -0.168 F 
HETATM   17  F3  UNL     1      18.181 -16.433  27.547  1.00  0.00    -0.168 F 
HETATM   18  F4  UNL     1      19.978 -17.638  26.773  1.00  0.00    -0.168 F 
ENDBRANCH  11  15
ENDBRANCH   6  11
ENDBRANCH   3   6
ENDBRANCH   1   2
BRANCH   1  19
HETATM   19  C8  UNL     1      15.471 -14.403  20.969  1.00  0.00     0.035 C 
BRANCH  19  20
HETATM   20  C9  UNL     1      15.081 -13.299  21.885  1.00  0.00     0.012 C 
BRANCH  20  21
HETATM   21  C10 UNL     1      13.747 -12.684  21.584  1.00  0.00    -0.031 A 
HETATM   22  C11 UNL     1      12.507 -13.516  21.798  1.00  0.00     0.016 C 
HETATM   23  C12 UNL     1      13.612 -11.702  20.458  1.00  0.00     0.025 A 
HETATM   24  C13 UNL     1      13.646 -11.202  21.853  1.00  0.00     0.087 A 
BRANCH  24  25
HETATM   25  C14 UNL     1      12.458 -10.655  22.534  1.00  0.00     0.228 C 
HETATM   26  O2  UNL     1      11.559 -10.114  21.799  1.00  0.00    -0.273 OA
HETATM   27  N2  UNL     1      12.200 -10.658  23.909  1.00  0.00    -0.314 N 
HETATM   28  C15 UNL     1      11.412 -11.589  24.395  1.00  0.00     0.283 C 
ATOM     29  H2  UNL     1      12.614  -9.954  24.519  1.00  0.00     0.170 HD
HETATM   30  F1  UNL     1      11.099 -11.685  25.685  1.00  0.00    -0.201 F 
ENDBRANCH  24  25
ENDBRANCH  20  21
ENDBRANCH  19  20
ENDBRANCH   1  19
BRANCH   1  31
HETATM   31  N3  UNL     1      15.163 -16.856  20.862  1.00  0.00    -0.332 N 
HETATM   32  C16 UNL     1      14.141 -17.790  21.123  1.00  0.00     0.329 C 
HETATM   33  N4  UNL     1      13.835 -18.877  20.266  1.00  0.00    -0.040 NA
HETATM   34  O3  UNL     1      13.436 -17.674  22.183  1.00  0.00    -0.251 OA
ATOM     35  H3  UNL     1      15.696 -16.984  20.003  1.00  0.00     0.164 HD
ENDBRANCH   1  31
TORSDOF 12
ENDMDL
