MODEL 1
REMARK VINA RESULT: -5.805936884      0.000      0.000
REMARK  6 active torsions:
REMARK  status: ('A' for Active; 'I' for Inactive)
REMARK    1  A    between atoms: C5_6  and  C6_7 
REMARK    2  A    between atoms: C6_7  and  N2_8 
REMARK    3  A    between atoms: N2_8  and  C7_10 
REMARK    4  A    between atoms: C7_10  and  N3_12 
REMARK    5  A    between atoms: N3_12  and  C8_14 
REMARK    6  A    between atoms: C8_14  and  C9_15 
ROOT
HETATM    1  N2  UNL     1      31.045   8.853  29.855  1.00  0.00    -0.367 N 
ATOM      2  H2  UNL     1      31.885   9.396  29.658  1.00  0.00     0.161 HD
ENDROOT
BRANCH   1   3
HETATM    3  C6  UNL     1      30.072   9.386  30.790  1.00  0.00     0.126 C 
BRANCH   3   4
HETATM    4  C5  UNL     1      30.656  10.538  31.574  1.00  0.00     0.006 C 
HETATM    5  C4  UNL     1      29.919  11.822  31.391  1.00  0.00     0.034 C 
HETATM    6  C3  UNL     1      30.794  12.925  30.837  1.00  0.00     0.237 C 
HETATM    7  N1  UNL     1      31.891  13.172  31.750  1.00  0.00    -0.075 N 
HETATM    8  C1  UNL     1      32.953  13.954  31.144  1.00  0.00     0.272 C 
HETATM    9  C2  UNL     1      31.367  13.960  32.864  1.00  0.00     0.272 C 
HETATM   10  C12 UNL     1      32.507  11.944  32.226  1.00  0.00     0.237 C 
HETATM   11  C11 UNL     1      32.117  10.766  31.320  1.00  0.00     0.034 C 
ENDBRANCH   3   4
ENDBRANCH   1   3
BRANCH   1  12
HETATM   12  C7  UNL     1      30.871   7.606  29.206  1.00  0.00     0.167 C 
HETATM   13  S1  UNL     1      29.559   6.682  29.461  1.00  0.00    -0.041 SA
BRANCH  12  14
HETATM   14  N3  UNL     1      31.866   7.153  28.309  1.00  0.00    -0.365 N 
ATOM     15  H3  UNL     1      32.630   7.787  28.075  1.00  0.00     0.161 HD
BRANCH  14  16
HETATM   16  C8  UNL     1      31.859   5.837  27.703  1.00  0.00     0.156 C 
BRANCH  16  17
HETATM   17  C9  UNL     1      32.745   4.895  28.517  1.00  0.00     0.229 A 
HETATM   18  C10 UNL     1      34.159   4.856  28.138  1.00  0.00     0.267 A 
HETATM   19  N4  UNL     1      33.245   3.710  27.864  1.00  0.00    -0.066 N 
ATOM     20  H42 UNL     1      33.251   2.714  28.082  1.00  0.00     0.277 HD
ATOM     21  H41 UNL     1      32.983   3.177  27.035  1.00  0.00     0.277 HD
ENDBRANCH  16  17
ENDBRANCH  14  16
ENDBRANCH  12  14
ENDBRANCH   1  12
TORSDOF 6
ENDMDL
MODEL 2
REMARK VINA RESULT: -5.749526169      1.663      2.397
REMARK  6 active torsions:
REMARK  status: ('A' for Active; 'I' for Inactive)
REMARK    1  A    between atoms: C5_6  and  C6_7 
REMARK    2  A    between atoms: C6_7  and  N2_8 
REMARK    3  A    between atoms: N2_8  and  C7_10 
REMARK    4  A    between atoms: C7_10  and  N3_12 
REMARK    5  A    between atoms: N3_12  and  C8_14 
REMARK    6  A    between atoms: C8_14  and  C9_15 
ROOT
HETATM    1  N2  UNL     1      29.114   8.084  30.633  1.00  0.00    -0.367 N 
ATOM      2  H2  UNL     1      29.784   7.900  31.378  1.00  0.00     0.161 HD
ENDROOT
BRANCH   1   3
HETATM    3  C6  UNL     1      28.588   9.429  30.484  1.00  0.00     0.126 C 
BRANCH   3   4
HETATM    4  C5  UNL     1      29.706  10.422  30.271  1.00  0.00     0.006 C 
HETATM    5  C4  UNL     1      31.066   9.846  30.482  1.00  0.00     0.034 C 
HETATM    6  C3  UNL     1      31.843  10.561  31.566  1.00  0.00     0.237 C 
HETATM    7  N1  UNL     1      32.003  11.954  31.203  1.00  0.00    -0.075 N 
HETATM    8  C1  UNL     1      32.422  12.775  32.324  1.00  0.00     0.272 C 
HETATM    9  C2  UNL     1      33.067  12.028  30.203  1.00  0.00     0.272 C 
HETATM   10  C12 UNL     1      30.774  12.544  30.700  1.00  0.00     0.237 C 
HETATM   11  C11 UNL     1      29.568  11.674  31.085  1.00  0.00     0.034 C 
ENDBRANCH   3   4
ENDBRANCH   1   3
BRANCH   1  12
HETATM   12  C7  UNL     1      28.731   7.019  29.781  1.00  0.00     0.167 C 
HETATM   13  S1  UNL     1      27.495   7.159  28.735  1.00  0.00    -0.041 SA
BRANCH  12  14
HETATM   14  N3  UNL     1      29.444   5.800  29.840  1.00  0.00    -0.365 N 
ATOM     15  H3  UNL     1      29.466   5.296  30.727  1.00  0.00     0.161 HD
BRANCH  14  16
HETATM   16  C8  UNL     1      30.147   5.227  28.711  1.00  0.00     0.156 C 
BRANCH  16  17
HETATM   17  C9  UNL     1      31.518   5.886  28.574  1.00  0.00     0.229 A 
HETATM   18  C10 UNL     1      31.627   6.936  27.558  1.00  0.00     0.267 A 
HETATM   19  N4  UNL     1      32.284   5.608  27.383  1.00  0.00    -0.066 N 
ATOM     20  H42 UNL     1      33.234   5.291  27.194  1.00  0.00     0.277 HD
ATOM     21  H41 UNL     1      32.266   4.882  26.667  1.00  0.00     0.277 HD
ENDBRANCH  16  17
ENDBRANCH  14  16
ENDBRANCH  12  14
ENDBRANCH   1  12
TORSDOF 6
ENDMDL
MODEL 3
REMARK VINA RESULT: -5.742746208      1.900      2.150
REMARK  6 active torsions:
REMARK  status: ('A' for Active; 'I' for Inactive)
REMARK    1  A    between atoms: C5_6  and  C6_7 
REMARK    2  A    between atoms: C6_7  and  N2_8 
REMARK    3  A    between atoms: N2_8  and  C7_10 
REMARK    4  A    between atoms: C7_10  and  N3_12 
REMARK    5  A    between atoms: N3_12  and  C8_14 
REMARK    6  A    between atoms: C8_14  and  C9_15 
ROOT
HETATM    1  N2  UNL     1      28.328   8.428  31.061  1.00  0.00    -0.367 N 
ATOM      2  H2  UNL     1      28.391   8.086  32.020  1.00  0.00     0.161 HD
ENDROOT
BRANCH   1   3
HETATM    3  C6  UNL     1      28.380   9.860  30.826  1.00  0.00     0.126 C 
BRANCH   3   4
HETATM    4  C5  UNL     1      29.639  10.455  31.411  1.00  0.00     0.006 C 
HETATM    5  C4  UNL     1      29.687  11.944  31.334  1.00  0.00     0.034 C 
HETATM    6  C3  UNL     1      30.880  12.452  30.555  1.00  0.00     0.237 C 
HETATM    7  N1  UNL     1      32.100  12.001  31.194  1.00  0.00    -0.075 N 
HETATM    8  C1  UNL     1      33.262  12.144  30.337  1.00  0.00     0.272 C 
HETATM    9  C2  UNL     1      32.326  12.855  32.359  1.00  0.00     0.272 C 
HETATM   10  C12 UNL     1      32.042  10.601  31.579  1.00  0.00     0.237 C 
HETATM   11  C11 UNL     1      30.902   9.889  30.834  1.00  0.00     0.034 C 
ENDBRANCH   3   4
ENDBRANCH   1   3
BRANCH   1  12
HETATM   12  C7  UNL     1      28.194   7.490  30.010  1.00  0.00     0.167 C 
HETATM   13  S1  UNL     1      27.268   7.786  28.708  1.00  0.00    -0.041 SA
BRANCH  12  14
HETATM   14  N3  UNL     1      28.886   6.259  30.093  1.00  0.00    -0.365 N 
ATOM     15  H3  UNL     1      29.003   5.832  31.012  1.00  0.00     0.161 HD
BRANCH  14  16
HETATM   16  C8  UNL     1      29.439   5.571  28.945  1.00  0.00     0.156 C 
BRANCH  16  17
HETATM   17  C9  UNL     1      30.962   5.528  29.060  1.00  0.00     0.229 A 
HETATM   18  C10 UNL     1      31.695   6.502  28.247  1.00  0.00     0.267 A 
HETATM   19  N4  UNL     1      31.709   5.046  27.923  1.00  0.00    -0.066 N 
ATOM     20  H42 UNL     1      32.436   4.345  27.782  1.00  0.00     0.277 HD
ATOM     21  H41 UNL     1      31.489   4.487  27.099  1.00  0.00     0.277 HD
ENDBRANCH  16  17
ENDBRANCH  14  16
ENDBRANCH  12  14
ENDBRANCH   1  12
TORSDOF 6
ENDMDL
MODEL 4
REMARK VINA RESULT: -5.692185914      3.186      4.598
REMARK  6 active torsions:
REMARK  status: ('A' for Active; 'I' for Inactive)
REMARK    1  A    between atoms: C5_6  and  C6_7 
REMARK    2  A    between atoms: C6_7  and  N2_8 
REMARK    3  A    between atoms: N2_8  and  C7_10 
REMARK    4  A    between atoms: C7_10  and  N3_12 
REMARK    5  A    between atoms: N3_12  and  C8_14 
REMARK    6  A    between atoms: C8_14  and  C9_15 
ROOT
HETATM    1  N2  UNL     1      30.321   8.583  29.774  1.00  0.00    -0.367 N 
ATOM      2  H2  UNL     1      31.016   9.312  29.613  1.00  0.00     0.161 HD
ENDROOT
BRANCH   1   3
HETATM    3  C6  UNL     1      29.108   8.923  30.495  1.00  0.00     0.126 C 
BRANCH   3   4
HETATM    4  C5  UNL     1      28.079   9.520  29.565  1.00  0.00     0.006 C 
HETATM    5  C4  UNL     1      27.674  10.908  29.931  1.00  0.00     0.034 C 
HETATM    6  C3  UNL     1      26.192  11.034  30.203  1.00  0.00     0.237 C 
HETATM    7  N1  UNL     1      25.451  10.656  29.017  1.00  0.00    -0.075 N 
HETATM    8  C1  UNL     1      24.047  10.415  29.291  1.00  0.00     0.272 C 
HETATM    9  C2  UNL     1      25.514  11.780  28.084  1.00  0.00     0.272 C 
HETATM   10  C12 UNL     1      25.964   9.442  28.403  1.00  0.00     0.237 C 
HETATM   11  C11 UNL     1      26.851   8.675  29.397  1.00  0.00     0.034 C 
ENDBRANCH   3   4
ENDBRANCH   1   3
BRANCH   1  12
HETATM   12  C7  UNL     1      30.575   7.279  29.286  1.00  0.00     0.167 C 
HETATM   13  S1  UNL     1      29.569   6.039  29.588  1.00  0.00    -0.041 SA
BRANCH  12  14
HETATM   14  N3  UNL     1      31.735   7.048  28.511  1.00  0.00    -0.365 N 
ATOM     15  H3  UNL     1      32.462   7.764  28.505  1.00  0.00     0.161 HD
BRANCH  14  16
HETATM   16  C8  UNL     1      31.950   5.849  27.726  1.00  0.00     0.156 C 
BRANCH  16  17
HETATM   17  C9  UNL     1      32.816   4.869  28.515  1.00  0.00     0.229 A 
HETATM   18  C10 UNL     1      34.225   4.798  28.122  1.00  0.00     0.267 A 
HETATM   19  N4  UNL     1      33.277   3.682  27.837  1.00  0.00    -0.066 N 
ATOM     20  H42 UNL     1      33.257   2.683  28.038  1.00  0.00     0.277 HD
ATOM     21  H41 UNL     1      32.992   3.172  27.001  1.00  0.00     0.277 HD
ENDBRANCH  16  17
ENDBRANCH  14  16
ENDBRANCH  12  14
ENDBRANCH   1  12
TORSDOF 6
ENDMDL
MODEL 5
REMARK VINA RESULT: -5.631075775      1.598      1.760
REMARK  6 active torsions:
REMARK  status: ('A' for Active; 'I' for Inactive)
REMARK    1  A    between atoms: C5_6  and  C6_7 
REMARK    2  A    between atoms: C6_7  and  N2_8 
REMARK    3  A    between atoms: N2_8  and  C7_10 
REMARK    4  A    between atoms: C7_10  and  N3_12 
REMARK    5  A    between atoms: N3_12  and  C8_14 
REMARK    6  A    between atoms: C8_14  and  C9_15 
ROOT
HETATM    1  N2  UNL     1      29.162   8.291  30.565  1.00  0.00    -0.367 N 
ATOM      2  H2  UNL     1      28.658   8.580  31.403  1.00  0.00     0.161 HD
ENDROOT
BRANCH   1   3
HETATM    3  C6  UNL     1      30.379   8.995  30.204  1.00  0.00     0.126 C 
BRANCH   3   4
HETATM    4  C5  UNL     1      30.500  10.288  30.975  1.00  0.00     0.006 C 
HETATM    5  C4  UNL     1      30.031  11.483  30.215  1.00  0.00     0.034 C 
HETATM    6  C3  UNL     1      31.111  12.528  30.042  1.00  0.00     0.237 C 
HETATM    7  N1  UNL     1      31.558  12.978  31.344  1.00  0.00    -0.075 N 
HETATM    8  C1  UNL     1      32.810  13.709  31.280  1.00  0.00     0.272 C 
HETATM    9  C2  UNL     1      30.552  13.908  31.855  1.00  0.00     0.272 C 
HETATM   10  C12 UNL     1      31.770  11.880  32.271  1.00  0.00     0.237 C 
HETATM   11  C11 UNL     1      31.877  10.550  31.508  1.00  0.00     0.034 C 
ENDBRANCH   3   4
ENDBRANCH   1   3
BRANCH   1  12
HETATM   12  C7  UNL     1      28.648   7.218  29.797  1.00  0.00     0.167 C 
HETATM   13  S1  UNL     1      27.431   7.425  28.741  1.00  0.00    -0.041 SA
BRANCH  12  14
HETATM   14  N3  UNL     1      29.212   5.930  29.950  1.00  0.00    -0.365 N 
ATOM     15  H3  UNL     1      29.153   5.483  30.865  1.00  0.00     0.161 HD
BRANCH  14  16
HETATM   16  C8  UNL     1      29.869   5.210  28.878  1.00  0.00     0.156 C 
BRANCH  16  17
HETATM   17  C9  UNL     1      31.340   5.614  28.818  1.00  0.00     0.229 A 
HETATM   18  C10 UNL     1      31.733   6.437  27.671  1.00  0.00     0.267 A 
HETATM   19  N4  UNL     1      32.162   5.014  27.794  1.00  0.00    -0.066 N 
ATOM     20  H42 UNL     1      33.057   4.526  27.782  1.00  0.00     0.277 HD
ATOM     21  H41 UNL     1      32.090   4.184  27.206  1.00  0.00     0.277 HD
ENDBRANCH  16  17
ENDBRANCH  14  16
ENDBRANCH  12  14
ENDBRANCH   1  12
TORSDOF 6
ENDMDL
