MODEL 1
REMARK VINA RESULT: -6.056510668      0.000      0.000
REMARK  6 active torsions:
REMARK  status: ('A' for Active; 'I' for Inactive)
REMARK    1  A    between atoms: N1_2  and  C2_3 
REMARK    2  A    between atoms: C2_3  and  C3_4 
REMARK    3  A    between atoms: C3_4  and  C4_5 
REMARK    4  A    between atoms: C4_5  and  N2_6 
REMARK    5  A    between atoms: C7_9  and  O1_10 
REMARK    6  A    between atoms: C14_18  and  O2_19 
ROOT
HETATM    1  C3  UNL     1      27.700   8.363  28.926  1.00  0.00     0.056 C 
ENDROOT
BRANCH   1   2
HETATM    2  C2  UNL     1      27.723   8.952  30.284  1.00  0.00     0.241 C 
BRANCH   2   3
HETATM    3  N1  UNL     1      28.614  10.025  30.530  1.00  0.00    -0.045 N 
HETATM    4  C1  UNL     1      29.985   9.642  30.700  1.00  0.00     0.275 C 
HETATM    5  C11 UNL     1      28.505  11.130  29.619  1.00  0.00     0.240 C 
HETATM    6  C12 UNL     1      27.316  11.964  30.041  1.00  0.00     0.032 C 
HETATM    7  C13 UNL     1      27.010  11.515  31.446  1.00  0.00     0.063 C 
HETATM    8  C14 UNL     1      28.194  10.668  31.787  1.00  0.00     0.322 C 
BRANCH   8   9
HETATM    9  O2  UNL     1      27.885   9.683  32.740  1.00  0.00    -0.369 OA
ATOM     10  H2  UNL     1      28.397   9.828  33.527  1.00  0.00     0.212 HD
ENDBRANCH   8   9
ENDBRANCH   2   3
ENDBRANCH   1   2
BRANCH   1  11
HETATM   11  C4  UNL     1      27.796   6.880  28.917  1.00  0.00     0.239 C 
BRANCH  11  12
HETATM   12  N2  UNL     1      29.149   6.391  28.769  1.00  0.00    -0.066 N 
HETATM   13  C5  UNL     1      30.042   7.192  27.997  1.00  0.00     0.240 C 
HETATM   14  C6  UNL     1      31.489   6.916  28.364  1.00  0.00     0.060 C 
HETATM   15  C7  UNL     1      31.704   5.498  28.813  1.00  0.00     0.127 C 
HETATM   16  C8  UNL     1      30.440   4.903  29.355  1.00  0.00     0.067 C 
HETATM   17  C9  UNL     1      29.282   5.011  28.384  1.00  0.00     0.246 C 
HETATM   18  C10 UNL     1      29.688   6.029  30.071  1.00  0.00     0.246 C 
BRANCH  15  19
HETATM   19  O1  UNL     1      32.284   4.712  27.813  1.00  0.00    -0.395 OA
ATOM     20  H1  UNL     1      32.968   4.147  28.154  1.00  0.00     0.210 HD
ENDBRANCH  15  19
ENDBRANCH  11  12
ENDBRANCH   1  11
TORSDOF 6
ENDMDL
MODEL 2
REMARK VINA RESULT: -5.651855010      2.312      2.676
REMARK  6 active torsions:
REMARK  status: ('A' for Active; 'I' for Inactive)
REMARK    1  A    between atoms: N1_2  and  C2_3 
REMARK    2  A    between atoms: C2_3  and  C3_4 
REMARK    3  A    between atoms: C3_4  and  C4_5 
REMARK    4  A    between atoms: C4_5  and  N2_6 
REMARK    5  A    between atoms: C7_9  and  O1_10 
REMARK    6  A    between atoms: C14_18  and  O2_19 
ROOT
HETATM    1  C3  UNL     1      27.532   8.402  28.760  1.00  0.00     0.056 C 
ENDROOT
BRANCH   1   2
HETATM    2  C2  UNL     1      26.132   8.885  28.751  1.00  0.00     0.241 C 
BRANCH   2   3
HETATM    3  N1  UNL     1      25.907  10.279  28.859  1.00  0.00    -0.045 N 
HETATM    4  C1  UNL     1      26.474  10.891  30.025  1.00  0.00     0.275 C 
HETATM    5  C11 UNL     1      26.222  11.041  27.683  1.00  0.00     0.240 C 
HETATM    6  C12 UNL     1      25.074  10.887  26.710  1.00  0.00     0.032 C 
HETATM    7  C13 UNL     1      23.938  10.348  27.538  1.00  0.00     0.063 C 
HETATM    8  C14 UNL     1      24.451  10.487  28.935  1.00  0.00     0.322 C 
BRANCH   8   9
HETATM    9  O2  UNL     1      23.885   9.540  29.805  1.00  0.00    -0.369 OA
ATOM     10  H2  UNL     1      24.393   9.501  30.608  1.00  0.00     0.212 HD
ENDBRANCH   8   9
ENDBRANCH   2   3
ENDBRANCH   1   2
BRANCH   1  11
HETATM   11  C4  UNL     1      27.652   6.922  28.812  1.00  0.00     0.239 C 
BRANCH  11  12
HETATM   12  N2  UNL     1      29.016   6.450  28.723  1.00  0.00    -0.066 N 
HETATM   13  C5  UNL     1      29.917   7.231  27.941  1.00  0.00     0.240 C 
HETATM   14  C6  UNL     1      31.358   6.998  28.359  1.00  0.00     0.060 C 
HETATM   15  C7  UNL     1      31.583   5.605  28.879  1.00  0.00     0.127 C 
HETATM   16  C8  UNL     1      30.314   5.013  29.411  1.00  0.00     0.067 C 
HETATM   17  C9  UNL     1      29.182   5.057  28.406  1.00  0.00     0.246 C 
HETATM   18  C10 UNL     1      29.523   6.157  30.055  1.00  0.00     0.246 C 
BRANCH  15  19
HETATM   19  O1  UNL     1      32.204   4.785  27.932  1.00  0.00    -0.395 OA
ATOM     20  H1  UNL     1      32.819   5.267  27.390  1.00  0.00     0.210 HD
ENDBRANCH  15  19
ENDBRANCH  11  12
ENDBRANCH   1  11
TORSDOF 6
ENDMDL
MODEL 3
REMARK VINA RESULT: -5.651164582      1.254      2.049
REMARK  6 active torsions:
REMARK  status: ('A' for Active; 'I' for Inactive)
REMARK    1  A    between atoms: N1_2  and  C2_3 
REMARK    2  A    between atoms: C2_3  and  C3_4 
REMARK    3  A    between atoms: C3_4  and  C4_5 
REMARK    4  A    between atoms: C4_5  and  N2_6 
REMARK    5  A    between atoms: C7_9  and  O1_10 
REMARK    6  A    between atoms: C14_18  and  O2_19 
ROOT
HETATM    1  C3  UNL     1      27.702   8.004  29.853  1.00  0.00     0.056 C 
ENDROOT
BRANCH   1   2
HETATM    2  C2  UNL     1      27.923   9.422  29.488  1.00  0.00     0.241 C 
BRANCH   2   3
HETATM    3  N1  UNL     1      28.206  10.341  30.528  1.00  0.00    -0.045 N 
HETATM    4  C1  UNL     1      27.070  11.067  31.015  1.00  0.00     0.275 C 
HETATM    5  C11 UNL     1      28.975   9.811  31.619  1.00  0.00     0.240 C 
HETATM    6  C12 UNL     1      30.426   9.780  31.192  1.00  0.00     0.032 C 
HETATM    7  C13 UNL     1      30.491  10.681  29.986  1.00  0.00     0.063 C 
HETATM    8  C14 UNL     1      29.149  11.338  29.992  1.00  0.00     0.322 C 
BRANCH   8   9
HETATM    9  O2  UNL     1      28.742  11.725  28.703  1.00  0.00    -0.369 OA
ATOM     10  H2  UNL     1      29.501  11.784  28.134  1.00  0.00     0.212 HD
ENDBRANCH   8   9
ENDBRANCH   2   3
ENDBRANCH   1   2
BRANCH   1  11
HETATM   11  C4  UNL     1      27.898   7.060  28.723  1.00  0.00     0.239 C 
BRANCH  11  12
HETATM   12  N2  UNL     1      29.223   6.484  28.675  1.00  0.00    -0.066 N 
HETATM   13  C5  UNL     1      30.185   7.152  27.860  1.00  0.00     0.240 C 
HETATM   14  C6  UNL     1      31.602   6.838  28.306  1.00  0.00     0.060 C 
HETATM   15  C7  UNL     1      31.720   5.463  28.904  1.00  0.00     0.127 C 
HETATM   16  C8  UNL     1      30.407   4.996  29.455  1.00  0.00     0.067 C 
HETATM   17  C9  UNL     1      29.289   5.067  28.437  1.00  0.00     0.246 C 
HETATM   18  C10 UNL     1      29.699   6.230  30.026  1.00  0.00     0.246 C 
BRANCH  15  19
HETATM   19  O1  UNL     1      32.285   4.548  28.011  1.00  0.00    -0.395 OA
ATOM     20  H1  UNL     1      33.044   4.906  27.565  1.00  0.00     0.210 HD
ENDBRANCH  15  19
ENDBRANCH  11  12
ENDBRANCH   1  11
TORSDOF 6
ENDMDL
MODEL 4
REMARK VINA RESULT: -5.648361287      2.771      6.225
REMARK  6 active torsions:
REMARK  status: ('A' for Active; 'I' for Inactive)
REMARK    1  A    between atoms: N1_2  and  C2_3 
REMARK    2  A    between atoms: C2_3  and  C3_4 
REMARK    3  A    between atoms: C3_4  and  C4_5 
REMARK    4  A    between atoms: C4_5  and  N2_6 
REMARK    5  A    between atoms: C7_9  and  O1_10 
REMARK    6  A    between atoms: C14_18  and  O2_19 
ROOT
HETATM    1  C3  UNL     1      29.778   9.516  30.122  1.00  0.00     0.056 C 
ENDROOT
BRANCH   1   2
HETATM    2  C2  UNL     1      29.689   8.041  30.210  1.00  0.00     0.241 C 
BRANCH   2   3
HETATM    3  N1  UNL     1      29.267   7.328  29.061  1.00  0.00    -0.045 N 
HETATM    4  C1  UNL     1      28.167   7.920  28.358  1.00  0.00     0.275 C 
HETATM    5  C11 UNL     1      30.315   6.964  28.150  1.00  0.00     0.240 C 
HETATM    6  C12 UNL     1      31.009   5.741  28.706  1.00  0.00     0.032 C 
HETATM    7  C13 UNL     1      30.062   5.200  29.744  1.00  0.00     0.063 C 
HETATM    8  C14 UNL     1      28.820   5.998  29.506  1.00  0.00     0.322 C 
BRANCH   8   9
HETATM    9  O2  UNL     1      28.041   6.127  30.669  1.00  0.00    -0.369 OA
ATOM     10  H2  UNL     1      28.366   5.534  31.337  1.00  0.00     0.212 HD
ENDBRANCH   8   9
ENDBRANCH   2   3
ENDBRANCH   1   2
BRANCH   1  11
HETATM   11  C4  UNL     1      31.172  10.029  30.093  1.00  0.00     0.239 C 
BRANCH  11  12
HETATM   12  N2  UNL     1      31.411  11.106  31.028  1.00  0.00    -0.066 N 
HETATM   13  C5  UNL     1      32.732  11.221  31.552  1.00  0.00     0.240 C 
HETATM   14  C6  UNL     1      33.015  12.633  32.034  1.00  0.00     0.060 C 
HETATM   15  C7  UNL     1      31.779  13.323  32.537  1.00  0.00     0.127 C 
HETATM   16  C8  UNL     1      30.543  12.742  31.919  1.00  0.00     0.067 C 
HETATM   17  C9  UNL     1      30.454  11.241  32.094  1.00  0.00     0.246 C 
HETATM   18  C10 UNL     1      30.904  12.355  30.481  1.00  0.00     0.246 C 
BRANCH  15  19
HETATM   19  O1  UNL     1      31.721  13.347  33.933  1.00  0.00    -0.395 OA
ATOM     20  H1  UNL     1      31.073  12.742  34.275  1.00  0.00     0.210 HD
ENDBRANCH  15  19
ENDBRANCH  11  12
ENDBRANCH   1  11
TORSDOF 6
ENDMDL
MODEL 5
REMARK VINA RESULT: -5.562481409      2.937      6.180
REMARK  6 active torsions:
REMARK  status: ('A' for Active; 'I' for Inactive)
REMARK    1  A    between atoms: N1_2  and  C2_3 
REMARK    2  A    between atoms: C2_3  and  C3_4 
REMARK    3  A    between atoms: C3_4  and  C4_5 
REMARK    4  A    between atoms: C4_5  and  N2_6 
REMARK    5  A    between atoms: C7_9  and  O1_10 
REMARK    6  A    between atoms: C14_18  and  O2_19 
ROOT
HETATM    1  C3  UNL     1      30.736   9.173  29.934  1.00  0.00     0.056 C 
ENDROOT
BRANCH   1   2
HETATM    2  C2  UNL     1      29.884   7.985  30.169  1.00  0.00     0.241 C 
BRANCH   2   3
HETATM    3  N1  UNL     1      29.425   7.260  29.041  1.00  0.00    -0.045 N 
HETATM    4  C1  UNL     1      28.253   7.799  28.416  1.00  0.00     0.275 C 
HETATM    5  C11 UNL     1      30.430   6.957  28.061  1.00  0.00     0.240 C 
HETATM    6  C12 UNL     1      31.220   5.768  28.559  1.00  0.00     0.032 C 
HETATM    7  C13 UNL     1      30.370   5.170  29.649  1.00  0.00     0.063 C 
HETATM    8  C14 UNL     1      29.077   5.905  29.500  1.00  0.00     0.322 C 
BRANCH   8   9
HETATM    9  O2  UNL     1      28.368   5.984  30.711  1.00  0.00    -0.369 OA
ATOM     10  H2  UNL     1      28.123   5.111  30.995  1.00  0.00     0.212 HD
ENDBRANCH   8   9
ENDBRANCH   2   3
ENDBRANCH   1   2
BRANCH   1  11
HETATM   11  C4  UNL     1      30.060  10.460  30.240  1.00  0.00     0.239 C 
BRANCH  11  12
HETATM   12  N2  UNL     1      30.913  11.414  30.914  1.00  0.00    -0.066 N 
HETATM   13  C5  UNL     1      30.326  12.666  31.264  1.00  0.00     0.240 C 
HETATM   14  C6  UNL     1      31.072  13.325  32.411  1.00  0.00     0.060 C 
HETATM   15  C7  UNL     1      32.535  12.979  32.414  1.00  0.00     0.127 C 
HETATM   16  C8  UNL     1      32.785  11.673  31.721  1.00  0.00     0.067 C 
HETATM   17  C9  UNL     1      32.205  11.634  30.323  1.00  0.00     0.246 C 
HETATM   18  C10 UNL     1      31.587  10.768  32.030  1.00  0.00     0.246 C 
BRANCH  15  19
HETATM   19  O1  UNL     1      33.322  14.016  31.906  1.00  0.00    -0.395 OA
ATOM     20  H1  UNL     1      33.162  14.839  32.355  1.00  0.00     0.210 HD
ENDBRANCH  15  19
ENDBRANCH  11  12
ENDBRANCH   1  11
TORSDOF 6
ENDMDL
