MODEL 1
REMARK VINA RESULT: -5.832520174      0.000      0.000
REMARK  5 active torsions:
REMARK  status: ('A' for Active; 'I' for Inactive)
REMARK    1  A    between atoms: N1_2  and  N2_4 
REMARK    2  A    between atoms: C2_6  and  C3_7 
REMARK    3  A    between atoms: C2_6  and  O1_14 
REMARK    4  A    between atoms: C3_7  and  N3_8 
REMARK    5  A    between atoms: O1_14  and  C9_15 
ROOT
HETATM    1  N2  UNL     1      31.915  10.112  30.944  1.00  0.00    -0.287 N 
ATOM      2  H2  UNL     1      32.749   9.942  30.382  1.00  0.00     0.188 HD
HETATM    3  C2  UNL     1      30.797   9.627  30.600  1.00  0.00     0.159 C 
ENDROOT
BRANCH   3   4
HETATM    4  C3  UNL     1      29.605   9.901  31.445  1.00  0.00     0.322 C 
BRANCH   4   5
HETATM    5  N3  UNL     1      28.587  10.645  30.804  1.00  0.00    -0.064 N 
HETATM    6  C4  UNL     1      29.029  11.616  29.852  1.00  0.00     0.273 C 
HETATM    7  C5  UNL     1      27.720  11.354  31.755  1.00  0.00     0.237 C 
HETATM    8  C6  UNL     1      26.437  11.578  30.997  1.00  0.00     0.029 C 
HETATM    9  C7  UNL     1      26.423  10.578  29.874  1.00  0.00     0.029 C 
HETATM   10  C8  UNL     1      27.646   9.745  30.148  1.00  0.00     0.237 C 
ENDBRANCH   4   5
ENDBRANCH   3   4
BRANCH   3  11
HETATM   11  O1  UNL     1      30.762   8.879  29.467  1.00  0.00    -0.331 OA
BRANCH  11  12
HETATM   12  C9  UNL     1      30.837   7.536  29.250  1.00  0.00     0.130 C 
HETATM   13  C10 UNL     1      29.630   6.684  29.327  1.00  0.00     0.032 C 
HETATM   14  C11 UNL     1      30.088   5.274  29.736  1.00  0.00     0.002 C 
HETATM   15  C12 UNL     1      31.397   4.942  29.098  1.00  0.00     0.000 C 
HETATM   16  C13 UNL     1      31.659   5.689  27.830  1.00  0.00     0.002 C 
HETATM   17  C14 UNL     1      31.600   7.174  27.969  1.00  0.00     0.032 C 
ENDBRANCH  11  12
ENDBRANCH   3  11
BRANCH   1  18
HETATM   18  N1  UNL     1      31.989  10.884  32.106  1.00  0.00    -0.339 N 
HETATM   19  C1  UNL     1      32.433  12.263  32.129  1.00  0.00     0.167 C 
ATOM     20  H1  UNL     1      31.715  10.452  32.989  1.00  0.00     0.179 HD
ENDBRANCH   1  18
TORSDOF 5
ENDMDL
MODEL 2
REMARK VINA RESULT: -5.766660913      0.612      1.198
REMARK  5 active torsions:
REMARK  status: ('A' for Active; 'I' for Inactive)
REMARK    1  A    between atoms: N1_2  and  N2_4 
REMARK    2  A    between atoms: C2_6  and  C3_7 
REMARK    3  A    between atoms: C2_6  and  O1_14 
REMARK    4  A    between atoms: C3_7  and  N3_8 
REMARK    5  A    between atoms: O1_14  and  C9_15 
ROOT
HETATM    1  N2  UNL     1      31.635   9.999  30.562  1.00  0.00    -0.287 N 
ATOM      2  H2  UNL     1      32.414   9.867  29.917  1.00  0.00     0.188 HD
HETATM    3  C2  UNL     1      30.543   9.381  30.388  1.00  0.00     0.159 C 
ENDROOT
BRANCH   3   4
HETATM    4  C3  UNL     1      29.431   9.604  31.349  1.00  0.00     0.322 C 
BRANCH   4   5
HETATM    5  N3  UNL     1      28.244  10.111  30.770  1.00  0.00    -0.064 N 
HETATM    6  C4  UNL     1      27.357   9.137  30.210  1.00  0.00     0.273 C 
HETATM    7  C5  UNL     1      28.507  11.096  29.712  1.00  0.00     0.237 C 
HETATM    8  C6  UNL     1      27.241  11.910  29.636  1.00  0.00     0.029 C 
HETATM    9  C7  UNL     1      26.527  11.715  30.945  1.00  0.00     0.029 C 
HETATM   10  C8  UNL     1      27.508  10.904  31.747  1.00  0.00     0.237 C 
ENDBRANCH   4   5
ENDBRANCH   3   4
BRANCH   3  11
HETATM   11  O1  UNL     1      30.460   8.547  29.320  1.00  0.00    -0.331 OA
BRANCH  11  12
HETATM   12  C9  UNL     1      30.802   7.239  29.148  1.00  0.00     0.130 C 
HETATM   13  C10 UNL     1      29.786   6.168  29.251  1.00  0.00     0.032 C 
HETATM   14  C11 UNL     1      30.511   4.890  29.708  1.00  0.00     0.002 C 
HETATM   15  C12 UNL     1      31.865   4.803  29.083  1.00  0.00     0.000 C 
HETATM   16  C13 UNL     1      31.984   5.545  27.792  1.00  0.00     0.002 C 
HETATM   17  C14 UNL     1      31.632   6.994  27.881  1.00  0.00     0.032 C 
ENDBRANCH  11  12
ENDBRANCH   3  11
BRANCH   1  18
HETATM   18  N1  UNL     1      31.756  10.865  31.652  1.00  0.00    -0.339 N 
HETATM   19  C1  UNL     1      32.759  11.907  31.745  1.00  0.00     0.167 C 
ATOM     20  H1  UNL     1      31.101  10.757  32.427  1.00  0.00     0.179 HD
ENDBRANCH   1  18
TORSDOF 5
ENDMDL
MODEL 3
REMARK VINA RESULT: -5.766253414      0.749      1.290
REMARK  5 active torsions:
REMARK  status: ('A' for Active; 'I' for Inactive)
REMARK    1  A    between atoms: N1_2  and  N2_4 
REMARK    2  A    between atoms: C2_6  and  C3_7 
REMARK    3  A    between atoms: C2_6  and  O1_14 
REMARK    4  A    between atoms: C3_7  and  N3_8 
REMARK    5  A    between atoms: O1_14  and  C9_15 
ROOT
HETATM    1  N2  UNL     1      31.630  10.021  30.292  1.00  0.00    -0.287 N 
ATOM      2  H2  UNL     1      32.350   9.867  29.586  1.00  0.00     0.188 HD
HETATM    3  C2  UNL     1      30.543   9.373  30.254  1.00  0.00     0.159 C 
ENDROOT
BRANCH   3   4
HETATM    4  C3  UNL     1      29.517   9.629  31.300  1.00  0.00     0.322 C 
BRANCH   4   5
HETATM    5  N3  UNL     1      28.276  10.096  30.806  1.00  0.00    -0.064 N 
HETATM    6  C4  UNL     1      27.454  10.795  31.744  1.00  0.00     0.273 C 
HETATM    7  C5  UNL     1      27.449   9.018  30.245  1.00  0.00     0.237 C 
HETATM    8  C6  UNL     1      26.512   9.720  29.297  1.00  0.00     0.029 C 
HETATM    9  C7  UNL     1      27.148  11.042  28.966  1.00  0.00     0.029 C 
HETATM   10  C8  UNL     1      28.488  10.951  29.645  1.00  0.00     0.237 C 
ENDBRANCH   4   5
ENDBRANCH   3   4
BRANCH   3  11
HETATM   11  O1  UNL     1      30.384   8.476  29.247  1.00  0.00    -0.331 OA
BRANCH  11  12
HETATM   12  C9  UNL     1      30.761   7.174  29.109  1.00  0.00     0.130 C 
HETATM   13  C10 UNL     1      29.769   6.080  29.204  1.00  0.00     0.032 C 
HETATM   14  C11 UNL     1      30.510   4.829  29.705  1.00  0.00     0.002 C 
HETATM   15  C12 UNL     1      31.884   4.764  29.120  1.00  0.00     0.000 C 
HETATM   16  C13 UNL     1      32.022   5.486  27.819  1.00  0.00     0.002 C 
HETATM   17  C14 UNL     1      31.633   6.927  27.871  1.00  0.00     0.032 C 
ENDBRANCH  11  12
ENDBRANCH   3  11
BRANCH   1  18
HETATM   18  N1  UNL     1      31.829  10.951  31.316  1.00  0.00    -0.339 N 
HETATM   19  C1  UNL     1      33.134  11.408  31.746  1.00  0.00     0.167 C 
ATOM     20  H1  UNL     1      31.007  11.330  31.787  1.00  0.00     0.179 HD
ENDBRANCH   1  18
TORSDOF 5
ENDMDL
MODEL 4
REMARK VINA RESULT: -5.672909172      1.714      3.615
REMARK  5 active torsions:
REMARK  status: ('A' for Active; 'I' for Inactive)
REMARK    1  A    between atoms: N1_2  and  N2_4 
REMARK    2  A    between atoms: C2_6  and  C3_7 
REMARK    3  A    between atoms: C2_6  and  O1_14 
REMARK    4  A    between atoms: C3_7  and  N3_8 
REMARK    5  A    between atoms: O1_14  and  C9_15 
ROOT
HETATM    1  N2  UNL     1      26.975   8.534  28.300  1.00  0.00    -0.287 N 
ATOM      2  H2  UNL     1      27.039   8.346  27.299  1.00  0.00     0.188 HD
HETATM    3  C2  UNL     1      28.003   8.461  29.035  1.00  0.00     0.159 C 
ENDROOT
BRANCH   3   4
HETATM    4  C3  UNL     1      27.867   8.740  30.489  1.00  0.00     0.322 C 
BRANCH   4   5
HETATM    5  N3  UNL     1      28.430   9.968  30.909  1.00  0.00    -0.064 N 
HETATM    6  C4  UNL     1      27.697  10.681  31.909  1.00  0.00     0.273 C 
HETATM    7  C5  UNL     1      28.642  10.903  29.796  1.00  0.00     0.237 C 
HETATM    8  C6  UNL     1      29.716  11.837  30.290  1.00  0.00     0.029 C 
HETATM    9  C7  UNL     1      30.422  11.123  31.409  1.00  0.00     0.029 C 
HETATM   10  C8  UNL     1      29.790   9.758  31.391  1.00  0.00     0.237 C 
ENDBRANCH   4   5
ENDBRANCH   3   4
BRANCH   3  11
HETATM   11  O1  UNL     1      29.176   8.128  28.438  1.00  0.00    -0.331 OA
BRANCH  11  12
HETATM   12  C9  UNL     1      29.988   7.039  28.552  1.00  0.00     0.130 C 
HETATM   13  C10 UNL     1      29.421   5.680  28.695  1.00  0.00     0.032 C 
HETATM   14  C11 UNL     1      30.445   4.834  29.471  1.00  0.00     0.002 C 
HETATM   15  C12 UNL     1      31.838   5.203  29.074  1.00  0.00     0.000 C 
HETATM   16  C13 UNL     1      31.941   5.787  27.703  1.00  0.00     0.002 C 
HETATM   17  C14 UNL     1      31.087   6.992  27.482  1.00  0.00     0.032 C 
ENDBRANCH  11  12
ENDBRANCH   3  11
BRANCH   1  18
HETATM   18  N1  UNL     1      25.751   8.877  28.880  1.00  0.00    -0.339 N 
HETATM   19  C1  UNL     1      24.955  10.015  28.468  1.00  0.00     0.167 C 
ATOM     20  H1  UNL     1      25.397   8.291  29.637  1.00  0.00     0.179 HD
ENDBRANCH   1  18
TORSDOF 5
ENDMDL
MODEL 5
REMARK VINA RESULT: -5.658011176      1.728      3.831
REMARK  5 active torsions:
REMARK  status: ('A' for Active; 'I' for Inactive)
REMARK    1  A    between atoms: N1_2  and  N2_4 
REMARK    2  A    between atoms: C2_6  and  C3_7 
REMARK    3  A    between atoms: C2_6  and  O1_14 
REMARK    4  A    between atoms: C3_7  and  N3_8 
REMARK    5  A    between atoms: O1_14  and  C9_15 
ROOT
HETATM    1  N2  UNL     1      26.505   8.817  28.480  1.00  0.00    -0.287 N 
ATOM      2  H2  UNL     1      26.447   8.650  27.475  1.00  0.00     0.188 HD
HETATM    3  C2  UNL     1      27.598   8.649  29.097  1.00  0.00     0.159 C 
ENDROOT
BRANCH   3   4
HETATM    4  C3  UNL     1      27.641   8.899  30.563  1.00  0.00     0.322 C 
BRANCH   4   5
HETATM    5  N3  UNL     1      28.313  10.086  30.939  1.00  0.00    -0.064 N 
HETATM    6  C4  UNL     1      27.607  10.943  31.841  1.00  0.00     0.273 C 
HETATM    7  C5  UNL     1      28.690  10.912  29.784  1.00  0.00     0.237 C 
HETATM    8  C6  UNL     1      29.832  11.757  30.286  1.00  0.00     0.029 C 
HETATM    9  C7  UNL     1      30.389  11.052  31.492  1.00  0.00     0.029 C 
HETATM   10  C8  UNL     1      29.610   9.765  31.520  1.00  0.00     0.237 C 
ENDBRANCH   4   5
ENDBRANCH   3   4
BRANCH   3  11
HETATM   11  O1  UNL     1      28.672   8.247  28.370  1.00  0.00    -0.331 OA
BRANCH  11  12
HETATM   12  C9  UNL     1      29.590   7.258  28.559  1.00  0.00     0.130 C 
HETATM   13  C10 UNL     1      30.999   7.579  28.879  1.00  0.00     0.032 C 
HETATM   14  C11 UNL     1      31.865   6.422  28.352  1.00  0.00     0.002 C 
HETATM   15  C12 UNL     1      31.165   5.116  28.537  1.00  0.00     0.000 C 
HETATM   16  C13 UNL     1      30.166   5.117  29.649  1.00  0.00     0.002 C 
HETATM   17  C14 UNL     1      29.113   6.168  29.528  1.00  0.00     0.032 C 
ENDBRANCH  11  12
ENDBRANCH   3  11
BRANCH   1  18
HETATM   18  N1  UNL     1      25.380   9.232  29.196  1.00  0.00    -0.339 N 
HETATM   19  C1  UNL     1      24.747  10.524  29.023  1.00  0.00     0.167 C 
ATOM     20  H1  UNL     1      24.980   8.589  29.881  1.00  0.00     0.179 HD
ENDBRANCH   1  18
TORSDOF 5
ENDMDL
