MODEL 1
REMARK VINA RESULT: -8.955840689      0.000      0.000
REMARK  14 active torsions:
REMARK  status: ('A' for Active; 'I' for Inactive)
REMARK    1  A    between atoms: C2_2  and  N1_3 
REMARK       I    between atoms: N2_7  and  C5_8 
REMARK    2  A    between atoms: C5_8  and  C6_10 
REMARK    3  A    between atoms: N3_13  and  C10_15 
REMARK    4  A    between atoms: C10_15  and  C11_16 
REMARK    5  A    between atoms: C11_16  and  O3_17 
REMARK    6  A    between atoms: C11_16  and  C12_19 
REMARK    7  A    between atoms: C12_19  and  C13_20 
REMARK       I    between atoms: C13_20  and  N4_22 
REMARK    8  A    between atoms: N4_22  and  C15_24 
REMARK    9  A    between atoms: C15_24  and  C16_25 
REMARK   10  A    between atoms: C16_25  and  C17_26 
REMARK   11  A    between atoms: C17_26  and  C18_27 
REMARK   12  A    between atoms: C18_27  and  N5_29 
REMARK       I    between atoms: N5_29  and  C20_31 
REMARK   13  A    between atoms: C20_31  and  C21_33 
REMARK   14  A    between atoms: C23_35  and  N6_36 
REMARK       I    between atoms: N6_36  and  C24_38 
ROOT
HETATM    1  C12 UNL     1      13.480 -19.144 -14.644  1.00  0.00     0.136 C 
ENDROOT
BRANCH   1   2
HETATM    2  C11 UNL     1      13.306 -20.622 -14.885  1.00  0.00     0.152 C 
BRANCH   2   3
HETATM    3  C10 UNL     1      14.414 -21.302 -15.572  1.00  0.00     0.268 C 
BRANCH   3   4
HETATM    4  N3  UNL     1      14.233 -21.774 -16.918  1.00  0.00    -0.068 N 
HETATM    5  C8  UNL     1      14.531 -20.638 -17.765  1.00  0.00     0.238 C 
HETATM    6  C7  UNL     1      13.934 -20.717 -19.124  1.00  0.00     0.043 C 
HETATM    7  C6  UNL     1      12.450 -20.743 -18.927  1.00  0.00     0.089 C 
HETATM    8  C30 UNL     1      12.111 -22.034 -18.248  1.00  0.00    -0.011 C 
HETATM    9  C29 UNL     1      12.918 -22.317 -17.051  1.00  0.00     0.246 C 
HETATM   10  C31 UNL     1      10.650 -21.852 -17.771  1.00  0.00     0.017 C 
HETATM   11  C32 UNL     1      12.081 -23.229 -19.172  1.00  0.00     0.017 C 
HETATM   12  C9  UNL     1      15.166 -22.800 -17.334  1.00  0.00     0.272 C 
BRANCH   7  13
HETATM   13  C5  UNL     1      11.639 -20.421 -20.087  1.00  0.00     0.225 C 
HETATM   14  N2  UNL     1      10.689 -19.400 -20.180  1.00  0.00    -0.347 N 
HETATM   15  C4  UNL     1      10.309 -18.467 -19.147  1.00  0.00     0.162 C 
HETATM   16  C33 UNL     1       9.958 -19.213 -21.450  1.00  0.00     0.162 C 
HETATM   17  C3  UNL     1       9.102 -17.682 -19.536  1.00  0.00     0.331 C 
HETATM   18  N1  UNL     1       8.075 -18.376 -20.235  1.00  0.00     0.016 N 
HETATM   19  O1  UNL     1       7.504 -17.448 -21.082  1.00  0.00    -0.064 OA
HETATM   20  C34 UNL     1       8.504 -19.457 -21.077  1.00  0.00     0.331 C 
HETATM   21  O2  UNL     1      11.812 -21.144 -21.128  1.00  0.00    -0.273 OA
BRANCH  18  22
HETATM   22  C2  UNL     1       6.981 -18.796 -19.378  1.00  0.00     0.307 C 
HETATM   23  C1  UNL     1       5.626 -18.549 -19.948  1.00  0.00     0.044 C 
ENDBRANCH  18  22
ENDBRANCH   7  13
ENDBRANCH   3   4
ENDBRANCH   2   3
BRANCH   2  24
HETATM   24  O3  UNL     1      12.667 -21.284 -13.869  1.00  0.00    -0.393 OA
ATOM     25  H3  UNL     1      12.046 -20.801 -13.338  1.00  0.00     0.210 HD
ENDBRANCH   2  24
ENDBRANCH   1   2
BRANCH   1  26
HETATM   26  C13 UNL     1      12.402 -18.350 -15.289  1.00  0.00     0.221 C 
HETATM   27  O4  UNL     1      12.446 -18.190 -16.526  1.00  0.00    -0.273 OA
HETATM   28  N4  UNL     1      11.336 -17.774 -14.560  1.00  0.00    -0.356 N 
HETATM   29  C14 UNL     1      11.252 -17.901 -13.111  1.00  0.00     0.152 C 
BRANCH  28  30
HETATM   30  C15 UNL     1      10.276 -17.045 -15.261  1.00  0.00     0.125 C 
BRANCH  30  31
HETATM   31  C16 UNL     1       9.375 -16.462 -14.209  1.00  0.00     0.022 C 
BRANCH  31  32
HETATM   32  C17 UNL     1       8.041 -16.131 -14.804  1.00  0.00     0.026 C 
BRANCH  32  33
HETATM   33  C18 UNL     1       7.496 -17.319 -15.519  1.00  0.00     0.080 C 
HETATM   34  C19 UNL     1       7.663 -18.536 -14.587  1.00  0.00     0.032 C 
BRANCH  33  35
HETATM   35  N5  UNL     1       6.063 -17.230 -15.785  1.00  0.00    -0.356 N 
HETATM   36  C20 UNL     1       5.539 -16.481 -16.859  1.00  0.00     0.223 C 
HETATM   37  O5  UNL     1       6.405 -15.880 -17.583  1.00  0.00    -0.273 OA
ATOM     38  H5  UNL     1       5.417 -17.729 -15.172  1.00  0.00     0.162 HD
BRANCH  36  39
HETATM   39  C21 UNL     1       4.116 -16.395 -17.126  1.00  0.00     0.089 C 
HETATM   40  C22 UNL     1       3.353 -17.220 -16.069  1.00  0.00     0.041 C 
HETATM   41  C23 UNL     1       2.239 -16.195 -16.249  1.00  0.00     0.093 C 
HETATM   42  C26 UNL     1       3.301 -15.220 -16.735  1.00  0.00    -0.015 C 
HETATM   43  C27 UNL     1       2.784 -14.495 -17.981  1.00  0.00     0.018 C 
HETATM   44  C28 UNL     1       3.824 -14.243 -15.746  1.00  0.00     0.018 C 
BRANCH  41  45
HETATM   45  N6  UNL     1       1.586 -15.851 -15.008  1.00  0.00    -0.356 N 
HETATM   46  C24 UNL     1       0.248 -15.387 -15.017  1.00  0.00     0.213 C 
HETATM   47  C25 UNL     1      -0.401 -15.041 -13.732  1.00  0.00     0.117 C 
HETATM   48  O6  UNL     1      -0.421 -15.253 -16.070  1.00  0.00    -0.274 OA
ATOM     49  H6  UNL     1       2.089 -15.943 -14.124  1.00  0.00     0.162 HD
ENDBRANCH  41  45
ENDBRANCH  36  39
ENDBRANCH  33  35
ENDBRANCH  32  33
ENDBRANCH  31  32
ENDBRANCH  30  31
ENDBRANCH  28  30
ENDBRANCH   1  26
TORSDOF 14
ENDMDL
MODEL 2
REMARK VINA RESULT: -8.829954823      3.162     11.366
REMARK  14 active torsions:
REMARK  status: ('A' for Active; 'I' for Inactive)
REMARK    1  A    between atoms: C2_2  and  N1_3 
REMARK       I    between atoms: N2_7  and  C5_8 
REMARK    2  A    between atoms: C5_8  and  C6_10 
REMARK    3  A    between atoms: N3_13  and  C10_15 
REMARK    4  A    between atoms: C10_15  and  C11_16 
REMARK    5  A    between atoms: C11_16  and  O3_17 
REMARK    6  A    between atoms: C11_16  and  C12_19 
REMARK    7  A    between atoms: C12_19  and  C13_20 
REMARK       I    between atoms: C13_20  and  N4_22 
REMARK    8  A    between atoms: N4_22  and  C15_24 
REMARK    9  A    between atoms: C15_24  and  C16_25 
REMARK   10  A    between atoms: C16_25  and  C17_26 
REMARK   11  A    between atoms: C17_26  and  C18_27 
REMARK   12  A    between atoms: C18_27  and  N5_29 
REMARK       I    between atoms: N5_29  and  C20_31 
REMARK   13  A    between atoms: C20_31  and  C21_33 
REMARK   14  A    between atoms: C23_35  and  N6_36 
REMARK       I    between atoms: N6_36  and  C24_38 
ROOT
HETATM    1  C12 UNL     1      11.288 -19.970 -19.474  1.00  0.00     0.136 C 
ENDROOT
BRANCH   1   2
HETATM    2  C11 UNL     1      10.569 -18.652 -19.605  1.00  0.00     0.152 C 
BRANCH   2   3
HETATM    3  C10 UNL     1      10.356 -17.902 -18.358  1.00  0.00     0.268 C 
BRANCH   3   4
HETATM    4  N3  UNL     1       9.035 -17.814 -17.797  1.00  0.00    -0.068 N 
HETATM    5  C8  UNL     1       8.421 -16.673 -18.442  1.00  0.00     0.238 C 
HETATM    6  C7  UNL     1       7.288 -16.081 -17.684  1.00  0.00     0.043 C 
HETATM    7  C6  UNL     1       7.859 -15.600 -16.385  1.00  0.00     0.089 C 
HETATM    8  C30 UNL     1       8.292 -16.808 -15.613  1.00  0.00    -0.011 C 
HETATM    9  C29 UNL     1       9.136 -17.742 -16.374  1.00  0.00     0.246 C 
HETATM   10  C31 UNL     1       9.167 -16.245 -14.467  1.00  0.00     0.017 C 
HETATM   11  C32 UNL     1       7.162 -17.540 -14.925  1.00  0.00     0.017 C 
HETATM   12  C9  UNL     1       8.165 -18.929 -18.111  1.00  0.00     0.272 C 
BRANCH   7  13
HETATM   13  C5  UNL     1       7.061 -14.643 -15.643  1.00  0.00     0.225 C 
HETATM   14  N2  UNL     1       5.665 -14.611 -15.561  1.00  0.00    -0.347 N 
HETATM   15  C4  UNL     1       4.734 -15.506 -16.203  1.00  0.00     0.162 C 
HETATM   16  C33 UNL     1       5.018 -13.561 -14.748  1.00  0.00     0.162 C 
HETATM   17  C3  UNL     1       3.330 -15.018 -16.078  1.00  0.00     0.331 C 
HETATM   18  N1  UNL     1       3.118 -13.617 -16.200  1.00  0.00     0.016 N 
HETATM   19  O1  UNL     1       2.048 -13.326 -15.379  1.00  0.00    -0.064 OA
HETATM   20  C34 UNL     1       4.191 -12.774 -15.753  1.00  0.00     0.331 C 
HETATM   21  O2  UNL     1       7.696 -13.740 -14.998  1.00  0.00    -0.273 OA
BRANCH  18  22
HETATM   22  C2  UNL     1       2.670 -13.218 -17.523  1.00  0.00     0.307 C 
HETATM   23  C1  UNL     1       1.806 -14.223 -18.207  1.00  0.00     0.044 C 
ENDBRANCH  18  22
ENDBRANCH   7  13
ENDBRANCH   3   4
ENDBRANCH   2   3
BRANCH   2  24
HETATM   24  O3  UNL     1      10.885 -17.951 -20.739  1.00  0.00    -0.393 OA
ATOM     25  H3  UNL     1      10.438 -18.175 -21.546  1.00  0.00     0.210 HD
ENDBRANCH   2  24
ENDBRANCH   1   2
BRANCH   1  26
HETATM   26  C13 UNL     1      12.171 -19.999 -18.279  1.00  0.00     0.221 C 
HETATM   27  O4  UNL     1      13.272 -19.414 -18.344  1.00  0.00    -0.273 OA
HETATM   28  N4  UNL     1      11.815 -20.659 -17.080  1.00  0.00    -0.356 N 
HETATM   29  C14 UNL     1      10.557 -21.386 -16.959  1.00  0.00     0.152 C 
BRANCH  28  30
HETATM   30  C15 UNL     1      12.708 -20.608 -15.920  1.00  0.00     0.125 C 
BRANCH  30  31
HETATM   31  C16 UNL     1      13.112 -22.023 -15.616  1.00  0.00     0.022 C 
BRANCH  31  32
HETATM   32  C17 UNL     1      14.573 -22.079 -15.289  1.00  0.00     0.026 C 
BRANCH  32  33
HETATM   33  C18 UNL     1      15.360 -21.423 -16.371  1.00  0.00     0.080 C 
HETATM   34  C19 UNL     1      16.256 -20.357 -15.710  1.00  0.00     0.032 C 
BRANCH  33  35
HETATM   35  N5  UNL     1      16.279 -22.331 -17.053  1.00  0.00    -0.356 N 
HETATM   36  C20 UNL     1      16.046 -22.800 -18.362  1.00  0.00     0.223 C 
HETATM   37  O5  UNL     1      14.972 -22.377 -18.913  1.00  0.00    -0.273 OA
ATOM     38  H5  UNL     1      17.121 -22.637 -16.563  1.00  0.00     0.162 HD
BRANCH  36  39
HETATM   39  C21 UNL     1      16.960 -23.698 -19.041  1.00  0.00     0.089 C 
HETATM   40  C22 UNL     1      17.879 -24.367 -17.998  1.00  0.00     0.041 C 
HETATM   41  C23 UNL     1      17.884 -25.560 -18.947  1.00  0.00     0.093 C 
HETATM   42  C26 UNL     1      16.558 -25.051 -19.493  1.00  0.00    -0.015 C 
HETATM   43  C27 UNL     1      16.582 -25.129 -21.022  1.00  0.00     0.018 C 
HETATM   44  C28 UNL     1      15.323 -25.681 -18.961  1.00  0.00     0.018 C 
BRANCH  41  45
HETATM   45  N6  UNL     1      17.838 -26.827 -18.255  1.00  0.00    -0.356 N 
HETATM   46  C24 UNL     1      19.006 -27.622 -18.155  1.00  0.00     0.213 C 
HETATM   47  C25 UNL     1      18.936 -28.917 -17.442  1.00  0.00     0.117 C 
HETATM   48  O6  UNL     1      20.109 -27.279 -18.648  1.00  0.00    -0.274 OA
ATOM     49  H6  UNL     1      16.964 -27.150 -17.839  1.00  0.00     0.162 HD
ENDBRANCH  41  45
ENDBRANCH  36  39
ENDBRANCH  33  35
ENDBRANCH  32  33
ENDBRANCH  31  32
ENDBRANCH  30  31
ENDBRANCH  28  30
ENDBRANCH   1  26
TORSDOF 14
ENDMDL
MODEL 3
REMARK VINA RESULT: -8.648260507      2.079      8.235
REMARK  14 active torsions:
REMARK  status: ('A' for Active; 'I' for Inactive)
REMARK    1  A    between atoms: C2_2  and  N1_3 
REMARK       I    between atoms: N2_7  and  C5_8 
REMARK    2  A    between atoms: C5_8  and  C6_10 
REMARK    3  A    between atoms: N3_13  and  C10_15 
REMARK    4  A    between atoms: C10_15  and  C11_16 
REMARK    5  A    between atoms: C11_16  and  O3_17 
REMARK    6  A    between atoms: C11_16  and  C12_19 
REMARK    7  A    between atoms: C12_19  and  C13_20 
REMARK       I    between atoms: C13_20  and  N4_22 
REMARK    8  A    between atoms: N4_22  and  C15_24 
REMARK    9  A    between atoms: C15_24  and  C16_25 
REMARK   10  A    between atoms: C16_25  and  C17_26 
REMARK   11  A    between atoms: C17_26  and  C18_27 
REMARK   12  A    between atoms: C18_27  and  N5_29 
REMARK       I    between atoms: N5_29  and  C20_31 
REMARK   13  A    between atoms: C20_31  and  C21_33 
REMARK   14  A    between atoms: C23_35  and  N6_36 
REMARK       I    between atoms: N6_36  and  C24_38 
ROOT
HETATM    1  C12 UNL     1      12.629 -19.744 -14.703  1.00  0.00     0.136 C 
ENDROOT
BRANCH   1   2
HETATM    2  C11 UNL     1      11.221 -19.988 -15.183  1.00  0.00     0.152 C 
BRANCH   2   3
HETATM    3  C10 UNL     1      10.591 -18.888 -15.929  1.00  0.00     0.268 C 
BRANCH   3   4
HETATM    4  N3  UNL     1       9.711 -17.978 -15.247  1.00  0.00    -0.068 N 
HETATM    5  C8  UNL     1       8.526 -18.750 -14.940  1.00  0.00     0.238 C 
HETATM    6  C7  UNL     1       7.307 -17.931 -14.710  1.00  0.00     0.043 C 
HETATM    7  C6  UNL     1       7.042 -17.208 -15.995  1.00  0.00     0.089 C 
HETATM    8  C30 UNL     1       8.164 -16.237 -16.201  1.00  0.00    -0.011 C 
HETATM    9  C29 UNL     1       9.505 -16.826 -16.066  1.00  0.00     0.246 C 
HETATM   10  C31 UNL     1       8.019 -15.783 -17.673  1.00  0.00     0.017 C 
HETATM   11  C32 UNL     1       8.045 -14.972 -15.383  1.00  0.00     0.017 C 
HETATM   12  C9  UNL     1      10.193 -17.513 -13.963  1.00  0.00     0.272 C 
BRANCH   7  13
HETATM   13  C5  UNL     1       5.709 -16.660 -16.164  1.00  0.00     0.225 C 
HETATM   14  N2  UNL     1       4.717 -17.136 -17.026  1.00  0.00    -0.347 N 
HETATM   15  C4  UNL     1       4.814 -18.255 -17.932  1.00  0.00     0.162 C 
HETATM   16  C33 UNL     1       3.408 -16.453 -17.061  1.00  0.00     0.162 C 
HETATM   17  C3  UNL     1       3.646 -18.314 -18.857  1.00  0.00     0.331 C 
HETATM   18  N1  UNL     1       3.153 -17.077 -19.357  1.00  0.00     0.016 N 
HETATM   19  O1  UNL     1       1.793 -17.252 -19.517  1.00  0.00    -0.064 OA
HETATM   20  C34 UNL     1       3.298 -15.942 -18.490  1.00  0.00     0.331 C 
HETATM   21  O2  UNL     1       5.411 -15.640 -15.451  1.00  0.00    -0.273 OA
BRANCH  18  22
HETATM   22  C2  UNL     1       3.631 -16.767 -20.692  1.00  0.00     0.307 C 
HETATM   23  C1  UNL     1       4.176 -17.939 -21.436  1.00  0.00     0.044 C 
ENDBRANCH  18  22
ENDBRANCH   7  13
ENDBRANCH   3   4
ENDBRANCH   2   3
BRANCH   2  24
HETATM   24  O3  UNL     1      10.984 -21.272 -15.595  1.00  0.00    -0.393 OA
ATOM     25  H3  UNL     1      11.043 -21.467 -16.523  1.00  0.00     0.210 HD
ENDBRANCH   2  24
ENDBRANCH   1   2
BRANCH   1  26
HETATM   26  C13 UNL     1      13.442 -20.988 -14.725  1.00  0.00     0.221 C 
HETATM   27  O4  UNL     1      12.986 -22.001 -14.157  1.00  0.00    -0.273 OA
HETATM   28  N4  UNL     1      14.702 -21.066 -15.363  1.00  0.00    -0.356 N 
HETATM   29  C14 UNL     1      15.297 -19.906 -16.013  1.00  0.00     0.152 C 
BRANCH  28  30
HETATM   30  C15 UNL     1      15.432 -22.336 -15.393  1.00  0.00     0.125 C 
BRANCH  30  31
HETATM   31  C16 UNL     1      16.587 -22.156 -16.337  1.00  0.00     0.022 C 
BRANCH  31  32
HETATM   32  C17 UNL     1      16.685 -23.334 -17.257  1.00  0.00     0.026 C 
BRANCH  32  33
HETATM   33  C18 UNL     1      16.025 -23.020 -18.555  1.00  0.00     0.080 C 
HETATM   34  C19 UNL     1      16.207 -24.243 -19.475  1.00  0.00     0.032 C 
BRANCH  33  35
HETATM   35  N5  UNL     1      14.580 -22.833 -18.442  1.00  0.00    -0.356 N 
HETATM   36  C20 UNL     1      13.942 -21.632 -18.816  1.00  0.00     0.223 C 
HETATM   37  O5  UNL     1      14.715 -20.715 -19.259  1.00  0.00    -0.273 OA
ATOM     38  H5  UNL     1      14.013 -23.599 -18.079  1.00  0.00     0.162 HD
BRANCH  36  39
HETATM   39  C21 UNL     1      12.507 -21.448 -18.707  1.00  0.00     0.089 C 
HETATM   40  C22 UNL     1      12.195 -19.939 -18.651  1.00  0.00     0.041 C 
HETATM   41  C23 UNL     1      10.894 -20.306 -19.358  1.00  0.00     0.093 C 
HETATM   42  C26 UNL     1      11.600 -21.550 -19.875  1.00  0.00    -0.015 C 
HETATM   43  C27 UNL     1      10.670 -22.756 -19.721  1.00  0.00     0.018 C 
HETATM   44  C28 UNL     1      12.148 -21.491 -21.254  1.00  0.00     0.018 C 
BRANCH  41  45
HETATM   45  N6  UNL     1      10.506 -19.338 -20.357  1.00  0.00    -0.356 N 
HETATM   46  C24 UNL     1       9.246 -18.697 -20.269  1.00  0.00     0.213 C 
HETATM   47  C25 UNL     1       8.869 -17.708 -21.304  1.00  0.00     0.117 C 
HETATM   48  O6  UNL     1       8.425 -18.929 -19.349  1.00  0.00    -0.274 OA
ATOM     49  H6  UNL     1      11.139 -19.116 -21.126  1.00  0.00     0.162 HD
ENDBRANCH  41  45
ENDBRANCH  36  39
ENDBRANCH  33  35
ENDBRANCH  32  33
ENDBRANCH  31  32
ENDBRANCH  30  31
ENDBRANCH  28  30
ENDBRANCH   1  26
TORSDOF 14
ENDMDL
MODEL 4
REMARK VINA RESULT: -8.618911207      1.549      2.102
REMARK  14 active torsions:
REMARK  status: ('A' for Active; 'I' for Inactive)
REMARK    1  A    between atoms: C2_2  and  N1_3 
REMARK       I    between atoms: N2_7  and  C5_8 
REMARK    2  A    between atoms: C5_8  and  C6_10 
REMARK    3  A    between atoms: N3_13  and  C10_15 
REMARK    4  A    between atoms: C10_15  and  C11_16 
REMARK    5  A    between atoms: C11_16  and  O3_17 
REMARK    6  A    between atoms: C11_16  and  C12_19 
REMARK    7  A    between atoms: C12_19  and  C13_20 
REMARK       I    between atoms: C13_20  and  N4_22 
REMARK    8  A    between atoms: N4_22  and  C15_24 
REMARK    9  A    between atoms: C15_24  and  C16_25 
REMARK   10  A    between atoms: C16_25  and  C17_26 
REMARK   11  A    between atoms: C17_26  and  C18_27 
REMARK   12  A    between atoms: C18_27  and  N5_29 
REMARK       I    between atoms: N5_29  and  C20_31 
REMARK   13  A    between atoms: C20_31  and  C21_33 
REMARK   14  A    between atoms: C23_35  and  N6_36 
REMARK       I    between atoms: N6_36  and  C24_38 
ROOT
HETATM    1  C12 UNL     1      14.212 -19.971 -14.965  1.00  0.00     0.136 C 
ENDROOT
BRANCH   1   2
HETATM    2  C11 UNL     1      13.829 -21.399 -15.258  1.00  0.00     0.152 C 
BRANCH   2   3
HETATM    3  C10 UNL     1      14.777 -22.171 -16.076  1.00  0.00     0.268 C 
BRANCH   3   4
HETATM    4  N3  UNL     1      14.472 -22.439 -17.455  1.00  0.00    -0.068 N 
HETATM    5  C8  UNL     1      14.792 -21.217 -18.162  1.00  0.00     0.238 C 
HETATM    6  C7  UNL     1      14.100 -21.069 -19.469  1.00  0.00     0.043 C 
HETATM    7  C6  UNL     1      12.634 -21.032 -19.164  1.00  0.00     0.089 C 
HETATM    8  C30 UNL     1      12.252 -22.382 -18.640  1.00  0.00    -0.011 C 
HETATM    9  C29 UNL     1      13.116 -22.877 -17.558  1.00  0.00     0.246 C 
HETATM   10  C31 UNL     1      10.844 -22.180 -18.033  1.00  0.00     0.017 C 
HETATM   11  C32 UNL     1      12.075 -23.434 -19.712  1.00  0.00     0.017 C 
HETATM   12  C9  UNL     1      15.301 -23.452 -18.076  1.00  0.00     0.272 C 
BRANCH   7  13
HETATM   13  C5  UNL     1      11.771 -20.504 -20.204  1.00  0.00     0.225 C 
HETATM   14  N2  UNL     1      10.900 -19.417 -20.090  1.00  0.00    -0.347 N 
HETATM   15  C4  UNL     1      10.668 -18.606 -18.919  1.00  0.00     0.162 C 
HETATM   16  C33 UNL     1      10.099 -19.013 -21.263  1.00  0.00     0.162 C 
HETATM   17  C3  UNL     1       9.502 -17.696 -19.106  1.00  0.00     0.331 C 
HETATM   18  N1  UNL     1       8.378 -18.218 -19.803  1.00  0.00     0.016 N 
HETATM   19  O1  UNL     1       7.822 -17.148 -20.476  1.00  0.00    -0.064 OA
HETATM   20  C34 UNL     1       8.660 -19.204 -20.809  1.00  0.00     0.331 C 
HETATM   21  O2  UNL     1      11.813 -21.091 -21.340  1.00  0.00    -0.273 OA
BRANCH  18  22
HETATM   22  C2  UNL     1       7.317 -18.673 -18.922  1.00  0.00     0.307 C 
HETATM   23  C1  UNL     1       6.449 -17.582 -18.393  1.00  0.00     0.044 C 
ENDBRANCH  18  22
ENDBRANCH   7  13
ENDBRANCH   3   4
ENDBRANCH   2   3
BRANCH   2  24
HETATM   24  O3  UNL     1      13.199 -22.035 -14.221  1.00  0.00    -0.393 OA
ATOM     25  H3  UNL     1      13.688 -22.185 -13.421  1.00  0.00     0.210 HD
ENDBRANCH   2  24
ENDBRANCH   1   2
BRANCH   1  26
HETATM   26  C13 UNL     1      13.152 -19.019 -15.387  1.00  0.00     0.221 C 
HETATM   27  O4  UNL     1      13.014 -18.792 -16.607  1.00  0.00    -0.273 OA
HETATM   28  N4  UNL     1      12.300 -18.366 -14.466  1.00  0.00    -0.356 N 
HETATM   29  C14 UNL     1      12.439 -18.568 -13.030  1.00  0.00     0.152 C 
BRANCH  28  30
HETATM   30  C15 UNL     1      11.241 -17.476 -14.949  1.00  0.00     0.125 C 
BRANCH  30  31
HETATM   31  C16 UNL     1      10.128 -17.533 -13.941  1.00  0.00     0.022 C 
BRANCH  31  32
HETATM   32  C17 UNL     1       9.145 -16.432 -14.201  1.00  0.00     0.026 C 
BRANCH  32  33
HETATM   33  C18 UNL     1       8.073 -16.916 -15.116  1.00  0.00     0.080 C 
HETATM   34  C19 UNL     1       7.885 -18.423 -14.852  1.00  0.00     0.032 C 
BRANCH  33  35
HETATM   35  N5  UNL     1       6.769 -16.312 -14.852  1.00  0.00    -0.356 N 
HETATM   36  C20 UNL     1       6.469 -14.979 -15.201  1.00  0.00     0.223 C 
HETATM   37  O5  UNL     1       7.419 -14.332 -15.763  1.00  0.00    -0.273 OA
ATOM     38  H5  UNL     1       6.049 -16.875 -14.399  1.00  0.00     0.162 HD
BRANCH  36  39
HETATM   39  C21 UNL     1       5.174 -14.380 -14.943  1.00  0.00     0.089 C 
HETATM   40  C22 UNL     1       5.206 -12.900 -15.376  1.00  0.00     0.041 C 
HETATM   41  C23 UNL     1       3.727 -13.087 -15.697  1.00  0.00     0.093 C 
HETATM   42  C26 UNL     1       4.013 -14.575 -15.845  1.00  0.00    -0.015 C 
HETATM   43  C27 UNL     1       2.915 -15.370 -15.133  1.00  0.00     0.018 C 
HETATM   44  C28 UNL     1       4.215 -15.089 -17.223  1.00  0.00     0.018 C 
BRANCH  41  45
HETATM   45  N6  UNL     1       3.322 -12.399 -16.900  1.00  0.00    -0.356 N 
HETATM   46  C24 UNL     1       2.264 -11.458 -16.855  1.00  0.00     0.213 C 
HETATM   47  C25 UNL     1       1.867 -10.764 -18.100  1.00  0.00     0.117 C 
HETATM   48  O6  UNL     1       1.641 -11.182 -15.802  1.00  0.00    -0.274 OA
ATOM     49  H6  UNL     1       3.798 -12.590 -17.782  1.00  0.00     0.162 HD
ENDBRANCH  41  45
ENDBRANCH  36  39
ENDBRANCH  33  35
ENDBRANCH  32  33
ENDBRANCH  31  32
ENDBRANCH  30  31
ENDBRANCH  28  30
ENDBRANCH   1  26
TORSDOF 14
ENDMDL
MODEL 5
REMARK VINA RESULT: -8.602255993      1.265      1.799
REMARK  14 active torsions:
REMARK  status: ('A' for Active; 'I' for Inactive)
REMARK    1  A    between atoms: C2_2  and  N1_3 
REMARK       I    between atoms: N2_7  and  C5_8 
REMARK    2  A    between atoms: C5_8  and  C6_10 
REMARK    3  A    between atoms: N3_13  and  C10_15 
REMARK    4  A    between atoms: C10_15  and  C11_16 
REMARK    5  A    between atoms: C11_16  and  O3_17 
REMARK    6  A    between atoms: C11_16  and  C12_19 
REMARK    7  A    between atoms: C12_19  and  C13_20 
REMARK       I    between atoms: C13_20  and  N4_22 
REMARK    8  A    between atoms: N4_22  and  C15_24 
REMARK    9  A    between atoms: C15_24  and  C16_25 
REMARK   10  A    between atoms: C16_25  and  C17_26 
REMARK   11  A    between atoms: C17_26  and  C18_27 
REMARK   12  A    between atoms: C18_27  and  N5_29 
REMARK       I    between atoms: N5_29  and  C20_31 
REMARK   13  A    between atoms: C20_31  and  C21_33 
REMARK   14  A    between atoms: C23_35  and  N6_36 
REMARK       I    between atoms: N6_36  and  C24_38 
ROOT
HETATM    1  C12 UNL     1      13.783 -19.270 -14.711  1.00  0.00     0.136 C 
ENDROOT
BRANCH   1   2
HETATM    2  C11 UNL     1      13.331 -20.683 -14.982  1.00  0.00     0.152 C 
BRANCH   2   3
HETATM    3  C10 UNL     1      14.331 -21.580 -15.579  1.00  0.00     0.268 C 
BRANCH   3   4
HETATM    4  N3  UNL     1      14.230 -21.934 -16.969  1.00  0.00    -0.068 N 
HETATM    5  C8  UNL     1      14.485 -20.708 -17.695  1.00  0.00     0.238 C 
HETATM    6  C7  UNL     1      13.944 -20.695 -19.080  1.00  0.00     0.043 C 
HETATM    7  C6  UNL     1      12.458 -20.830 -18.948  1.00  0.00     0.089 C 
HETATM    8  C30 UNL     1      12.179 -22.197 -18.404  1.00  0.00    -0.011 C 
HETATM    9  C29 UNL     1      12.959 -22.541 -17.205  1.00  0.00     0.246 C 
HETATM   10  C31 UNL     1      10.693 -22.150 -17.975  1.00  0.00     0.017 C 
HETATM   11  C32 UNL     1      12.259 -23.301 -19.434  1.00  0.00     0.017 C 
HETATM   12  C9  UNL     1      15.242 -22.859 -17.437  1.00  0.00     0.272 C 
BRANCH   7  13
HETATM   13  C5  UNL     1      11.670 -20.452 -20.107  1.00  0.00     0.225 C 
HETATM   14  N2  UNL     1      10.718 -19.430 -20.168  1.00  0.00    -0.347 N 
HETATM   15  C4  UNL     1      10.311 -18.554 -19.096  1.00  0.00     0.162 C 
HETATM   16  C33 UNL     1      10.014 -19.180 -21.441  1.00  0.00     0.162 C 
HETATM   17  C3  UNL     1       9.109 -17.754 -19.469  1.00  0.00     0.331 C 
HETATM   18  N1  UNL     1       8.101 -18.414 -20.225  1.00  0.00     0.016 N 
HETATM   19  O1  UNL     1       7.543 -17.445 -21.034  1.00  0.00    -0.064 OA
HETATM   20  C34 UNL     1       8.553 -19.448 -21.113  1.00  0.00     0.331 C 
HETATM   21  O2  UNL     1      11.868 -21.118 -21.181  1.00  0.00    -0.273 OA
BRANCH  18  22
HETATM   22  C2  UNL     1       6.991 -18.882 -19.414  1.00  0.00     0.307 C 
HETATM   23  C1  UNL     1       5.652 -18.425 -19.886  1.00  0.00     0.044 C 
ENDBRANCH  18  22
ENDBRANCH   7  13
ENDBRANCH   3   4
ENDBRANCH   2   3
BRANCH   2  24
HETATM   24  O3  UNL     1      12.485 -21.192 -14.033  1.00  0.00    -0.393 OA
ATOM     25  H3  UNL     1      12.482 -20.794 -13.171  1.00  0.00     0.210 HD
ENDBRANCH   2  24
ENDBRANCH   1   2
BRANCH   1  26
HETATM   26  C13 UNL     1      12.754 -18.495 -13.971  1.00  0.00     0.221 C 
HETATM   27  O4  UNL     1      12.723 -18.593 -12.727  1.00  0.00    -0.273 OA
HETATM   28  N4  UNL     1      11.817 -17.656 -14.617  1.00  0.00    -0.356 N 
HETATM   29  C14 UNL     1      11.786 -17.529 -16.068  1.00  0.00     0.152 C 
BRANCH  28  30
HETATM   30  C15 UNL     1      10.859 -16.878 -13.826  1.00  0.00     0.125 C 
BRANCH  30  31
HETATM   31  C16 UNL     1       9.493 -17.423 -14.132  1.00  0.00     0.022 C 
BRANCH  31  32
HETATM   32  C17 UNL     1       8.578 -16.310 -14.541  1.00  0.00     0.026 C 
BRANCH  32  33
HETATM   33  C18 UNL     1       7.831 -16.695 -15.773  1.00  0.00     0.080 C 
HETATM   34  C19 UNL     1       7.894 -18.231 -15.890  1.00  0.00     0.032 C 
BRANCH  33  35
HETATM   35  N5  UNL     1       6.408 -16.369 -15.715  1.00  0.00    -0.356 N 
HETATM   36  C20 UNL     1       5.701 -15.872 -16.829  1.00  0.00     0.223 C 
HETATM   37  O5  UNL     1       6.392 -15.723 -17.895  1.00  0.00    -0.273 OA
ATOM     38  H5  UNL     1       5.908 -16.506 -14.836  1.00  0.00     0.162 HD
BRANCH  36  39
HETATM   39  C21 UNL     1       4.288 -15.552 -16.773  1.00  0.00     0.089 C 
HETATM   40  C22 UNL     1       3.770 -15.302 -18.205  1.00  0.00     0.041 C 
HETATM   41  C23 UNL     1       2.446 -15.860 -17.692  1.00  0.00     0.093 C 
HETATM   42  C26 UNL     1       3.242 -16.591 -16.621  1.00  0.00    -0.015 C 
HETATM   43  C27 UNL     1       2.531 -16.435 -15.274  1.00  0.00     0.018 C 
HETATM   44  C28 UNL     1       3.563 -18.019 -16.876  1.00  0.00     0.018 C 
BRANCH  41  45
HETATM   45  N6  UNL     1       1.776 -16.693 -18.662  1.00  0.00    -0.356 N 
HETATM   46  C24 UNL     1       0.381 -16.917 -18.559  1.00  0.00     0.213 C 
HETATM   47  C25 UNL     1      -0.285 -17.775 -19.565  1.00  0.00     0.117 C 
HETATM   48  O6  UNL     1      -0.325 -16.421 -17.648  1.00  0.00    -0.274 OA
ATOM     49  H6  UNL     1       2.307 -17.121 -19.421  1.00  0.00     0.162 HD
ENDBRANCH  41  45
ENDBRANCH  36  39
ENDBRANCH  33  35
ENDBRANCH  32  33
ENDBRANCH  31  32
ENDBRANCH  30  31
ENDBRANCH  28  30
ENDBRANCH   1  26
TORSDOF 14
ENDMDL
