MODEL 1
REMARK VINA RESULT: -9.122185622      0.000      0.000
REMARK  13 active torsions:
REMARK  status: ('A' for Active; 'I' for Inactive)
REMARK    1  A    between atoms: C2_2  and  C4_4 
REMARK    2  A    between atoms: C4_4  and  C5_5 
REMARK    3  A    between atoms: C6_6  and  O1_7 
REMARK    4  A    between atoms: N1_9  and  C7_10 
REMARK    5  A    between atoms: C7_10  and  C8_11 
REMARK    6  A    between atoms: C8_11  and  N2_12 
REMARK    7  A    between atoms: N3_15  and  C11_16 
REMARK    8  A    between atoms: C11_16  and  C12_17 
REMARK    9  A    between atoms: C12_17  and  N4_18 
REMARK   10  A    between atoms: N6_36  and  C25_37 
REMARK   11  A    between atoms: C25_37  and  C26_38 
REMARK   12  A    between atoms: C25_37  and  C33_48 
REMARK       I    between atoms: C26_38  and  N7_40 
REMARK   13  A    between atoms: N7_40  and  C27_42 
ROOT
HETATM    1  C5  UNL     1      12.006 -19.351 -18.404  1.00  0.00     0.063 C 
HETATM    2  C6  UNL     1      10.923 -18.373 -18.532  1.00  0.00     0.160 C 
HETATM    3  N1  UNL     1      10.145 -17.579 -17.676  1.00  0.00    -0.353 N 
HETATM    4  C18 UNL     1      10.319 -17.250 -16.326  1.00  0.00     0.098 C 
HETATM    5  C19 UNL     1       9.073 -17.445 -15.462  1.00  0.00     0.026 C 
HETATM    6  C20 UNL     1       8.549 -18.837 -15.460  1.00  0.00     0.009 C 
HETATM    7  C21 UNL     1       9.656 -19.788 -15.057  1.00  0.00     0.079 C 
HETATM    8  C22 UNL     1      10.903 -19.034 -14.720  1.00  0.00     0.134 C 
HETATM    9  O2  UNL     1      11.494 -19.348 -13.719  1.00  0.00    -0.297 OA
HETATM   10  C23 UNL     1      11.416 -17.945 -15.560  1.00  0.00     0.092 C 
HETATM   11  C24 UNL     1      12.532 -18.201 -16.464  1.00  0.00     0.116 C 
HETATM   12  N6  UNL     1      12.593 -19.490 -17.135  1.00  0.00    -0.244 NA
ENDROOT
BRANCH   3  13
HETATM   13  C7  UNL     1       8.964 -17.041 -18.309  1.00  0.00     0.145 C 
BRANCH  13  14
HETATM   14  C8  UNL     1       7.913 -18.018 -18.690  1.00  0.00     0.145 C 
BRANCH  14  15
HETATM   15  N2  UNL     1       6.549 -17.619 -18.581  1.00  0.00    -0.355 N 
HETATM   16  C9  UNL     1       5.908 -16.752 -17.597  1.00  0.00     0.145 C 
HETATM   17  C10 UNL     1       4.494 -17.312 -17.500  1.00  0.00     0.145 C 
HETATM   18  N3  UNL     1       4.274 -18.050 -18.691  1.00  0.00    -0.355 N 
HETATM   19  C17 UNL     1       5.490 -18.032 -19.450  1.00  0.00     0.172 C 
HETATM   20  S1  UNL     1       5.613 -18.423 -21.031  1.00  0.00    -0.041 SA
BRANCH  18  21
HETATM   21  C11 UNL     1       3.073 -18.751 -19.137  1.00  0.00     0.155 C 
BRANCH  21  22
HETATM   22  C12 UNL     1       3.022 -20.100 -18.495  1.00  0.00     0.292 C 
BRANCH  22  23
HETATM   23  N4  UNL     1       3.083 -21.144 -19.466  1.00  0.00     0.093 N 
HETATM   24  C13 UNL     1       1.780 -21.315 -20.127  1.00  0.00     0.300 C 
HETATM   25  C14 UNL     1       1.057 -22.539 -19.675  1.00  0.00     0.262 C 
HETATM   26  N5  UNL     1       1.816 -23.756 -19.915  1.00  0.00    -0.072 N 
HETATM   27  C15 UNL     1       3.233 -23.505 -19.813  1.00  0.00     0.262 C 
ATOM     28  H52 UNL     1       1.522 -24.513 -19.297  1.00  0.00     0.277 HD
ATOM     29  H51 UNL     1       1.572 -24.183 -20.809  1.00  0.00     0.277 HD
HETATM   30  C16 UNL     1       3.422 -22.395 -18.774  1.00  0.00     0.300 C 
ENDBRANCH  22  23
ENDBRANCH  21  22
ENDBRANCH  18  21
ENDBRANCH  14  15
ENDBRANCH  13  14
ENDBRANCH   3  13
BRANCH   2  31
HETATM   31  O1  UNL     1      10.631 -18.219 -19.790  1.00  0.00    -0.345 OA
ATOM     32  H1  UNL     1      10.017 -18.894 -20.054  1.00  0.00     0.219 HD
ENDBRANCH   2  31
BRANCH   1  33
HETATM   33  C4  UNL     1      11.710 -20.500 -19.267  1.00  0.00     0.005 C 
BRANCH  33  34
HETATM   34  C2  UNL     1      10.703 -21.514 -19.003  1.00  0.00     0.002 C 
HETATM   35  C1  UNL     1      10.500 -22.654 -19.947  1.00  0.00     0.013 C 
HETATM   36  C3  UNL     1      10.977 -22.203 -17.636  1.00  0.00     0.013 C 
ENDBRANCH  33  34
ENDBRANCH   1  33
BRANCH  12  37
HETATM   37  C25 UNL     1      13.909 -20.006 -16.959  1.00  0.00     0.064 C 
BRANCH  37  38
HETATM   38  C26 UNL     1      14.438 -20.761 -18.141  1.00  0.00     0.259 C 
HETATM   39  O3  UNL     1      14.881 -20.128 -19.140  1.00  0.00    -0.267 OA
HETATM   40  N7  UNL     1      14.498 -22.161 -18.275  1.00  0.00    -0.352 N 
ATOM     41  H7  UNL     1      14.149 -22.728 -17.503  1.00  0.00     0.163 HD
BRANCH  40  42
HETATM   42  C27 UNL     1      15.023 -22.845 -19.433  1.00  0.00     0.084 C 
HETATM   43  C28 UNL     1      16.350 -23.479 -19.227  1.00  0.00     0.025 C 
HETATM   44  C29 UNL     1      16.340 -24.934 -19.618  1.00  0.00     0.002 C 
HETATM   45  C30 UNL     1      15.225 -25.712 -18.978  1.00  0.00     0.000 C 
HETATM   46  C31 UNL     1      13.884 -25.085 -19.204  1.00  0.00     0.002 C 
HETATM   47  C32 UNL     1      14.040 -23.836 -20.017  1.00  0.00     0.025 C 
ENDBRANCH  40  42
ENDBRANCH  37  38
BRANCH  37  48
HETATM   48  C33 UNL     1      14.515 -20.298 -15.674  1.00  0.00     0.028 C 
HETATM   49  C34 UNL     1      15.963 -20.407 -15.440  1.00  0.00     0.016 C 
HETATM   50  C35 UNL     1      13.784 -21.515 -15.025  1.00  0.00     0.016 C 
ENDBRANCH  37  48
ENDBRANCH  12  37
TORSDOF 13
ENDMDL
MODEL 2
REMARK VINA RESULT: -9.056529360      3.209      4.856
REMARK  13 active torsions:
REMARK  status: ('A' for Active; 'I' for Inactive)
REMARK    1  A    between atoms: C2_2  and  C4_4 
REMARK    2  A    between atoms: C4_4  and  C5_5 
REMARK    3  A    between atoms: C6_6  and  O1_7 
REMARK    4  A    between atoms: N1_9  and  C7_10 
REMARK    5  A    between atoms: C7_10  and  C8_11 
REMARK    6  A    between atoms: C8_11  and  N2_12 
REMARK    7  A    between atoms: N3_15  and  C11_16 
REMARK    8  A    between atoms: C11_16  and  C12_17 
REMARK    9  A    between atoms: C12_17  and  N4_18 
REMARK   10  A    between atoms: N6_36  and  C25_37 
REMARK   11  A    between atoms: C25_37  and  C26_38 
REMARK   12  A    between atoms: C25_37  and  C33_48 
REMARK       I    between atoms: C26_38  and  N7_40 
REMARK   13  A    between atoms: N7_40  and  C27_42 
ROOT
HETATM    1  C5  UNL     1      11.916 -19.396 -18.319  1.00  0.00     0.063 C 
HETATM    2  C6  UNL     1      10.770 -18.485 -18.376  1.00  0.00     0.160 C 
HETATM    3  N1  UNL     1       9.991 -17.751 -17.470  1.00  0.00    -0.353 N 
HETATM    4  C18 UNL     1      10.215 -17.428 -16.126  1.00  0.00     0.098 C 
HETATM    5  C19 UNL     1       9.030 -17.709 -15.203  1.00  0.00     0.026 C 
HETATM    6  C20 UNL     1       8.592 -19.131 -15.194  1.00  0.00     0.009 C 
HETATM    7  C21 UNL     1       9.775 -20.016 -14.862  1.00  0.00     0.079 C 
HETATM    8  C22 UNL     1      10.990 -19.190 -14.579  1.00  0.00     0.134 C 
HETATM    9  O2  UNL     1      11.650 -19.479 -13.614  1.00  0.00    -0.297 OA
HETATM   10  C23 UNL     1      11.390 -18.062 -15.428  1.00  0.00     0.092 C 
HETATM   11  C24 UNL     1      12.471 -18.239 -16.391  1.00  0.00     0.116 C 
HETATM   12  N6  UNL     1      12.575 -19.514 -17.084  1.00  0.00    -0.244 NA
ENDROOT
BRANCH   3  13
HETATM   13  C7  UNL     1       8.748 -17.280 -18.033  1.00  0.00     0.145 C 
BRANCH  13  14
HETATM   14  C8  UNL     1       8.276 -15.947 -17.580  1.00  0.00     0.145 C 
BRANCH  14  15
HETATM   15  N2  UNL     1       6.946 -15.835 -17.083  1.00  0.00    -0.355 N 
HETATM   16  C9  UNL     1       5.739 -16.554 -17.479  1.00  0.00     0.145 C 
HETATM   17  C10 UNL     1       4.628 -15.541 -17.233  1.00  0.00     0.145 C 
HETATM   18  N3  UNL     1       5.145 -14.594 -16.312  1.00  0.00    -0.355 N 
HETATM   19  C17 UNL     1       6.515 -14.933 -16.058  1.00  0.00     0.172 C 
HETATM   20  S1  UNL     1       7.404 -14.368 -14.810  1.00  0.00    -0.041 SA
BRANCH  18  21
HETATM   21  C11 UNL     1       4.488 -13.444 -15.698  1.00  0.00     0.155 C 
BRANCH  21  22
HETATM   22  C12 UNL     1       3.060 -13.399 -16.140  1.00  0.00     0.292 C 
BRANCH  22  23
HETATM   23  N4  UNL     1       2.548 -12.067 -16.118  1.00  0.00     0.093 N 
HETATM   24  C13 UNL     1       1.832 -11.767 -17.369  1.00  0.00     0.300 C 
HETATM   25  C14 UNL     1       2.599 -10.860 -18.272  1.00  0.00     0.262 C 
HETATM   26  N5  UNL     1       2.914  -9.585 -17.647  1.00  0.00    -0.072 N 
HETATM   27  C15 UNL     1       3.098  -9.743 -16.225  1.00  0.00     0.262 C 
ATOM     28  H52 UNL     1       3.720  -9.139 -18.085  1.00  0.00     0.277 HD
ATOM     29  H51 UNL     1       2.211  -8.877 -17.860  1.00  0.00     0.277 HD
HETATM   30  C16 UNL     1       3.681 -11.141 -15.997  1.00  0.00     0.300 C 
ENDBRANCH  22  23
ENDBRANCH  21  22
ENDBRANCH  18  21
ENDBRANCH  14  15
ENDBRANCH  13  14
ENDBRANCH   3  13
BRANCH   2  31
HETATM   31  O1  UNL     1      10.404 -18.335 -19.616  1.00  0.00    -0.345 OA
ATOM     32  H1  UNL     1       9.621 -17.799 -19.648  1.00  0.00     0.219 HD
ENDBRANCH   2  31
BRANCH   1  33
HETATM   33  C4  UNL     1      11.645 -20.552 -19.182  1.00  0.00     0.005 C 
BRANCH  33  34
HETATM   34  C2  UNL     1      10.687 -21.607 -18.901  1.00  0.00     0.002 C 
HETATM   35  C1  UNL     1      10.458 -22.712 -19.880  1.00  0.00     0.013 C 
HETATM   36  C3  UNL     1      11.067 -22.343 -17.586  1.00  0.00     0.013 C 
ENDBRANCH  33  34
ENDBRANCH   1  33
BRANCH  12  37
HETATM   37  C25 UNL     1      13.928 -19.949 -16.983  1.00  0.00     0.064 C 
BRANCH  37  38
HETATM   38  C26 UNL     1      14.416 -20.722 -18.172  1.00  0.00     0.259 C 
HETATM   39  O3  UNL     1      14.786 -20.104 -19.210  1.00  0.00    -0.267 OA
HETATM   40  N7  UNL     1      14.513 -22.122 -18.272  1.00  0.00    -0.352 N 
ATOM     41  H7  UNL     1      14.223 -22.678 -17.468  1.00  0.00     0.163 HD
BRANCH  40  42
HETATM   42  C27 UNL     1      14.997 -22.822 -19.438  1.00  0.00     0.084 C 
HETATM   43  C28 UNL     1      16.268 -23.562 -19.232  1.00  0.00     0.025 C 
HETATM   44  C29 UNL     1      16.150 -25.004 -19.652  1.00  0.00     0.002 C 
HETATM   45  C30 UNL     1      14.971 -25.705 -19.039  1.00  0.00     0.000 C 
HETATM   46  C31 UNL     1      13.685 -24.971 -19.265  1.00  0.00     0.002 C 
HETATM   47  C32 UNL     1      13.946 -23.723 -20.052  1.00  0.00     0.025 C 
ENDBRANCH  40  42
ENDBRANCH  37  38
BRANCH  37  48
HETATM   48  C33 UNL     1      14.637 -20.156 -15.736  1.00  0.00     0.028 C 
HETATM   49  C34 UNL     1      16.100 -20.105 -15.588  1.00  0.00     0.016 C 
HETATM   50  C35 UNL     1      14.082 -21.436 -15.035  1.00  0.00     0.016 C 
ENDBRANCH  37  48
ENDBRANCH  12  37
TORSDOF 13
ENDMDL
MODEL 3
REMARK VINA RESULT: -9.051622093      2.023      2.776
REMARK  13 active torsions:
REMARK  status: ('A' for Active; 'I' for Inactive)
REMARK    1  A    between atoms: C2_2  and  C4_4 
REMARK    2  A    between atoms: C4_4  and  C5_5 
REMARK    3  A    between atoms: C6_6  and  O1_7 
REMARK    4  A    between atoms: N1_9  and  C7_10 
REMARK    5  A    between atoms: C7_10  and  C8_11 
REMARK    6  A    between atoms: C8_11  and  N2_12 
REMARK    7  A    between atoms: N3_15  and  C11_16 
REMARK    8  A    between atoms: C11_16  and  C12_17 
REMARK    9  A    between atoms: C12_17  and  N4_18 
REMARK   10  A    between atoms: N6_36  and  C25_37 
REMARK   11  A    between atoms: C25_37  and  C26_38 
REMARK   12  A    between atoms: C25_37  and  C33_48 
REMARK       I    between atoms: C26_38  and  N7_40 
REMARK   13  A    between atoms: N7_40  and  C27_42 
ROOT
HETATM    1  C5  UNL     1      12.040 -19.338 -18.343  1.00  0.00     0.063 C 
HETATM    2  C6  UNL     1      10.990 -18.323 -18.446  1.00  0.00     0.160 C 
HETATM    3  N1  UNL     1      10.246 -17.517 -17.571  1.00  0.00    -0.353 N 
HETATM    4  C18 UNL     1      10.441 -17.217 -16.217  1.00  0.00     0.098 C 
HETATM    5  C19 UNL     1       9.196 -17.383 -15.347  1.00  0.00     0.026 C 
HETATM    6  C20 UNL     1       8.624 -18.758 -15.363  1.00  0.00     0.009 C 
HETATM    7  C21 UNL     1       9.701 -19.751 -14.984  1.00  0.00     0.079 C 
HETATM    8  C22 UNL     1      10.976 -19.045 -14.646  1.00  0.00     0.134 C 
HETATM    9  O2  UNL     1      11.563 -19.396 -13.654  1.00  0.00    -0.297 OA
HETATM   10  C23 UNL     1      11.519 -17.961 -15.472  1.00  0.00     0.092 C 
HETATM   11  C24 UNL     1      12.618 -18.240 -16.388  1.00  0.00     0.116 C 
HETATM   12  N6  UNL     1      12.631 -19.518 -17.081  1.00  0.00    -0.244 NA
ENDROOT
BRANCH   3  13
HETATM   13  C7  UNL     1       9.079 -16.930 -18.185  1.00  0.00     0.145 C 
BRANCH  13  14
HETATM   14  C8  UNL     1       7.875 -17.793 -18.285  1.00  0.00     0.145 C 
BRANCH  14  15
HETATM   15  N2  UNL     1       6.598 -17.200 -18.066  1.00  0.00    -0.355 N 
HETATM   16  C9  UNL     1       6.232 -16.059 -17.233  1.00  0.00     0.145 C 
HETATM   17  C10 UNL     1       4.811 -16.387 -16.789  1.00  0.00     0.145 C 
HETATM   18  N3  UNL     1       4.310 -17.333 -17.719  1.00  0.00    -0.355 N 
HETATM   19  C17 UNL     1       5.364 -17.647 -18.638  1.00  0.00     0.172 C 
HETATM   20  S1  UNL     1       5.162 -18.390 -20.079  1.00  0.00    -0.041 SA
BRANCH  18  21
HETATM   21  C11 UNL     1       2.986 -17.945 -17.794  1.00  0.00     0.155 C 
BRANCH  21  22
HETATM   22  C12 UNL     1       2.039 -16.994 -18.452  1.00  0.00     0.292 C 
BRANCH  22  23
HETATM   23  N4  UNL     1       0.938 -16.679 -17.601  1.00  0.00     0.093 N 
HETATM   24  C13 UNL     1       1.088 -15.329 -17.036  1.00  0.00     0.300 C 
HETATM   25  C14 UNL     1       1.476 -15.344 -15.595  1.00  0.00     0.262 C 
HETATM   26  N5  UNL     1       0.509 -16.045 -14.765  1.00  0.00    -0.072 N 
HETATM   27  C15 UNL     1      -0.116 -17.117 -15.500  1.00  0.00     0.262 C 
ATOM     28  H52 UNL     1       0.929 -16.378 -13.897  1.00  0.00     0.277 HD
ATOM     29  H51 UNL     1      -0.181 -15.408 -14.368  1.00  0.00     0.277 HD
HETATM   30  C16 UNL     1       0.920 -17.647 -16.496  1.00  0.00     0.300 C 
ENDBRANCH  22  23
ENDBRANCH  21  22
ENDBRANCH  18  21
ENDBRANCH  14  15
ENDBRANCH  13  14
ENDBRANCH   3  13
BRANCH   2  31
HETATM   31  O1  UNL     1      10.693 -18.138 -19.699  1.00  0.00    -0.345 OA
ATOM     32  H1  UNL     1       9.876 -18.580 -19.896  1.00  0.00     0.219 HD
ENDBRANCH   2  31
BRANCH   1  33
HETATM   33  C4  UNL     1      11.698 -20.463 -19.222  1.00  0.00     0.005 C 
BRANCH  33  34
HETATM   34  C2  UNL     1      10.680 -21.464 -18.951  1.00  0.00     0.002 C 
HETATM   35  C1  UNL     1      10.470 -22.611 -19.885  1.00  0.00     0.013 C 
HETATM   36  C3  UNL     1      10.942 -22.141 -17.577  1.00  0.00     0.013 C 
ENDBRANCH  33  34
ENDBRANCH   1  33
BRANCH  12  37
HETATM   37  C25 UNL     1      13.930 -20.081 -16.924  1.00  0.00     0.064 C 
BRANCH  37  38
HETATM   38  C26 UNL     1      14.431 -20.820 -18.129  1.00  0.00     0.259 C 
HETATM   39  O3  UNL     1      14.858 -20.173 -19.126  1.00  0.00    -0.267 OA
HETATM   40  N7  UNL     1      14.480 -22.218 -18.286  1.00  0.00    -0.352 N 
ATOM     41  H7  UNL     1      14.143 -22.796 -17.517  1.00  0.00     0.163 HD
BRANCH  40  42
HETATM   42  C27 UNL     1      14.978 -22.885 -19.466  1.00  0.00     0.084 C 
HETATM   43  C28 UNL     1      16.319 -23.504 -19.306  1.00  0.00     0.025 C 
HETATM   44  C29 UNL     1      16.316 -24.956 -19.709  1.00  0.00     0.002 C 
HETATM   45  C30 UNL     1      15.231 -25.754 -19.042  1.00  0.00     0.000 C 
HETATM   46  C31 UNL     1      13.875 -25.142 -19.220  1.00  0.00     0.002 C 
HETATM   47  C32 UNL     1      13.990 -23.885 -20.028  1.00  0.00     0.025 C 
ENDBRANCH  40  42
ENDBRANCH  37  38
BRANCH  37  48
HETATM   48  C33 UNL     1      14.530 -20.429 -15.651  1.00  0.00     0.028 C 
HETATM   49  C34 UNL     1      15.974 -20.601 -15.427  1.00  0.00     0.016 C 
HETATM   50  C35 UNL     1      13.754 -21.632 -15.027  1.00  0.00     0.016 C 
ENDBRANCH  37  48
ENDBRANCH  12  37
TORSDOF 13
ENDMDL
MODEL 4
REMARK VINA RESULT: -9.008580049      3.039      3.671
REMARK  13 active torsions:
REMARK  status: ('A' for Active; 'I' for Inactive)
REMARK    1  A    between atoms: C2_2  and  C4_4 
REMARK    2  A    between atoms: C4_4  and  C5_5 
REMARK    3  A    between atoms: C6_6  and  O1_7 
REMARK    4  A    between atoms: N1_9  and  C7_10 
REMARK    5  A    between atoms: C7_10  and  C8_11 
REMARK    6  A    between atoms: C8_11  and  N2_12 
REMARK    7  A    between atoms: N3_15  and  C11_16 
REMARK    8  A    between atoms: C11_16  and  C12_17 
REMARK    9  A    between atoms: C12_17  and  N4_18 
REMARK   10  A    between atoms: N6_36  and  C25_37 
REMARK   11  A    between atoms: C25_37  and  C26_38 
REMARK   12  A    between atoms: C25_37  and  C33_48 
REMARK       I    between atoms: C26_38  and  N7_40 
REMARK   13  A    between atoms: N7_40  and  C27_42 
ROOT
HETATM    1  C5  UNL     1      12.003 -19.417 -18.399  1.00  0.00     0.063 C 
HETATM    2  C6  UNL     1      10.882 -18.482 -18.514  1.00  0.00     0.160 C 
HETATM    3  N1  UNL     1      10.087 -17.714 -17.650  1.00  0.00    -0.353 N 
HETATM    4  C18 UNL     1      10.269 -17.372 -16.304  1.00  0.00     0.098 C 
HETATM    5  C19 UNL     1       9.045 -17.610 -15.421  1.00  0.00     0.026 C 
HETATM    6  C20 UNL     1       8.575 -19.022 -15.404  1.00  0.00     0.009 C 
HETATM    7  C21 UNL     1       9.724 -19.927 -15.014  1.00  0.00     0.079 C 
HETATM    8  C22 UNL     1      10.946 -19.124 -14.701  1.00  0.00     0.134 C 
HETATM    9  O2  UNL     1      11.564 -19.411 -13.707  1.00  0.00    -0.297 OA
HETATM   10  C23 UNL     1      11.403 -18.021 -15.553  1.00  0.00     0.092 C 
HETATM   11  C24 UNL     1      12.514 -18.239 -16.473  1.00  0.00     0.116 C 
HETATM   12  N6  UNL     1      12.614 -19.527 -17.139  1.00  0.00    -0.244 NA
ENDROOT
BRANCH   3  13
HETATM   13  C7  UNL     1       8.877 -17.226 -18.266  1.00  0.00     0.145 C 
BRANCH  13  14
HETATM   14  C8  UNL     1       8.288 -15.991 -17.688  1.00  0.00     0.145 C 
BRANCH  14  15
HETATM   15  N2  UNL     1       6.921 -16.018 -17.287  1.00  0.00    -0.355 N 
HETATM   16  C9  UNL     1       5.842 -16.903 -17.715  1.00  0.00     0.145 C 
HETATM   17  C10 UNL     1       4.601 -16.025 -17.607  1.00  0.00     0.145 C 
HETATM   18  N3  UNL     1       4.933 -14.972 -16.717  1.00  0.00    -0.355 N 
HETATM   19  C17 UNL     1       6.311 -15.122 -16.352  1.00  0.00     0.172 C 
HETATM   20  S1  UNL     1       7.032 -14.383 -15.087  1.00  0.00    -0.041 SA
BRANCH  18  21
HETATM   21  C11 UNL     1       4.098 -13.880 -16.222  1.00  0.00     0.155 C 
BRANCH  21  22
HETATM   22  C12 UNL     1       2.673 -14.144 -16.588  1.00  0.00     0.292 C 
BRANCH  22  23
HETATM   23  N4  UNL     1       1.896 -14.501 -15.446  1.00  0.00     0.093 N 
HETATM   24  C13 UNL     1       2.090 -15.921 -15.110  1.00  0.00     0.300 C 
HETATM   25  C14 UNL     1       0.918 -16.768 -15.475  1.00  0.00     0.262 C 
HETATM   26  N5  UNL     1      -0.307 -16.341 -14.817  1.00  0.00    -0.072 N 
HETATM   27  C15 UNL     1      -0.306 -14.913 -14.611  1.00  0.00     0.262 C 
ATOM     28  H52 UNL     1      -1.136 -16.648 -15.326  1.00  0.00     0.277 HD
ATOM     29  H51 UNL     1      -0.464 -16.848 -13.946  1.00  0.00     0.277 HD
HETATM   30  C16 UNL     1       0.479 -14.289 -15.769  1.00  0.00     0.300 C 
ENDBRANCH  22  23
ENDBRANCH  21  22
ENDBRANCH  18  21
ENDBRANCH  14  15
ENDBRANCH  13  14
ENDBRANCH   3  13
BRANCH   2  31
HETATM   31  O1  UNL     1      10.564 -18.345 -19.769  1.00  0.00    -0.345 OA
ATOM     32  H1  UNL     1      10.219 -17.472 -19.911  1.00  0.00     0.219 HD
ENDBRANCH   2  31
BRANCH   1  33
HETATM   33  C4  UNL     1      11.738 -20.581 -19.252  1.00  0.00     0.005 C 
BRANCH  33  34
HETATM   34  C2  UNL     1      10.745 -21.609 -18.990  1.00  0.00     0.002 C 
HETATM   35  C1  UNL     1      10.502 -22.706 -19.974  1.00  0.00     0.013 C 
HETATM   36  C3  UNL     1      11.081 -22.357 -17.669  1.00  0.00     0.013 C 
ENDBRANCH  33  34
ENDBRANCH   1  33
BRANCH  12  37
HETATM   37  C25 UNL     1      13.952 -19.991 -16.981  1.00  0.00     0.064 C 
BRANCH  37  38
HETATM   38  C26 UNL     1      14.481 -20.756 -18.158  1.00  0.00     0.259 C 
HETATM   39  O3  UNL     1      14.909 -20.130 -19.168  1.00  0.00    -0.267 OA
HETATM   40  N7  UNL     1      14.559 -22.156 -18.274  1.00  0.00    -0.352 N 
ATOM     41  H7  UNL     1      14.222 -22.718 -17.492  1.00  0.00     0.163 HD
BRANCH  40  42
HETATM   42  C27 UNL     1      15.084 -22.848 -19.427  1.00  0.00     0.084 C 
HETATM   43  C28 UNL     1      16.378 -23.538 -19.197  1.00  0.00     0.025 C 
HETATM   44  C29 UNL     1      16.320 -24.987 -19.605  1.00  0.00     0.002 C 
HETATM   45  C30 UNL     1      15.160 -25.726 -19.000  1.00  0.00     0.000 C 
HETATM   46  C31 UNL     1      13.851 -25.043 -19.250  1.00  0.00     0.002 C 
HETATM   47  C32 UNL     1      14.076 -23.793 -20.045  1.00  0.00     0.025 C 
ENDBRANCH  40  42
ENDBRANCH  37  38
BRANCH  37  48
HETATM   48  C33 UNL     1      14.596 -20.231 -15.705  1.00  0.00     0.028 C 
HETATM   49  C34 UNL     1      16.053 -20.258 -15.497  1.00  0.00     0.016 C 
HETATM   50  C35 UNL     1      13.945 -21.476 -15.025  1.00  0.00     0.016 C 
ENDBRANCH  37  48
ENDBRANCH  12  37
TORSDOF 13
ENDMDL
MODEL 5
REMARK VINA RESULT: -9.006612420      3.996     11.161
REMARK  13 active torsions:
REMARK  status: ('A' for Active; 'I' for Inactive)
REMARK    1  A    between atoms: C2_2  and  C4_4 
REMARK    2  A    between atoms: C4_4  and  C5_5 
REMARK    3  A    between atoms: C6_6  and  O1_7 
REMARK    4  A    between atoms: N1_9  and  C7_10 
REMARK    5  A    between atoms: C7_10  and  C8_11 
REMARK    6  A    between atoms: C8_11  and  N2_12 
REMARK    7  A    between atoms: N3_15  and  C11_16 
REMARK    8  A    between atoms: C11_16  and  C12_17 
REMARK    9  A    between atoms: C12_17  and  N4_18 
REMARK   10  A    between atoms: N6_36  and  C25_37 
REMARK   11  A    between atoms: C25_37  and  C26_38 
REMARK   12  A    between atoms: C25_37  and  C33_48 
REMARK       I    between atoms: C26_38  and  N7_40 
REMARK   13  A    between atoms: N7_40  and  C27_42 
ROOT
HETATM    1  C5  UNL     1      12.319 -19.318 -17.701  1.00  0.00     0.063 C 
HETATM    2  C6  UNL     1      13.554 -19.991 -18.111  1.00  0.00     0.160 C 
HETATM    3  N1  UNL     1      13.913 -21.093 -18.901  1.00  0.00    -0.353 N 
HETATM    4  C18 UNL     1      13.171 -21.834 -19.828  1.00  0.00     0.098 C 
HETATM    5  C19 UNL     1      13.257 -23.348 -19.642  1.00  0.00     0.026 C 
HETATM    6  C20 UNL     1      12.799 -23.822 -18.308  1.00  0.00     0.009 C 
HETATM    7  C21 UNL     1      11.397 -23.312 -18.050  1.00  0.00     0.079 C 
HETATM    8  C22 UNL     1      10.884 -22.555 -19.234  1.00  0.00     0.134 C 
HETATM    9  O2  UNL     1       9.762 -22.790 -19.604  1.00  0.00    -0.297 OA
HETATM   10  C23 UNL     1      11.694 -21.556 -19.941  1.00  0.00     0.092 C 
HETATM   11  C24 UNL     1      11.461 -20.138 -19.689  1.00  0.00     0.116 C 
HETATM   12  N6  UNL     1      11.133 -19.723 -18.335  1.00  0.00    -0.244 NA
ENDROOT
BRANCH   3  13
HETATM   13  C7  UNL     1      15.273 -21.532 -18.688  1.00  0.00     0.145 C 
BRANCH  13  14
HETATM   14  C8  UNL     1      15.541 -22.280 -17.434  1.00  0.00     0.145 C 
BRANCH  14  15
HETATM   15  N2  UNL     1      16.666 -23.153 -17.396  1.00  0.00    -0.355 N 
HETATM   16  C9  UNL     1      17.571 -23.554 -18.468  1.00  0.00     0.145 C 
HETATM   17  C10 UNL     1      17.988 -24.965 -18.071  1.00  0.00     0.145 C 
HETATM   18  N3  UNL     1      17.743 -25.077 -16.678  1.00  0.00    -0.355 N 
HETATM   19  C17 UNL     1      17.135 -23.855 -16.239  1.00  0.00     0.172 C 
HETATM   20  S1  UNL     1      17.011 -23.376 -14.683  1.00  0.00    -0.041 SA
BRANCH  18  21
HETATM   21  C11 UNL     1      18.008 -26.196 -15.779  1.00  0.00     0.155 C 
BRANCH  21  22
HETATM   22  C12 UNL     1      19.262 -26.888 -16.209  1.00  0.00     0.292 C 
BRANCH  22  23
HETATM   23  N4  UNL     1      18.994 -27.906 -17.172  1.00  0.00     0.093 N 
HETATM   24  C13 UNL     1      18.965 -29.231 -16.531  1.00  0.00     0.300 C 
HETATM   25  C14 UNL     1      20.177 -30.047 -16.832  1.00  0.00     0.262 C 
HETATM   26  N5  UNL     1      20.361 -30.269 -18.258  1.00  0.00    -0.072 N 
HETATM   27  C15 UNL     1      19.865 -29.149 -19.019  1.00  0.00     0.262 C 
ATOM     28  H52 UNL     1      21.333 -30.479 -18.485  1.00  0.00     0.277 HD
ATOM     29  H51 UNL     1      19.939 -31.147 -18.560  1.00  0.00     0.277 HD
HETATM   30  C16 UNL     1      20.075 -27.894 -18.166  1.00  0.00     0.300 C 
ENDBRANCH  22  23
ENDBRANCH  21  22
ENDBRANCH  18  21
ENDBRANCH  14  15
ENDBRANCH  13  14
ENDBRANCH   3  13
BRANCH   2  31
HETATM   31  O1  UNL     1      14.573 -19.372 -17.590  1.00  0.00    -0.345 OA
ATOM     32  H1  UNL     1      15.279 -19.343 -18.224  1.00  0.00     0.219 HD
ENDBRANCH   2  31
BRANCH   1  33
HETATM   33  C4  UNL     1      12.390 -19.037 -16.262  1.00  0.00     0.005 C 
BRANCH  33  34
HETATM   34  C2  UNL     1      12.041 -19.970 -15.204  1.00  0.00     0.002 C 
HETATM   35  C1  UNL     1      13.021 -20.995 -14.735  1.00  0.00     0.013 C 
HETATM   36  C3  UNL     1      11.656 -19.197 -13.911  1.00  0.00     0.013 C 
ENDBRANCH  33  34
ENDBRANCH   1  33
BRANCH  12  37
HETATM   37  C25 UNL     1       9.986 -18.881 -18.408  1.00  0.00     0.064 C 
BRANCH  37  38
HETATM   38  C26 UNL     1       9.350 -18.589 -17.081  1.00  0.00     0.259 C 
HETATM   39  O3  UNL     1       8.963 -19.544 -16.350  1.00  0.00    -0.267 OA
HETATM   40  N7  UNL     1       9.121 -17.314 -16.532  1.00  0.00    -0.352 N 
ATOM     41  H7  UNL     1       9.406 -16.502 -17.078  1.00  0.00     0.163 HD
BRANCH  40  42
HETATM   42  C27 UNL     1       8.509 -17.083 -15.244  1.00  0.00     0.084 C 
HETATM   43  C28 UNL     1       9.088 -15.948 -14.481  1.00  0.00     0.025 C 
HETATM   44  C29 UNL     1       8.028 -14.973 -14.039  1.00  0.00     0.002 C 
HETATM   45  C30 UNL     1       7.138 -14.517 -15.160  1.00  0.00     0.000 C 
HETATM   46  C31 UNL     1       6.537 -15.661 -15.918  1.00  0.00     0.002 C 
HETATM   47  C32 UNL     1       7.004 -16.958 -15.331  1.00  0.00     0.025 C 
ENDBRANCH  40  42
ENDBRANCH  37  38
BRANCH  37  48
HETATM   48  C33 UNL     1       9.146 -18.732 -19.580  1.00  0.00     0.028 C 
HETATM   49  C34 UNL     1       9.010 -17.491 -20.359  1.00  0.00     0.016 C 
HETATM   50  C35 UNL     1       7.731 -19.320 -19.278  1.00  0.00     0.016 C 
ENDBRANCH  37  48
ENDBRANCH  12  37
TORSDOF 13
ENDMDL
