MODEL 1
REMARK VINA RESULT: -9.419787010      0.000      0.000
REMARK  12 active torsions:
REMARK  status: ('A' for Active; 'I' for Inactive)
REMARK    1  A    between atoms: C2_2  and  C3_3 
REMARK    2  A    between atoms: C6_6  and  C7_7 
REMARK       I    between atoms: C7_7  and  N1_9 
REMARK    3  A    between atoms: C11_13  and  C12_14 
REMARK       I    between atoms: C12_14  and  N2_16 
REMARK    4  A    between atoms: N3_19  and  C15_20 
REMARK    5  A    between atoms: C15_20  and  C17_22 
REMARK       I    between atoms: C17_22  and  N4_24 
REMARK    6  A    between atoms: N4_24  and  C18_26 
REMARK    7  A    between atoms: C18_26  and  C19_27 
REMARK    8  A    between atoms: C19_27  and  N5_28 
REMARK       I    between atoms: N6_34  and  C25_35 
REMARK       I    between atoms: C25_35  and  N7_37 
REMARK    9  A    between atoms: N7_37  and  C26_39 
REMARK   10  A    between atoms: C26_39  and  C27_40 
REMARK   11  A    between atoms: C26_39  and  C34_47 
REMARK   12  A    between atoms: C27_40  and  C28_41 
ROOT
HETATM    1  C7  UNL     1      -9.348  18.635 -18.670  1.00  0.00     0.243 C 
HETATM    2  O1  UNL     1      -8.721  18.951 -17.633  1.00  0.00    -0.271 OA
HETATM    3  N1  UNL     1      -8.748  17.963 -19.723  1.00  0.00    -0.337 N 
HETATM    4  C8  UNL     1      -9.581  17.588 -20.926  1.00  0.00     0.127 C 
HETATM    5  C9  UNL     1      -8.715  18.187 -22.010  1.00  0.00     0.022 C 
HETATM    6  C10 UNL     1      -7.280  18.189 -21.444  1.00  0.00     0.037 C 
HETATM    7  C11 UNL     1      -7.476  17.459 -20.131  1.00  0.00     0.179 C 
ENDROOT
BRANCH   1   8
HETATM    8  C6  UNL     1     -10.822  19.038 -18.705  1.00  0.00     0.182 C 
HETATM    9  C5  UNL     1     -10.856  20.193 -19.688  1.00  0.00     0.037 C 
HETATM   10  C4  UNL     1     -10.162  21.304 -18.904  1.00  0.00     0.032 C 
HETATM   11  C3  UNL     1     -10.642  21.070 -17.481  1.00  0.00     0.112 C 
HETATM   12  N6  UNL     1     -11.124  19.719 -17.435  1.00  0.00    -0.312 N 
HETATM   13  C25 UNL     1     -11.767  19.133 -16.289  1.00  0.00     0.324 C 
HETATM   14  O4  UNL     1     -12.201  17.980 -16.467  1.00  0.00    -0.247 OA
HETATM   15  N7  UNL     1     -11.902  19.780 -15.066  1.00  0.00    -0.309 N 
ATOM     16  H7  UNL     1     -11.474  20.705 -15.073  1.00  0.00     0.170 HD
BRANCH  11  17
HETATM   17  C2  UNL     1     -11.778  22.068 -17.323  1.00  0.00    -0.012 C 
HETATM   18  C1  UNL     1     -12.063  22.877 -18.308  1.00  0.00     0.009 C 
ENDBRANCH  11  17
BRANCH  15  19
HETATM   19  C26 UNL     1     -12.480  19.477 -13.826  1.00  0.00     0.059 C 
BRANCH  19  20
HETATM   20  C27 UNL     1     -13.229  20.665 -13.323  1.00  0.00     0.065 C 
BRANCH  20  21
HETATM   21  C28 UNL     1     -13.899  21.515 -14.342  1.00  0.00    -0.009 C 
HETATM   22  C29 UNL     1     -15.171  20.743 -14.768  1.00  0.00     0.005 C 
HETATM   23  C30 UNL     1     -16.149  21.726 -15.406  1.00  0.00     0.000 C 
HETATM   24  C31 UNL     1     -16.817  22.574 -14.325  1.00  0.00     0.000 C 
HETATM   25  C32 UNL     1     -15.766  22.828 -13.266  1.00  0.00     0.000 C 
HETATM   26  C33 UNL     1     -14.384  22.852 -13.907  1.00  0.00     0.005 C 
ENDBRANCH  20  21
ENDBRANCH  19  20
BRANCH  19  27
HETATM   27  C34 UNL     1     -11.801  18.748 -12.784  1.00  0.00     0.168 C 
HETATM   28  C35 UNL     1     -10.690  17.758 -13.065  1.00  0.00     0.098 C 
HETATM   29  O5  UNL     1     -12.051  18.865 -11.613  1.00  0.00    -0.292 OA
ENDBRANCH  19  27
ENDBRANCH  15  19
ENDBRANCH   1   8
BRANCH   7  30
HETATM   30  C12 UNL     1      -6.376  17.444 -19.211  1.00  0.00     0.242 C 
HETATM   31  O2  UNL     1      -5.379  18.254 -19.302  1.00  0.00    -0.271 OA
HETATM   32  N2  UNL     1      -6.261  16.546 -18.104  1.00  0.00    -0.347 N 
HETATM   33  C13 UNL     1      -5.084  16.622 -17.214  1.00  0.00     0.156 C 
HETATM   34  C24 UNL     1      -7.211  15.532 -17.747  1.00  0.00     0.156 C 
HETATM   35  C14 UNL     1      -4.489  15.273 -17.060  1.00  0.00     0.293 C 
HETATM   36  N3  UNL     1      -5.476  14.283 -16.629  1.00  0.00     0.104 N 
HETATM   37  C23 UNL     1      -6.736  14.979 -16.386  1.00  0.00     0.293 C 
BRANCH  36  38
HETATM   38  C15 UNL     1      -4.975  13.714 -15.404  1.00  0.00     0.310 C 
HETATM   39  C16 UNL     1      -6.101  13.394 -14.476  1.00  0.00     0.053 C 
BRANCH  38  40
HETATM   40  C17 UNL     1      -4.049  12.582 -15.603  1.00  0.00     0.251 C 
HETATM   41  O3  UNL     1      -2.827  12.861 -15.700  1.00  0.00    -0.271 OA
HETATM   42  N4  UNL     1      -4.434  11.222 -15.690  1.00  0.00    -0.358 N 
ATOM     43  H4  UNL     1      -5.418  10.963 -15.613  1.00  0.00     0.162 HD
BRANCH  42  44
HETATM   44  C18 UNL     1      -3.427  10.199 -15.890  1.00  0.00     0.150 C 
BRANCH  44  45
HETATM   45  C19 UNL     1      -3.734   9.341 -17.091  1.00  0.00     0.255 C 
BRANCH  45  46
HETATM   46  N5  UNL     1      -4.053   7.986 -16.715  1.00  0.00    -0.077 N 
HETATM   47  C20 UNL     1      -3.312   7.604 -15.521  1.00  0.00     0.271 C 
HETATM   48  C21 UNL     1      -3.657   7.108 -17.803  1.00  0.00     0.271 C 
HETATM   49  C22 UNL     1      -5.482   7.789 -16.499  1.00  0.00     0.271 C 
ENDBRANCH  45  46
ENDBRANCH  44  45
ENDBRANCH  42  44
ENDBRANCH  38  40
ENDBRANCH  36  38
ENDBRANCH   7  30
TORSDOF 12
ENDMDL
MODEL 2
REMARK VINA RESULT: -9.187230792      1.597      3.070
REMARK  12 active torsions:
REMARK  status: ('A' for Active; 'I' for Inactive)
REMARK    1  A    between atoms: C2_2  and  C3_3 
REMARK    2  A    between atoms: C6_6  and  C7_7 
REMARK       I    between atoms: C7_7  and  N1_9 
REMARK    3  A    between atoms: C11_13  and  C12_14 
REMARK       I    between atoms: C12_14  and  N2_16 
REMARK    4  A    between atoms: N3_19  and  C15_20 
REMARK    5  A    between atoms: C15_20  and  C17_22 
REMARK       I    between atoms: C17_22  and  N4_24 
REMARK    6  A    between atoms: N4_24  and  C18_26 
REMARK    7  A    between atoms: C18_26  and  C19_27 
REMARK    8  A    between atoms: C19_27  and  N5_28 
REMARK       I    between atoms: N6_34  and  C25_35 
REMARK       I    between atoms: C25_35  and  N7_37 
REMARK    9  A    between atoms: N7_37  and  C26_39 
REMARK   10  A    between atoms: C26_39  and  C27_40 
REMARK   11  A    between atoms: C26_39  and  C34_47 
REMARK   12  A    between atoms: C27_40  and  C28_41 
ROOT
HETATM    1  C7  UNL     1      -9.919  19.353 -18.968  1.00  0.00     0.243 C 
HETATM    2  O1  UNL     1      -9.371  19.795 -17.931  1.00  0.00    -0.271 OA
HETATM    3  N1  UNL     1      -9.312  18.409 -19.781  1.00  0.00    -0.337 N 
HETATM    4  C8  UNL     1     -10.051  17.901 -20.997  1.00  0.00     0.127 C 
HETATM    5  C9  UNL     1      -8.990  18.152 -22.042  1.00  0.00     0.022 C 
HETATM    6  C10 UNL     1      -7.642  18.092 -21.292  1.00  0.00     0.037 C 
HETATM    7  C11 UNL     1      -8.091  17.677 -19.905  1.00  0.00     0.179 C 
ENDROOT
BRANCH   1   8
HETATM    8  C6  UNL     1     -11.302  19.920 -19.283  1.00  0.00     0.182 C 
HETATM    9  C5  UNL     1     -11.044  20.886 -20.424  1.00  0.00     0.037 C 
HETATM   10  C4  UNL     1     -10.302  22.022 -19.723  1.00  0.00     0.032 C 
HETATM   11  C3  UNL     1     -10.989  22.094 -18.369  1.00  0.00     0.112 C 
HETATM   12  N6  UNL     1     -11.662  20.839 -18.191  1.00  0.00    -0.312 N 
HETATM   13  C25 UNL     1     -12.524  20.540 -17.078  1.00  0.00     0.324 C 
HETATM   14  O4  UNL     1     -13.094  19.434 -17.141  1.00  0.00    -0.247 OA
HETATM   15  N7  UNL     1     -12.719  21.398 -16.002  1.00  0.00    -0.309 N 
ATOM     16  H7  UNL     1     -12.164  22.249 -16.085  1.00  0.00     0.170 HD
BRANCH  11  17
HETATM   17  C2  UNL     1     -11.980  23.235 -18.536  1.00  0.00    -0.012 C 
HETATM   18  C1  UNL     1     -12.813  23.219 -19.542  1.00  0.00     0.009 C 
ENDBRANCH  11  17
BRANCH  15  19
HETATM   19  C26 UNL     1     -13.489  21.383 -14.830  1.00  0.00     0.059 C 
BRANCH  19  20
HETATM   20  C27 UNL     1     -13.336  20.065 -14.151  1.00  0.00     0.065 C 
BRANCH  20  21
HETATM   21  C28 UNL     1     -11.985  19.736 -13.624  1.00  0.00    -0.009 C 
HETATM   22  C29 UNL     1     -12.218  18.803 -12.412  1.00  0.00     0.005 C 
HETATM   23  C30 UNL     1     -10.930  18.034 -12.131  1.00  0.00     0.000 C 
HETATM   24  C31 UNL     1     -10.748  16.926 -13.166  1.00  0.00     0.000 C 
HETATM   25  C32 UNL     1     -11.262  17.475 -14.480  1.00  0.00     0.000 C 
HETATM   26  C33 UNL     1     -11.065  18.985 -14.519  1.00  0.00     0.005 C 
ENDBRANCH  20  21
ENDBRANCH  19  20
BRANCH  19  27
HETATM   27  C34 UNL     1     -14.826  21.917 -14.746  1.00  0.00     0.168 C 
HETATM   28  C35 UNL     1     -15.213  23.011 -13.773  1.00  0.00     0.098 C 
HETATM   29  O5  UNL     1     -15.738  21.547 -15.436  1.00  0.00    -0.292 OA
ENDBRANCH  19  27
ENDBRANCH  15  19
ENDBRANCH   1   8
BRANCH   7  30
HETATM   30  C12 UNL     1      -7.116  17.716 -18.855  1.00  0.00     0.242 C 
HETATM   31  O2  UNL     1      -6.102  18.510 -18.872  1.00  0.00    -0.271 OA
HETATM   32  N2  UNL     1      -7.156  16.894 -17.685  1.00  0.00    -0.347 N 
HETATM   33  C13 UNL     1      -6.099  17.021 -16.660  1.00  0.00     0.156 C 
HETATM   34  C24 UNL     1      -8.161  15.915 -17.384  1.00  0.00     0.156 C 
HETATM   35  C14 UNL     1      -5.551  15.680 -16.343  1.00  0.00     0.293 C 
HETATM   36  N3  UNL     1      -6.601  14.730 -15.976  1.00  0.00     0.104 N 
HETATM   37  C23 UNL     1      -7.869  15.452 -15.940  1.00  0.00     0.293 C 
BRANCH  36  38
HETATM   38  C15 UNL     1      -6.267  14.241 -14.663  1.00  0.00     0.310 C 
HETATM   39  C16 UNL     1      -7.507  13.967 -13.875  1.00  0.00     0.053 C 
BRANCH  38  40
HETATM   40  C17 UNL     1      -5.321  13.109 -14.666  1.00  0.00     0.251 C 
HETATM   41  O3  UNL     1      -4.912  12.710 -13.546  1.00  0.00    -0.271 OA
HETATM   42  N4  UNL     1      -4.846  12.449 -15.826  1.00  0.00    -0.358 N 
ATOM     43  H4  UNL     1      -5.161  12.748 -16.749  1.00  0.00     0.162 HD
BRANCH  42  44
HETATM   44  C18 UNL     1      -3.912  11.348 -15.698  1.00  0.00     0.150 C 
BRANCH  44  45
HETATM   45  C19 UNL     1      -2.724  11.516 -16.610  1.00  0.00     0.255 C 
BRANCH  45  46
HETATM   46  N5  UNL     1      -2.453  10.318 -17.366  1.00  0.00    -0.077 N 
HETATM   47  C20 UNL     1      -1.265   9.652 -16.851  1.00  0.00     0.271 C 
HETATM   48  C21 UNL     1      -2.206  10.699 -18.746  1.00  0.00     0.271 C 
HETATM   49  C22 UNL     1      -3.581   9.394 -17.368  1.00  0.00     0.271 C 
ENDBRANCH  45  46
ENDBRANCH  44  45
ENDBRANCH  42  44
ENDBRANCH  38  40
ENDBRANCH  36  38
ENDBRANCH   7  30
TORSDOF 12
ENDMDL
MODEL 3
REMARK VINA RESULT: -9.131299917      1.117      1.401
REMARK  12 active torsions:
REMARK  status: ('A' for Active; 'I' for Inactive)
REMARK    1  A    between atoms: C2_2  and  C3_3 
REMARK    2  A    between atoms: C6_6  and  C7_7 
REMARK       I    between atoms: C7_7  and  N1_9 
REMARK    3  A    between atoms: C11_13  and  C12_14 
REMARK       I    between atoms: C12_14  and  N2_16 
REMARK    4  A    between atoms: N3_19  and  C15_20 
REMARK    5  A    between atoms: C15_20  and  C17_22 
REMARK       I    between atoms: C17_22  and  N4_24 
REMARK    6  A    between atoms: N4_24  and  C18_26 
REMARK    7  A    between atoms: C18_26  and  C19_27 
REMARK    8  A    between atoms: C19_27  and  N5_28 
REMARK       I    between atoms: N6_34  and  C25_35 
REMARK       I    between atoms: C25_35  and  N7_37 
REMARK    9  A    between atoms: N7_37  and  C26_39 
REMARK   10  A    between atoms: C26_39  and  C27_40 
REMARK   11  A    between atoms: C26_39  and  C34_47 
REMARK   12  A    between atoms: C27_40  and  C28_41 
ROOT
HETATM    1  C7  UNL     1      -9.297  18.639 -18.719  1.00  0.00     0.243 C 
HETATM    2  O1  UNL     1      -8.681  18.942 -17.670  1.00  0.00    -0.271 OA
HETATM    3  N1  UNL     1      -8.688  17.967 -19.767  1.00  0.00    -0.337 N 
HETATM    4  C8  UNL     1      -9.507  17.609 -20.985  1.00  0.00     0.127 C 
HETATM    5  C9  UNL     1      -8.620  18.205 -22.052  1.00  0.00     0.022 C 
HETATM    6  C10 UNL     1      -7.193  18.189 -21.465  1.00  0.00     0.037 C 
HETATM    7  C11 UNL     1      -7.415  17.452 -20.160  1.00  0.00     0.179 C 
ENDROOT
BRANCH   1   8
HETATM    8  C6  UNL     1     -10.765  19.057 -18.772  1.00  0.00     0.182 C 
HETATM    9  C5  UNL     1     -10.774  20.219 -19.748  1.00  0.00     0.037 C 
HETATM   10  C4  UNL     1     -10.079  21.318 -18.946  1.00  0.00     0.032 C 
HETATM   11  C3  UNL     1     -10.582  21.079 -17.532  1.00  0.00     0.112 C 
HETATM   12  N6  UNL     1     -11.078  19.733 -17.502  1.00  0.00    -0.312 N 
HETATM   13  C25 UNL     1     -11.744  19.146 -16.369  1.00  0.00     0.324 C 
HETATM   14  O4  UNL     1     -12.188  17.998 -16.561  1.00  0.00    -0.247 OA
HETATM   15  N7  UNL     1     -11.890  19.786 -15.144  1.00  0.00    -0.309 N 
ATOM     16  H7  UNL     1     -11.452  20.707 -15.138  1.00  0.00     0.170 HD
BRANCH  11  17
HETATM   17  C2  UNL     1     -11.710  22.088 -17.383  1.00  0.00    -0.012 C 
HETATM   18  C1  UNL     1     -12.027  22.849 -18.396  1.00  0.00     0.009 C 
ENDBRANCH  11  17
BRANCH  15  19
HETATM   19  C26 UNL     1     -12.490  19.481 -13.914  1.00  0.00     0.059 C 
BRANCH  19  20
HETATM   20  C27 UNL     1     -13.242  20.670 -13.419  1.00  0.00     0.065 C 
BRANCH  20  21
HETATM   21  C28 UNL     1     -13.959  21.480 -14.438  1.00  0.00    -0.009 C 
HETATM   22  C29 UNL     1     -15.261  20.707 -14.755  1.00  0.00     0.005 C 
HETATM   23  C30 UNL     1     -16.263  21.671 -15.383  1.00  0.00     0.000 C 
HETATM   24  C31 UNL     1     -16.861  22.576 -14.308  1.00  0.00     0.000 C 
HETATM   25  C32 UNL     1     -15.749  22.866 -13.322  1.00  0.00     0.000 C 
HETATM   26  C33 UNL     1     -14.406  22.842 -14.040  1.00  0.00     0.005 C 
ENDBRANCH  20  21
ENDBRANCH  19  20
BRANCH  19  27
HETATM   27  C34 UNL     1     -11.830  18.745 -12.864  1.00  0.00     0.168 C 
HETATM   28  C35 UNL     1     -10.776  17.693 -13.137  1.00  0.00     0.098 C 
HETATM   29  O5  UNL     1     -12.053  18.905 -11.694  1.00  0.00    -0.292 OA
ENDBRANCH  19  27
ENDBRANCH  15  19
ENDBRANCH   1   8
BRANCH   7  30
HETATM   30  C12 UNL     1      -6.329  17.421 -19.224  1.00  0.00     0.242 C 
HETATM   31  O2  UNL     1      -5.292  18.176 -19.332  1.00  0.00    -0.271 OA
HETATM   32  N2  UNL     1      -6.273  16.563 -18.082  1.00  0.00    -0.347 N 
HETATM   33  C13 UNL     1      -5.105  16.616 -17.178  1.00  0.00     0.156 C 
HETATM   34  C24 UNL     1      -7.277  15.612 -17.698  1.00  0.00     0.156 C 
HETATM   35  C14 UNL     1      -4.580  15.247 -16.962  1.00  0.00     0.293 C 
HETATM   36  N3  UNL     1      -5.620  14.324 -16.507  1.00  0.00     0.104 N 
HETATM   37  C23 UNL     1      -6.846  15.091 -16.310  1.00  0.00     0.293 C 
BRANCH  36  38
HETATM   38  C15 UNL     1      -5.163  13.781 -15.254  1.00  0.00     0.310 C 
HETATM   39  C16 UNL     1      -6.283  13.728 -14.266  1.00  0.00     0.053 C 
BRANCH  38  40
HETATM   40  C17 UNL     1      -4.443  12.499 -15.382  1.00  0.00     0.251 C 
HETATM   41  O3  UNL     1      -4.470  11.733 -14.386  1.00  0.00    -0.271 OA
HETATM   42  N4  UNL     1      -3.733  12.077 -16.532  1.00  0.00    -0.358 N 
ATOM     43  H4  UNL     1      -3.694  12.675 -17.358  1.00  0.00     0.162 HD
BRANCH  42  44
HETATM   44  C18 UNL     1      -3.061  10.792 -16.534  1.00  0.00     0.150 C 
BRANCH  44  45
HETATM   45  C19 UNL     1      -1.584  10.936 -16.276  1.00  0.00     0.255 C 
BRANCH  45  46
HETATM   46  N5  UNL     1      -1.030   9.755 -15.661  1.00  0.00    -0.077 N 
HETATM   47  C20 UNL     1      -1.992   9.164 -14.741  1.00  0.00     0.271 C 
HETATM   48  C21 UNL     1       0.148  10.147 -14.905  1.00  0.00     0.271 C 
HETATM   49  C22 UNL     1      -0.604   8.763 -16.641  1.00  0.00     0.271 C 
ENDBRANCH  45  46
ENDBRANCH  44  45
ENDBRANCH  42  44
ENDBRANCH  38  40
ENDBRANCH  36  38
ENDBRANCH   7  30
TORSDOF 12
ENDMDL
MODEL 4
REMARK VINA RESULT: -9.053464652      3.856     12.543
REMARK  12 active torsions:
REMARK  status: ('A' for Active; 'I' for Inactive)
REMARK    1  A    between atoms: C2_2  and  C3_3 
REMARK    2  A    between atoms: C6_6  and  C7_7 
REMARK       I    between atoms: C7_7  and  N1_9 
REMARK    3  A    between atoms: C11_13  and  C12_14 
REMARK       I    between atoms: C12_14  and  N2_16 
REMARK    4  A    between atoms: N3_19  and  C15_20 
REMARK    5  A    between atoms: C15_20  and  C17_22 
REMARK       I    between atoms: C17_22  and  N4_24 
REMARK    6  A    between atoms: N4_24  and  C18_26 
REMARK    7  A    between atoms: C18_26  and  C19_27 
REMARK    8  A    between atoms: C19_27  and  N5_28 
REMARK       I    between atoms: N6_34  and  C25_35 
REMARK       I    between atoms: C25_35  and  N7_37 
REMARK    9  A    between atoms: N7_37  and  C26_39 
REMARK   10  A    between atoms: C26_39  and  C27_40 
REMARK   11  A    between atoms: C26_39  and  C34_47 
REMARK   12  A    between atoms: C27_40  and  C28_41 
ROOT
HETATM    1  C7  UNL     1     -11.724  19.289 -16.971  1.00  0.00     0.243 C 
HETATM    2  O1  UNL     1     -12.411  20.229 -16.506  1.00  0.00    -0.271 OA
HETATM    3  N1  UNL     1     -10.874  19.457 -18.051  1.00  0.00    -0.337 N 
HETATM    4  C8  UNL     1     -10.055  18.282 -18.532  1.00  0.00     0.127 C 
HETATM    5  C9  UNL     1     -10.438  18.307 -19.993  1.00  0.00     0.022 C 
HETATM    6  C10 UNL     1     -10.809  19.773 -20.302  1.00  0.00     0.037 C 
HETATM    7  C11 UNL     1     -10.463  20.451 -18.992  1.00  0.00     0.179 C 
ENDROOT
BRANCH   1   8
HETATM    8  C6  UNL     1     -11.884  17.940 -16.271  1.00  0.00     0.182 C 
HETATM    9  C5  UNL     1     -12.957  18.199 -15.229  1.00  0.00     0.037 C 
HETATM   10  C4  UNL     1     -12.223  19.082 -14.223  1.00  0.00     0.032 C 
HETATM   11  C3  UNL     1     -10.818  18.500 -14.219  1.00  0.00     0.112 C 
HETATM   12  N6  UNL     1     -10.694  17.737 -15.427  1.00  0.00    -0.312 N 
HETATM   13  C25 UNL     1      -9.547  16.933 -15.756  1.00  0.00     0.324 C 
HETATM   14  O4  UNL     1      -9.658  16.268 -16.803  1.00  0.00    -0.247 OA
HETATM   15  N7  UNL     1      -8.391  16.887 -14.985  1.00  0.00    -0.309 N 
ATOM     16  H7  UNL     1      -8.445  17.505 -14.176  1.00  0.00     0.170 HD
BRANCH  11  17
HETATM   17  C2  UNL     1     -10.812  17.601 -12.993  1.00  0.00    -0.012 C 
HETATM   18  C1  UNL     1     -11.249  18.067 -11.853  1.00  0.00     0.009 C 
ENDBRANCH  11  17
BRANCH  15  19
HETATM   19  C26 UNL     1      -7.169  16.203 -15.043  1.00  0.00     0.059 C 
BRANCH  19  20
HETATM   20  C27 UNL     1      -6.240  16.921 -15.963  1.00  0.00     0.065 C 
BRANCH  20  21
HETATM   21  C28 UNL     1      -6.192  16.447 -17.371  1.00  0.00    -0.009 C 
HETATM   22  C29 UNL     1      -6.758  17.603 -18.228  1.00  0.00     0.005 C 
HETATM   23  C30 UNL     1      -6.294  17.417 -19.669  1.00  0.00     0.000 C 
HETATM   24  C31 UNL     1      -4.825  17.813 -19.800  1.00  0.00     0.000 C 
HETATM   25  C32 UNL     1      -4.147  17.379 -18.517  1.00  0.00     0.000 C 
HETATM   26  C33 UNL     1      -4.854  16.155 -17.950  1.00  0.00     0.005 C 
ENDBRANCH  20  21
ENDBRANCH  19  20
BRANCH  19  27
HETATM   27  C34 UNL     1      -7.060  14.768 -15.130  1.00  0.00     0.168 C 
HETATM   28  C35 UNL     1      -5.756  14.029 -14.913  1.00  0.00     0.098 C 
HETATM   29  O5  UNL     1      -7.986  14.040 -15.374  1.00  0.00    -0.292 OA
ENDBRANCH  19  27
ENDBRANCH  15  19
ENDBRANCH   1   8
BRANCH   7  30
HETATM   30  C12 UNL     1     -10.871  21.815 -18.824  1.00  0.00     0.242 C 
HETATM   31  O2  UNL     1     -10.215  22.656 -18.102  1.00  0.00    -0.271 OA
HETATM   32  N2  UNL     1     -12.033  22.390 -19.428  1.00  0.00    -0.347 N 
HETATM   33  C13 UNL     1     -12.358  23.812 -19.190  1.00  0.00     0.156 C 
HETATM   34  C24 UNL     1     -12.959  21.704 -20.282  1.00  0.00     0.156 C 
HETATM   35  C14 UNL     1     -13.771  23.934 -18.759  1.00  0.00     0.293 C 
HETATM   36  N3  UNL     1     -14.689  23.280 -19.691  1.00  0.00     0.104 N 
HETATM   37  C23 UNL     1     -13.908  22.795 -20.825  1.00  0.00     0.293 C 
BRANCH  36  38
HETATM   38  C15 UNL     1     -15.621  24.290 -20.122  1.00  0.00     0.310 C 
HETATM   39  C16 UNL     1     -16.104  24.001 -21.506  1.00  0.00     0.053 C 
BRANCH  38  40
HETATM   40  C17 UNL     1     -16.718  24.541 -19.167  1.00  0.00     0.251 C 
HETATM   41  O3  UNL     1     -17.542  23.608 -18.994  1.00  0.00    -0.271 OA
HETATM   42  N4  UNL     1     -16.905  25.744 -18.443  1.00  0.00    -0.358 N 
ATOM     43  H4  UNL     1     -16.252  26.519 -18.560  1.00  0.00     0.162 HD
BRANCH  42  44
HETATM   44  C18 UNL     1     -18.027  25.871 -17.533  1.00  0.00     0.150 C 
BRANCH  44  45
HETATM   45  C19 UNL     1     -18.894  27.054 -17.880  1.00  0.00     0.255 C 
BRANCH  45  46
HETATM   46  N5  UNL     1     -19.325  27.766 -16.703  1.00  0.00    -0.077 N 
HETATM   47  C20 UNL     1     -18.724  27.185 -15.510  1.00  0.00     0.271 C 
HETATM   48  C21 UNL     1     -20.769  27.637 -16.598  1.00  0.00     0.271 C 
HETATM   49  C22 UNL     1     -19.023  29.191 -16.771  1.00  0.00     0.271 C 
ENDBRANCH  45  46
ENDBRANCH  44  45
ENDBRANCH  42  44
ENDBRANCH  38  40
ENDBRANCH  36  38
ENDBRANCH   7  30
TORSDOF 12
ENDMDL
MODEL 5
REMARK VINA RESULT: -8.886303915      2.056      3.232
REMARK  12 active torsions:
REMARK  status: ('A' for Active; 'I' for Inactive)
REMARK    1  A    between atoms: C2_2  and  C3_3 
REMARK    2  A    between atoms: C6_6  and  C7_7 
REMARK       I    between atoms: C7_7  and  N1_9 
REMARK    3  A    between atoms: C11_13  and  C12_14 
REMARK       I    between atoms: C12_14  and  N2_16 
REMARK    4  A    between atoms: N3_19  and  C15_20 
REMARK    5  A    between atoms: C15_20  and  C17_22 
REMARK       I    between atoms: C17_22  and  N4_24 
REMARK    6  A    between atoms: N4_24  and  C18_26 
REMARK    7  A    between atoms: C18_26  and  C19_27 
REMARK    8  A    between atoms: C19_27  and  N5_28 
REMARK       I    between atoms: N6_34  and  C25_35 
REMARK       I    between atoms: C25_35  and  N7_37 
REMARK    9  A    between atoms: N7_37  and  C26_39 
REMARK   10  A    between atoms: C26_39  and  C27_40 
REMARK   11  A    between atoms: C26_39  and  C34_47 
REMARK   12  A    between atoms: C27_40  and  C28_41 
ROOT
HETATM    1  C7  UNL     1      -9.345  18.819 -18.755  1.00  0.00     0.243 C 
HETATM    2  O1  UNL     1      -8.696  19.252 -17.773  1.00  0.00    -0.271 OA
HETATM    3  N1  UNL     1      -8.753  18.077 -19.764  1.00  0.00    -0.337 N 
HETATM    4  C8  UNL     1      -9.610  17.564 -20.898  1.00  0.00     0.127 C 
HETATM    5  C9  UNL     1      -8.807  18.093 -22.062  1.00  0.00     0.022 C 
HETATM    6  C10 UNL     1      -7.354  18.201 -21.552  1.00  0.00     0.037 C 
HETATM    7  C11 UNL     1      -7.476  17.586 -20.173  1.00  0.00     0.179 C 
ENDROOT
BRANCH   1   8
HETATM    8  C6  UNL     1     -10.834  19.161 -18.771  1.00  0.00     0.182 C 
HETATM    9  C5  UNL     1     -10.925  20.330 -19.734  1.00  0.00     0.037 C 
HETATM   10  C4  UNL     1     -10.269  21.456 -18.937  1.00  0.00     0.032 C 
HETATM   11  C3  UNL     1     -10.727  21.179 -17.514  1.00  0.00     0.112 C 
HETATM   12  N6  UNL     1     -11.152  19.809 -17.487  1.00  0.00    -0.312 N 
HETATM   13  C25 UNL     1     -11.760  19.178 -16.346  1.00  0.00     0.324 C 
HETATM   14  O4  UNL     1     -12.149  18.011 -16.539  1.00  0.00    -0.247 OA
HETATM   15  N7  UNL     1     -11.911  19.799 -15.111  1.00  0.00    -0.309 N 
ATOM     16  H7  UNL     1     -11.521  20.741 -15.106  1.00  0.00     0.170 HD
BRANCH  11  17
HETATM   17  C2  UNL     1     -11.902  22.127 -17.330  1.00  0.00    -0.012 C 
HETATM   18  C1  UNL     1     -12.275  22.886 -18.325  1.00  0.00     0.009 C 
ENDBRANCH  11  17
BRANCH  15  19
HETATM   19  C26 UNL     1     -12.466  19.452 -13.871  1.00  0.00     0.059 C 
BRANCH  19  20
HETATM   20  C27 UNL     1     -13.247  20.604 -13.336  1.00  0.00     0.065 C 
BRANCH  20  21
HETATM   21  C28 UNL     1     -13.897  21.494 -14.334  1.00  0.00    -0.009 C 
HETATM   22  C29 UNL     1     -15.183  20.760 -14.783  1.00  0.00     0.005 C 
HETATM   23  C30 UNL     1     -16.139  21.778 -15.397  1.00  0.00     0.000 C 
HETATM   24  C31 UNL     1     -16.793  22.611 -14.297  1.00  0.00     0.000 C 
HETATM   25  C32 UNL     1     -15.740  22.816 -13.229  1.00  0.00     0.000 C 
HETATM   26  C33 UNL     1     -14.356  22.829 -13.866  1.00  0.00     0.005 C 
ENDBRANCH  20  21
ENDBRANCH  19  20
BRANCH  19  27
HETATM   27  C34 UNL     1     -11.751  18.725 -12.851  1.00  0.00     0.168 C 
HETATM   28  C35 UNL     1     -10.634  17.752 -13.167  1.00  0.00     0.098 C 
HETATM   29  O5  UNL     1     -11.974  18.831 -11.674  1.00  0.00    -0.292 OA
ENDBRANCH  19  27
ENDBRANCH  15  19
ENDBRANCH   1   8
BRANCH   7  30
HETATM   30  C12 UNL     1      -6.346  17.697 -19.296  1.00  0.00     0.242 C 
HETATM   31  O2  UNL     1      -5.421  18.579 -19.458  1.00  0.00    -0.271 OA
HETATM   32  N2  UNL     1      -6.120  16.858 -18.161  1.00  0.00    -0.347 N 
HETATM   33  C13 UNL     1      -4.922  17.064 -17.321  1.00  0.00     0.156 C 
HETATM   34  C24 UNL     1      -6.972  15.789 -17.727  1.00  0.00     0.156 C 
HETATM   35  C14 UNL     1      -4.215  15.773 -17.138  1.00  0.00     0.293 C 
HETATM   36  N3  UNL     1      -5.103  14.728 -16.630  1.00  0.00     0.104 N 
HETATM   37  C23 UNL     1      -6.405  15.333 -16.365  1.00  0.00     0.293 C 
BRANCH  36  38
HETATM   38  C15 UNL     1      -4.515  14.252 -15.405  1.00  0.00     0.310 C 
HETATM   39  C16 UNL     1      -5.059  12.906 -15.050  1.00  0.00     0.053 C 
BRANCH  38  40
HETATM   40  C17 UNL     1      -3.040  14.303 -15.387  1.00  0.00     0.251 C 
HETATM   41  O3  UNL     1      -2.434  13.335 -15.910  1.00  0.00    -0.271 OA
HETATM   42  N4  UNL     1      -2.270  15.353 -14.829  1.00  0.00    -0.358 N 
ATOM     43  H4  UNL     1      -2.733  16.154 -14.399  1.00  0.00     0.162 HD
BRANCH  42  44
HETATM   44  C18 UNL     1      -0.822  15.287 -14.871  1.00  0.00     0.150 C 
BRANCH  44  45
HETATM   45  C19 UNL     1      -0.237  16.400 -15.702  1.00  0.00     0.255 C 
BRANCH  45  46
HETATM   46  N5  UNL     1       0.364  15.904 -16.916  1.00  0.00    -0.077 N 
HETATM   47  C20 UNL     1       0.952  14.591 -16.690  1.00  0.00     0.271 C 
HETATM   48  C21 UNL     1       1.422  16.821 -17.305  1.00  0.00     0.271 C 
HETATM   49  C22 UNL     1      -0.584  15.844 -18.022  1.00  0.00     0.271 C 
ENDBRANCH  45  46
ENDBRANCH  44  45
ENDBRANCH  42  44
ENDBRANCH  38  40
ENDBRANCH  36  38
ENDBRANCH   7  30
TORSDOF 12
ENDMDL
