MODEL 1
REMARK VINA RESULT: -9.857453614      0.000      0.000
REMARK  13 active torsions:
REMARK  status: ('A' for Active; 'I' for Inactive)
REMARK       I    between atoms: C2_2  and  N1_4 
REMARK    1  A    between atoms: N1_4  and  C3_6 
REMARK       I    between atoms: N2_9  and  C6_10 
REMARK    2  A    between atoms: C6_10  and  C7_12 
REMARK       I    between atoms: N3_16  and  C11_17 
REMARK    3  A    between atoms: C11_17  and  C12_19 
REMARK    4  A    between atoms: C12_19  and  N4_20 
REMARK    5  A    between atoms: N4_20  and  C13_21 
REMARK       I    between atoms: N4_20  and  C27_41 
REMARK    6  A    between atoms: C13_21  and  C14_22 
REMARK    7  A    between atoms: C14_22  and  C16_24 
REMARK    8  A    between atoms: C16_24  and  C17_25 
REMARK       I    between atoms: C17_25  and  N5_27 
REMARK    9  A    between atoms: N5_27  and  C18_29 
REMARK   10  A    between atoms: C18_29  and  C19_30 
REMARK   11  A    between atoms: C19_30  and  N6_31 
REMARK   12  A    between atoms: C25_37  and  C26_38 
REMARK   13  A    between atoms: C27_41  and  C28_43 
ROOT
HETATM    1  N4  UNL     1     -12.257  20.134 -14.700  1.00  0.00    -0.342 N 
HETATM    2  C27 UNL     1     -12.063  19.409 -13.514  1.00  0.00     0.227 C 
HETATM    3  O7  UNL     1     -12.766  19.826 -12.505  1.00  0.00    -0.273 OA
ENDROOT
BRANCH   1   4
HETATM    4  C12 UNL     1     -11.620  19.771 -15.924  1.00  0.00     0.228 C 
BRANCH   4   5
HETATM    5  C11 UNL     1     -11.059  20.928 -16.688  1.00  0.00     0.238 C 
HETATM    6  N3  UNL     1     -10.718  20.718 -18.043  1.00  0.00    -0.337 N 
HETATM    7  C7  UNL     1     -10.828  19.480 -18.778  1.00  0.00     0.179 C 
HETATM    8  C10 UNL     1     -10.214  21.735 -18.924  1.00  0.00     0.127 C 
HETATM    9  C8  UNL     1     -11.395  20.006 -20.108  1.00  0.00     0.037 C 
HETATM   10  C9  UNL     1     -10.545  21.253 -20.296  1.00  0.00     0.022 C 
HETATM   11  O3  UNL     1     -10.893  22.041 -16.168  1.00  0.00    -0.272 OA
BRANCH   7  12
HETATM   12  C6  UNL     1      -9.531  18.854 -19.098  1.00  0.00     0.242 C 
HETATM   13  N2  UNL     1      -9.022  17.809 -18.321  1.00  0.00    -0.350 N 
HETATM   14  C5  UNL     1      -9.716  17.317 -17.159  1.00  0.00     0.128 C 
HETATM   15  C32 UNL     1      -7.752  17.144 -18.642  1.00  0.00     0.128 C 
HETATM   16  C4  UNL     1      -8.603  16.808 -16.216  1.00  0.00     0.045 C 
HETATM   17  C3  UNL     1      -8.125  15.519 -16.856  1.00  0.00     0.087 C 
HETATM   18  C33 UNL     1      -7.941  15.674 -18.338  1.00  0.00     0.045 C 
HETATM   19  O2  UNL     1      -8.897  19.303 -20.106  1.00  0.00    -0.271 OA
BRANCH  17  20
HETATM   20  N1  UNL     1      -6.863  15.109 -16.279  1.00  0.00    -0.357 N 
HETATM   21  C2  UNL     1      -6.815  14.065 -15.314  1.00  0.00     0.213 C 
HETATM   22  C1  UNL     1      -5.544  13.610 -14.698  1.00  0.00     0.117 C 
HETATM   23  O1  UNL     1      -7.881  13.508 -14.972  1.00  0.00    -0.274 OA
ATOM     24  H1  UNL     1      -6.002  15.573 -16.567  1.00  0.00     0.162 HD
ENDBRANCH  17  20
ENDBRANCH   7  12
ENDBRANCH   4   5
ENDBRANCH   1   4
BRANCH   1  25
HETATM   25  C13 UNL     1     -13.176  21.297 -14.638  1.00  0.00     0.131 C 
BRANCH  25  26
HETATM   26  C14 UNL     1     -14.518  21.001 -15.227  1.00  0.00     0.008 C 
HETATM   27  C15 UNL     1     -14.755  19.491 -15.344  1.00  0.00     0.012 C 
BRANCH  26  28
HETATM   28  C16 UNL     1     -15.685  21.557 -14.488  1.00  0.00     0.108 C 
BRANCH  28  29
HETATM   29  C17 UNL     1     -16.448  22.622 -15.170  1.00  0.00     0.217 C 
HETATM   30  O4  UNL     1     -17.287  23.333 -14.526  1.00  0.00    -0.274 OA
HETATM   31  N5  UNL     1     -16.262  22.873 -16.556  1.00  0.00    -0.359 N 
ATOM     32  H5  UNL     1     -15.587  22.310 -17.073  1.00  0.00     0.162 HD
BRANCH  31  33
HETATM   33  C18 UNL     1     -16.994  23.893 -17.254  1.00  0.00     0.150 C 
BRANCH  33  34
HETATM   34  C19 UNL     1     -17.141  23.551 -18.687  1.00  0.00     0.258 C 
BRANCH  34  35
HETATM   35  N6  UNL     1     -16.115  24.029 -19.552  1.00  0.00    -0.051 N 
HETATM   36  C20 UNL     1     -16.621  24.422 -20.862  1.00  0.00     0.239 C 
HETATM   37  C21 UNL     1     -15.475  24.298 -21.844  1.00  0.00     0.035 C 
HETATM   38  C22 UNL     1     -14.333  23.950 -20.875  1.00  0.00     0.031 C 
HETATM   39  C23 UNL     1     -14.130  25.167 -20.051  1.00  0.00     0.035 C 
HETATM   40  C25 UNL     1     -15.129  23.045 -19.946  1.00  0.00     0.294 C 
HETATM   41  C24 UNL     1     -15.318  25.111 -19.078  1.00  0.00     0.239 C 
BRANCH  40  42
HETATM   42  C26 UNL     1     -14.354  22.443 -18.891  1.00  0.00     0.205 C 
HETATM   43  O5  UNL     1     -14.508  21.179 -18.722  1.00  0.00    -0.646 OA
HETATM   44  O6  UNL     1     -13.460  23.023 -18.020  1.00  0.00    -0.646 OA
ENDBRANCH  40  42
ENDBRANCH  34  35
ENDBRANCH  33  34
ENDBRANCH  31  33
ENDBRANCH  28  29
ENDBRANCH  26  28
ENDBRANCH  25  26
ENDBRANCH   1  25
BRANCH   2  45
HETATM   45  C28 UNL     1     -11.205  18.273 -13.219  1.00  0.00     0.030 C 
HETATM   46  C29 UNL     1     -11.239  17.953 -11.697  1.00  0.00     0.025 C 
HETATM   47  C30 UNL     1     -11.662  16.989 -13.866  1.00  0.00     0.025 C 
HETATM   48  C31 UNL     1      -9.750  18.465 -13.562  1.00  0.00     0.025 C 
ENDBRANCH   2  45
TORSDOF 13
ENDMDL
MODEL 2
REMARK VINA RESULT: -9.766959494      3.703      6.794
REMARK  13 active torsions:
REMARK  status: ('A' for Active; 'I' for Inactive)
REMARK       I    between atoms: C2_2  and  N1_4 
REMARK    1  A    between atoms: N1_4  and  C3_6 
REMARK       I    between atoms: N2_9  and  C6_10 
REMARK    2  A    between atoms: C6_10  and  C7_12 
REMARK       I    between atoms: N3_16  and  C11_17 
REMARK    3  A    between atoms: C11_17  and  C12_19 
REMARK    4  A    between atoms: C12_19  and  N4_20 
REMARK    5  A    between atoms: N4_20  and  C13_21 
REMARK       I    between atoms: N4_20  and  C27_41 
REMARK    6  A    between atoms: C13_21  and  C14_22 
REMARK    7  A    between atoms: C14_22  and  C16_24 
REMARK    8  A    between atoms: C16_24  and  C17_25 
REMARK       I    between atoms: C17_25  and  N5_27 
REMARK    9  A    between atoms: N5_27  and  C18_29 
REMARK   10  A    between atoms: C18_29  and  C19_30 
REMARK   11  A    between atoms: C19_30  and  N6_31 
REMARK   12  A    between atoms: C25_37  and  C26_38 
REMARK   13  A    between atoms: C27_41  and  C28_43 
ROOT
HETATM    1  N4  UNL     1      -9.233  17.208 -16.686  1.00  0.00    -0.342 N 
HETATM    2  C27 UNL     1     -10.512  17.345 -16.125  1.00  0.00     0.227 C 
HETATM    3  O7  UNL     1     -11.478  17.407 -16.992  1.00  0.00    -0.273 OA
ENDROOT
BRANCH   1   4
HETATM    4  C12 UNL     1      -8.065  17.055 -15.881  1.00  0.00     0.228 C 
BRANCH   4   5
HETATM    5  C11 UNL     1      -7.497  15.671 -15.885  1.00  0.00     0.238 C 
HETATM    6  N3  UNL     1      -6.123  15.525 -16.180  1.00  0.00    -0.337 N 
HETATM    7  C7  UNL     1      -5.195  16.581 -16.512  1.00  0.00     0.179 C 
HETATM    8  C10 UNL     1      -5.417  14.274 -16.178  1.00  0.00     0.127 C 
HETATM    9  C8  UNL     1      -3.975  16.136 -15.688  1.00  0.00     0.037 C 
HETATM   10  C9  UNL     1      -3.987  14.640 -15.963  1.00  0.00     0.022 C 
HETATM   11  O3  UNL     1      -8.191  14.674 -15.638  1.00  0.00    -0.272 OA
BRANCH   7  12
HETATM   12  C6  UNL     1      -4.765  16.582 -17.923  1.00  0.00     0.242 C 
HETATM   13  N2  UNL     1      -3.784  17.469 -18.378  1.00  0.00    -0.350 N 
HETATM   14  C5  UNL     1      -3.174  18.440 -17.508  1.00  0.00     0.128 C 
HETATM   15  C32 UNL     1      -3.311  17.463 -19.769  1.00  0.00     0.128 C 
HETATM   16  C4  UNL     1      -2.804  19.624 -18.429  1.00  0.00     0.045 C 
HETATM   17  C3  UNL     1      -1.610  19.128 -19.222  1.00  0.00     0.087 C 
HETATM   18  C33 UNL     1      -1.823  17.730 -19.724  1.00  0.00     0.045 C 
HETATM   19  O2  UNL     1      -5.321  15.747 -18.705  1.00  0.00    -0.271 OA
BRANCH  17  20
HETATM   20  N1  UNL     1      -1.368  19.991 -20.357  1.00  0.00    -0.357 N 
HETATM   21  C2  UNL     1      -0.326  20.958 -20.322  1.00  0.00     0.213 C 
HETATM   22  C1  UNL     1      -0.040  21.862 -21.464  1.00  0.00     0.117 C 
HETATM   23  O1  UNL     1       0.377  21.052 -19.292  1.00  0.00    -0.274 OA
ATOM     24  H1  UNL     1      -1.950  19.905 -21.191  1.00  0.00     0.162 HD
ENDBRANCH  17  20
ENDBRANCH   7  12
ENDBRANCH   4   5
ENDBRANCH   1   4
BRANCH   1  25
HETATM   25  C13 UNL     1      -9.141  17.208 -18.167  1.00  0.00     0.131 C 
BRANCH  25  26
HETATM   26  C14 UNL     1      -8.169  18.220 -18.681  1.00  0.00     0.008 C 
HETATM   27  C15 UNL     1      -7.648  17.839 -20.071  1.00  0.00     0.012 C 
BRANCH  26  28
HETATM   28  C16 UNL     1      -8.683  19.614 -18.789  1.00  0.00     0.108 C 
BRANCH  28  29
HETATM   29  C17 UNL     1     -10.087  19.765 -19.222  1.00  0.00     0.217 C 
HETATM   30  O4  UNL     1     -10.427  19.509 -20.423  1.00  0.00    -0.274 OA
HETATM   31  N5  UNL     1     -11.085  20.199 -18.307  1.00  0.00    -0.359 N 
ATOM     32  H5  UNL     1     -10.817  20.399 -17.344  1.00  0.00     0.162 HD
BRANCH  31  33
HETATM   33  C18 UNL     1     -12.457  20.367 -18.695  1.00  0.00     0.150 C 
BRANCH  33  34
HETATM   34  C19 UNL     1     -13.034  21.586 -18.083  1.00  0.00     0.258 C 
BRANCH  34  35
HETATM   35  N6  UNL     1     -14.101  21.377 -17.162  1.00  0.00    -0.051 N 
HETATM   36  C20 UNL     1     -15.325  22.063 -17.555  1.00  0.00     0.239 C 
HETATM   37  C21 UNL     1     -16.129  22.308 -16.296  1.00  0.00     0.035 C 
HETATM   38  C22 UNL     1     -15.258  21.556 -15.275  1.00  0.00     0.031 C 
HETATM   39  C23 UNL     1     -15.368  20.123 -15.644  1.00  0.00     0.035 C 
HETATM   40  C25 UNL     1     -13.903  21.946 -15.846  1.00  0.00     0.294 C 
HETATM   41  C24 UNL     1     -14.458  20.027 -16.879  1.00  0.00     0.239 C 
BRANCH  40  42
HETATM   42  C26 UNL     1     -12.775  21.461 -15.091  1.00  0.00     0.205 C 
HETATM   43  O5  UNL     1     -12.957  21.311 -13.829  1.00  0.00    -0.646 OA
HETATM   44  O6  UNL     1     -11.511  21.128 -15.521  1.00  0.00    -0.646 OA
ENDBRANCH  40  42
ENDBRANCH  34  35
ENDBRANCH  33  34
ENDBRANCH  31  33
ENDBRANCH  28  29
ENDBRANCH  26  28
ENDBRANCH  25  26
ENDBRANCH   1  25
BRANCH   2  45
HETATM   45  C28 UNL     1     -10.943  17.438 -14.740  1.00  0.00     0.030 C 
HETATM   46  C29 UNL     1     -12.443  17.840 -14.668  1.00  0.00     0.025 C 
HETATM   47  C30 UNL     1     -10.888  16.123 -14.003  1.00  0.00     0.025 C 
HETATM   48  C31 UNL     1     -10.208  18.458 -13.908  1.00  0.00     0.025 C 
ENDBRANCH   2  45
TORSDOF 13
ENDMDL
MODEL 3
REMARK VINA RESULT: -9.704782548      3.013      9.770
REMARK  13 active torsions:
REMARK  status: ('A' for Active; 'I' for Inactive)
REMARK       I    between atoms: C2_2  and  N1_4 
REMARK    1  A    between atoms: N1_4  and  C3_6 
REMARK       I    between atoms: N2_9  and  C6_10 
REMARK    2  A    between atoms: C6_10  and  C7_12 
REMARK       I    between atoms: N3_16  and  C11_17 
REMARK    3  A    between atoms: C11_17  and  C12_19 
REMARK    4  A    between atoms: C12_19  and  N4_20 
REMARK    5  A    between atoms: N4_20  and  C13_21 
REMARK       I    between atoms: N4_20  and  C27_41 
REMARK    6  A    between atoms: C13_21  and  C14_22 
REMARK    7  A    between atoms: C14_22  and  C16_24 
REMARK    8  A    between atoms: C16_24  and  C17_25 
REMARK       I    between atoms: C17_25  and  N5_27 
REMARK    9  A    between atoms: N5_27  and  C18_29 
REMARK   10  A    between atoms: C18_29  and  C19_30 
REMARK   11  A    between atoms: C19_30  and  N6_31 
REMARK   12  A    between atoms: C25_37  and  C26_38 
REMARK   13  A    between atoms: C27_41  and  C28_43 
ROOT
HETATM    1  N4  UNL     1      -9.171  16.321 -15.339  1.00  0.00    -0.342 N 
HETATM    2  C27 UNL     1     -10.244  16.595 -14.477  1.00  0.00     0.227 C 
HETATM    3  O7  UNL     1     -10.639  15.581 -13.768  1.00  0.00    -0.273 OA
ENDROOT
BRANCH   1   4
HETATM    4  C12 UNL     1      -8.564  17.334 -16.140  1.00  0.00     0.228 C 
BRANCH   4   5
HETATM    5  C11 UNL     1      -8.544  17.026 -17.604  1.00  0.00     0.238 C 
HETATM    6  N3  UNL     1      -9.245  17.895 -18.469  1.00  0.00    -0.337 N 
HETATM    7  C7  UNL     1     -10.017  19.055 -18.086  1.00  0.00     0.179 C 
HETATM    8  C10 UNL     1      -9.284  17.767 -19.899  1.00  0.00     0.127 C 
HETATM    9  C8  UNL     1      -9.578  20.044 -19.180  1.00  0.00     0.037 C 
HETATM   10  C9  UNL     1      -9.606  19.135 -20.399  1.00  0.00     0.022 C 
HETATM   11  O3  UNL     1      -7.937  16.047 -18.062  1.00  0.00    -0.272 OA
BRANCH   7  12
HETATM   12  C6  UNL     1     -11.474  18.885 -18.240  1.00  0.00     0.242 C 
HETATM   13  N2  UNL     1     -12.337  19.985 -18.202  1.00  0.00    -0.350 N 
HETATM   14  C5  UNL     1     -11.854  21.323 -17.978  1.00  0.00     0.128 C 
HETATM   15  C32 UNL     1     -13.787  19.847 -18.391  1.00  0.00     0.128 C 
HETATM   16  C4  UNL     1     -13.016  22.052 -17.267  1.00  0.00     0.045 C 
HETATM   17  C3  UNL     1     -14.047  22.275 -18.357  1.00  0.00     0.087 C 
HETATM   18  C33 UNL     1     -14.237  21.045 -19.197  1.00  0.00     0.045 C 
HETATM   19  O2  UNL     1     -11.911  17.703 -18.408  1.00  0.00    -0.271 OA
BRANCH  17  20
HETATM   20  N1  UNL     1     -15.322  22.636 -17.777  1.00  0.00    -0.357 N 
HETATM   21  C2  UNL     1     -16.238  23.454 -18.494  1.00  0.00     0.213 C 
HETATM   22  C1  UNL     1     -17.557  23.847 -17.940  1.00  0.00     0.117 C 
HETATM   23  O1  UNL     1     -15.922  23.857 -19.635  1.00  0.00    -0.274 OA
ATOM     24  H1  UNL     1     -15.565  22.301 -16.845  1.00  0.00     0.162 HD
ENDBRANCH  17  20
ENDBRANCH   7  12
ENDBRANCH   4   5
ENDBRANCH   1   4
BRANCH   1  25
HETATM   25  C13 UNL     1      -8.671  14.924 -15.375  1.00  0.00     0.131 C 
BRANCH  25  26
HETATM   26  C14 UNL     1      -7.354  14.768 -14.686  1.00  0.00     0.008 C 
HETATM   27  C15 UNL     1      -7.528  14.220 -13.266  1.00  0.00     0.012 C 
BRANCH  26  28
HETATM   28  C16 UNL     1      -6.371  13.879 -15.366  1.00  0.00     0.108 C 
BRANCH  28  29
HETATM   29  C17 UNL     1      -5.224  14.545 -16.017  1.00  0.00     0.217 C 
HETATM   30  O4  UNL     1      -4.136  14.733 -15.381  1.00  0.00    -0.274 OA
HETATM   31  N5  UNL     1      -5.312  14.988 -17.365  1.00  0.00    -0.359 N 
ATOM     32  H5  UNL     1      -6.179  14.832 -17.879  1.00  0.00     0.162 HD
BRANCH  31  33
HETATM   33  C18 UNL     1      -4.221  15.646 -18.026  1.00  0.00     0.150 C 
BRANCH  33  34
HETATM   34  C19 UNL     1      -4.450  17.108 -18.094  1.00  0.00     0.258 C 
BRANCH  34  35
HETATM   35  N6  UNL     1      -3.537  17.846 -18.903  1.00  0.00    -0.051 N 
HETATM   36  C20 UNL     1      -2.897  18.936 -18.176  1.00  0.00     0.239 C 
HETATM   37  C21 UNL     1      -2.487  19.978 -19.196  1.00  0.00     0.035 C 
HETATM   38  C22 UNL     1      -2.853  19.237 -20.493  1.00  0.00     0.031 C 
HETATM   39  C23 UNL     1      -1.912  18.091 -20.571  1.00  0.00     0.035 C 
HETATM   40  C25 UNL     1      -4.134  18.584 -19.994  1.00  0.00     0.294 C 
HETATM   41  C24 UNL     1      -2.497  17.111 -19.541  1.00  0.00     0.239 C 
BRANCH  40  42
HETATM   42  C26 UNL     1      -4.839  17.817 -20.990  1.00  0.00     0.205 C 
HETATM   43  O5  UNL     1      -5.948  17.286 -20.619  1.00  0.00    -0.646 OA
HETATM   44  O6  UNL     1      -4.502  17.559 -22.299  1.00  0.00    -0.646 OA
ENDBRANCH  40  42
ENDBRANCH  34  35
ENDBRANCH  33  34
ENDBRANCH  31  33
ENDBRANCH  28  29
ENDBRANCH  26  28
ENDBRANCH  25  26
ENDBRANCH   1  25
BRANCH   2  45
HETATM   45  C28 UNL     1     -10.995  17.817 -14.245  1.00  0.00     0.030 C 
HETATM   46  C29 UNL     1     -11.251  18.013 -12.724  1.00  0.00     0.025 C 
HETATM   47  C30 UNL     1     -10.251  19.067 -14.648  1.00  0.00     0.025 C 
HETATM   48  C31 UNL     1     -12.354  17.866 -14.896  1.00  0.00     0.025 C 
ENDBRANCH   2  45
TORSDOF 13
ENDMDL
MODEL 4
REMARK VINA RESULT: -9.659564059      2.070      7.274
REMARK  13 active torsions:
REMARK  status: ('A' for Active; 'I' for Inactive)
REMARK       I    between atoms: C2_2  and  N1_4 
REMARK    1  A    between atoms: N1_4  and  C3_6 
REMARK       I    between atoms: N2_9  and  C6_10 
REMARK    2  A    between atoms: C6_10  and  C7_12 
REMARK       I    between atoms: N3_16  and  C11_17 
REMARK    3  A    between atoms: C11_17  and  C12_19 
REMARK    4  A    between atoms: C12_19  and  N4_20 
REMARK    5  A    between atoms: N4_20  and  C13_21 
REMARK       I    between atoms: N4_20  and  C27_41 
REMARK    6  A    between atoms: C13_21  and  C14_22 
REMARK    7  A    between atoms: C14_22  and  C16_24 
REMARK    8  A    between atoms: C16_24  and  C17_25 
REMARK       I    between atoms: C17_25  and  N5_27 
REMARK    9  A    between atoms: N5_27  and  C18_29 
REMARK   10  A    between atoms: C18_29  and  C19_30 
REMARK   11  A    between atoms: C19_30  and  N6_31 
REMARK   12  A    between atoms: C25_37  and  C26_38 
REMARK   13  A    between atoms: C27_41  and  C28_43 
ROOT
HETATM    1  N4  UNL     1      -6.990  15.935 -16.333  1.00  0.00    -0.342 N 
HETATM    2  C27 UNL     1      -5.839  15.328 -15.807  1.00  0.00     0.227 C 
HETATM    3  O7  UNL     1      -6.069  14.453 -14.875  1.00  0.00    -0.273 OA
ENDROOT
BRANCH   1   4
HETATM    4  C12 UNL     1      -6.929  16.868 -17.412  1.00  0.00     0.228 C 
BRANCH   4   5
HETATM    5  C11 UNL     1      -7.388  16.316 -18.724  1.00  0.00     0.238 C 
HETATM    6  N3  UNL     1      -8.123  17.171 -19.576  1.00  0.00    -0.337 N 
HETATM    7  C7  UNL     1      -8.511  18.535 -19.303  1.00  0.00     0.179 C 
HETATM    8  C10 UNL     1      -8.593  16.810 -20.885  1.00  0.00     0.127 C 
HETATM    9  C8  UNL     1      -8.219  19.177 -20.670  1.00  0.00     0.037 C 
HETATM   10  C9  UNL     1      -8.770  18.107 -21.600  1.00  0.00     0.022 C 
HETATM   11  O3  UNL     1      -7.140  15.153 -19.071  1.00  0.00    -0.272 OA
BRANCH   7  12
HETATM   12  C6  UNL     1      -9.956  18.712 -19.062  1.00  0.00     0.242 C 
HETATM   13  N2  UNL     1     -10.576  19.948 -19.271  1.00  0.00    -0.350 N 
HETATM   14  C5  UNL     1      -9.837  21.108 -19.695  1.00  0.00     0.128 C 
HETATM   15  C32 UNL     1     -12.019  20.139 -19.075  1.00  0.00     0.128 C 
HETATM   16  C4  UNL     1     -10.600  22.309 -19.093  1.00  0.00     0.045 C 
HETATM   17  C3  UNL     1     -11.856  22.420 -19.935  1.00  0.00     0.087 C 
HETATM   18  C33 UNL     1     -12.486  21.077 -20.166  1.00  0.00     0.045 C 
HETATM   19  O2  UNL     1     -10.610  17.699 -18.657  1.00  0.00    -0.271 OA
BRANCH  17  20
HETATM   20  N1  UNL     1     -12.825  23.274 -19.282  1.00  0.00    -0.357 N 
HETATM   21  C2  UNL     1     -13.595  24.202 -20.035  1.00  0.00     0.213 C 
HETATM   22  C1  UNL     1     -14.601  25.095 -19.408  1.00  0.00     0.117 C 
HETATM   23  O1  UNL     1     -13.421  24.269 -21.272  1.00  0.00    -0.274 OA
ATOM     24  H1  UNL     1     -12.956  23.209 -18.272  1.00  0.00     0.162 HD
ENDBRANCH  17  20
ENDBRANCH   7  12
ENDBRANCH   4   5
ENDBRANCH   1   4
BRANCH   1  25
HETATM   25  C13 UNL     1      -8.291  15.553 -15.733  1.00  0.00     0.131 C 
BRANCH  25  26
HETATM   26  C14 UNL     1      -8.632  16.373 -14.531  1.00  0.00     0.008 C 
HETATM   27  C15 UNL     1      -8.274  17.848 -14.741  1.00  0.00     0.012 C 
BRANCH  26  28
HETATM   28  C16 UNL     1     -10.060  16.339 -14.108  1.00  0.00     0.108 C 
BRANCH  28  29
HETATM   29  C17 UNL     1     -10.807  17.608 -14.215  1.00  0.00     0.217 C 
HETATM   30  O4  UNL     1     -10.950  18.365 -13.200  1.00  0.00    -0.274 OA
HETATM   31  N5  UNL     1     -11.382  18.009 -15.452  1.00  0.00    -0.359 N 
ATOM     32  H5  UNL     1     -11.263  17.409 -16.268  1.00  0.00     0.162 HD
BRANCH  31  33
HETATM   33  C18 UNL     1     -12.123  19.231 -15.590  1.00  0.00     0.150 C 
BRANCH  33  34
HETATM   34  C19 UNL     1     -13.498  19.078 -15.063  1.00  0.00     0.258 C 
BRANCH  34  35
HETATM   35  N6  UNL     1     -14.433  20.080 -15.454  1.00  0.00    -0.051 N 
HETATM   36  C20 UNL     1     -14.572  20.186 -16.901  1.00  0.00     0.239 C 
HETATM   37  C21 UNL     1     -15.039  21.593 -17.208  1.00  0.00     0.035 C 
HETATM   38  C22 UNL     1     -15.253  22.118 -15.778  1.00  0.00     0.031 C 
HETATM   39  C23 UNL     1     -16.395  21.339 -15.239  1.00  0.00     0.035 C 
HETATM   40  C25 UNL     1     -14.052  21.440 -15.136  1.00  0.00     0.294 C 
HETATM   41  C24 UNL     1     -15.750  19.982 -14.920  1.00  0.00     0.239 C 
BRANCH  40  42
HETATM   42  C26 UNL     1     -13.864  21.753 -13.741  1.00  0.00     0.205 C 
HETATM   43  O5  UNL     1     -14.359  22.866 -13.336  1.00  0.00    -0.646 OA
HETATM   44  O6  UNL     1     -13.224  21.031 -12.760  1.00  0.00    -0.646 OA
ENDBRANCH  40  42
ENDBRANCH  34  35
ENDBRANCH  33  34
ENDBRANCH  31  33
ENDBRANCH  28  29
ENDBRANCH  26  28
ENDBRANCH  25  26
ENDBRANCH   1  25
BRANCH   2  45
HETATM   45  C28 UNL     1      -4.432  15.515 -16.121  1.00  0.00     0.030 C 
HETATM   46  C29 UNL     1      -3.550  14.648 -15.178  1.00  0.00     0.025 C 
HETATM   47  C30 UNL     1      -4.055  15.040 -17.502  1.00  0.00     0.025 C 
HETATM   48  C31 UNL     1      -3.925  16.926 -15.969  1.00  0.00     0.025 C 
ENDBRANCH   2  45
TORSDOF 13
ENDMDL
MODEL 5
REMARK VINA RESULT: -9.349106072      3.760      6.175
REMARK  13 active torsions:
REMARK  status: ('A' for Active; 'I' for Inactive)
REMARK       I    between atoms: C2_2  and  N1_4 
REMARK    1  A    between atoms: N1_4  and  C3_6 
REMARK       I    between atoms: N2_9  and  C6_10 
REMARK    2  A    between atoms: C6_10  and  C7_12 
REMARK       I    between atoms: N3_16  and  C11_17 
REMARK    3  A    between atoms: C11_17  and  C12_19 
REMARK    4  A    between atoms: C12_19  and  N4_20 
REMARK    5  A    between atoms: N4_20  and  C13_21 
REMARK       I    between atoms: N4_20  and  C27_41 
REMARK    6  A    between atoms: C13_21  and  C14_22 
REMARK    7  A    between atoms: C14_22  and  C16_24 
REMARK    8  A    between atoms: C16_24  and  C17_25 
REMARK       I    between atoms: C17_25  and  N5_27 
REMARK    9  A    between atoms: N5_27  and  C18_29 
REMARK   10  A    between atoms: C18_29  and  C19_30 
REMARK   11  A    between atoms: C19_30  and  N6_31 
REMARK   12  A    between atoms: C25_37  and  C26_38 
REMARK   13  A    between atoms: C27_41  and  C28_43 
ROOT
HETATM    1  N4  UNL     1      -9.450  17.438 -16.722  1.00  0.00    -0.342 N 
HETATM    2  C27 UNL     1     -10.712  17.604 -16.131  1.00  0.00     0.227 C 
HETATM    3  O7  UNL     1     -11.695  17.699 -16.975  1.00  0.00    -0.273 OA
ENDROOT
BRANCH   1   4
HETATM    4  C12 UNL     1      -8.268  17.247 -15.945  1.00  0.00     0.228 C 
BRANCH   4   5
HETATM    5  C11 UNL     1      -7.729  15.852 -15.986  1.00  0.00     0.238 C 
HETATM    6  N3  UNL     1      -6.360  15.685 -16.289  1.00  0.00    -0.337 N 
HETATM    7  C7  UNL     1      -5.411  16.730 -16.597  1.00  0.00     0.179 C 
HETATM    8  C10 UNL     1      -5.679  14.420 -16.321  1.00  0.00     0.127 C 
HETATM    9  C8  UNL     1      -4.198  16.239 -15.788  1.00  0.00     0.037 C 
HETATM   10  C9  UNL     1      -4.242  14.752 -16.101  1.00  0.00     0.022 C 
HETATM   11  O3  UNL     1      -8.443  14.864 -15.762  1.00  0.00    -0.272 OA
BRANCH   7  12
HETATM   12  C6  UNL     1      -4.984  16.758 -18.008  1.00  0.00     0.242 C 
HETATM   13  N2  UNL     1      -3.936  17.583 -18.429  1.00  0.00    -0.350 N 
HETATM   14  C5  UNL     1      -3.248  18.462 -17.521  1.00  0.00     0.128 C 
HETATM   15  C32 UNL     1      -3.467  17.599 -19.821  1.00  0.00     0.128 C 
HETATM   16  C4  UNL     1      -2.786  19.652 -18.392  1.00  0.00     0.045 C 
HETATM   17  C3  UNL     1      -1.637  19.098 -19.211  1.00  0.00     0.087 C 
HETATM   18  C33 UNL     1      -1.962  17.744 -19.772  1.00  0.00     0.045 C 
HETATM   19  O2  UNL     1      -5.607  16.006 -18.823  1.00  0.00    -0.271 OA
BRANCH  17  20
HETATM   20  N1  UNL     1      -1.328  19.987 -20.309  1.00  0.00    -0.357 N 
HETATM   21  C2  UNL     1      -0.174  20.817 -20.265  1.00  0.00     0.213 C 
HETATM   22  C1  UNL     1       0.184  21.742 -21.369  1.00  0.00     0.117 C 
HETATM   23  O1  UNL     1       0.570  20.766 -19.260  1.00  0.00    -0.274 OA
ATOM     24  H1  UNL     1      -1.943  20.019 -21.122  1.00  0.00     0.162 HD
ENDBRANCH  17  20
ENDBRANCH   7  12
ENDBRANCH   4   5
ENDBRANCH   1   4
BRANCH   1  25
HETATM   25  C13 UNL     1      -9.391  17.450 -18.204  1.00  0.00     0.131 C 
BRANCH  25  26
HETATM   26  C14 UNL     1      -9.017  18.789 -18.753  1.00  0.00     0.008 C 
HETATM   27  C15 UNL     1      -7.745  18.709 -19.605  1.00  0.00     0.012 C 
BRANCH  26  28
HETATM   28  C16 UNL     1     -10.050  19.454 -19.596  1.00  0.00     0.108 C 
BRANCH  28  29
HETATM   29  C17 UNL     1     -10.898  20.459 -18.925  1.00  0.00     0.217 C 
HETATM   30  O4  UNL     1     -10.453  21.630 -18.686  1.00  0.00    -0.274 OA
HETATM   31  N5  UNL     1     -12.227  20.142 -18.532  1.00  0.00    -0.359 N 
ATOM     32  H5  UNL     1     -12.588  19.208 -18.728  1.00  0.00     0.162 HD
BRANCH  31  33
HETATM   33  C18 UNL     1     -13.076  21.091 -17.869  1.00  0.00     0.150 C 
BRANCH  33  34
HETATM   34  C19 UNL     1     -14.284  21.374 -18.679  1.00  0.00     0.258 C 
BRANCH  34  35
HETATM   35  N6  UNL     1     -14.531  22.746 -18.973  1.00  0.00    -0.051 N 
HETATM   36  C20 UNL     1     -15.844  23.190 -18.522  1.00  0.00     0.239 C 
HETATM   37  C21 UNL     1     -16.244  24.366 -19.389  1.00  0.00     0.035 C 
HETATM   38  C22 UNL     1     -14.953  24.545 -20.205  1.00  0.00     0.031 C 
HETATM   39  C23 UNL     1     -13.930  24.995 -19.228  1.00  0.00     0.035 C 
HETATM   40  C25 UNL     1     -14.623  23.070 -20.380  1.00  0.00     0.294 C 
HETATM   41  C24 UNL     1     -13.586  23.694 -18.485  1.00  0.00     0.239 C 
BRANCH  40  42
HETATM   42  C26 UNL     1     -13.455  22.812 -21.185  1.00  0.00     0.205 C 
HETATM   43  O5  UNL     1     -13.123  21.580 -21.328  1.00  0.00    -0.646 OA
HETATM   44  O6  UNL     1     -12.625  23.697 -21.834  1.00  0.00    -0.646 OA
ENDBRANCH  40  42
ENDBRANCH  34  35
ENDBRANCH  33  34
ENDBRANCH  31  33
ENDBRANCH  28  29
ENDBRANCH  26  28
ENDBRANCH  25  26
ENDBRANCH   1  25
BRANCH   2  45
HETATM   45  C28 UNL     1     -11.109  17.694 -14.736  1.00  0.00     0.030 C 
HETATM   46  C29 UNL     1     -12.580  18.188 -14.624  1.00  0.00     0.025 C 
HETATM   47  C30 UNL     1     -11.122  16.364 -14.026  1.00  0.00     0.025 C 
HETATM   48  C31 UNL     1     -10.295  18.649 -13.900  1.00  0.00     0.025 C 
ENDBRANCH   2  45
TORSDOF 13
ENDMDL
