MODEL 1
REMARK VINA RESULT: -9.882564262      0.000      0.000
REMARK  12 active torsions:
REMARK  status: ('A' for Active; 'I' for Inactive)
REMARK    1  A    between atoms: C2_2  and  C4_4 
REMARK    2  A    between atoms: C4_4  and  C5_5 
REMARK    3  A    between atoms: C8_8  and  C9_9 
REMARK    4  A    between atoms: C9_9  and  N1_10 
REMARK       I    between atoms: N1_10  and  C10_12 
REMARK    5  A    between atoms: C10_12  and  C11_14 
REMARK    6  A    between atoms: C11_14  and  N2_15 
REMARK       I    between atoms: N2_15  and  C12_17 
REMARK    7  A    between atoms: C12_17  and  C13_19 
REMARK       I    between atoms: N3_23  and  C17_24 
REMARK    8  A    between atoms: C17_24  and  C18_26 
REMARK    9  A    between atoms: C18_26  and  O4_28 
REMARK   10  A    between atoms: C18_26  and  C20_30 
REMARK   11  A    between atoms: C20_30  and  C21_31 
REMARK   12  A    between atoms: C21_31  and  S1_32 
ROOT
HETATM    1  N1  UNL     1     -11.512 -20.616  20.046  1.00  0.00    -0.359 N 
ATOM      2  H1  UNL     1     -12.005 -20.570  19.153  1.00  0.00     0.162 HD
HETATM    3  C10 UNL     1     -11.493 -21.845  20.751  1.00  0.00     0.235 C 
HETATM    4  O1  UNL     1     -10.904 -21.982  21.846  1.00  0.00    -0.272 OA
ENDROOT
BRANCH   3   5
HETATM    5  C11 UNL     1     -12.198 -23.011  20.174  1.00  0.00     0.225 C 
BRANCH   5   6
HETATM    6  N2  UNL     1     -13.606 -22.857  20.086  1.00  0.00    -0.351 N 
HETATM    7  C12 UNL     1     -14.509 -23.748  19.472  1.00  0.00     0.241 C 
HETATM    8  O2  UNL     1     -14.022 -24.806  18.935  1.00  0.00    -0.271 OA
ATOM      9  H2  UNL     1     -14.004 -22.018  20.507  1.00  0.00     0.163 HD
BRANCH   7  10
HETATM   10  C13 UNL     1     -15.969 -23.598  19.369  1.00  0.00     0.179 C 
HETATM   11  C14 UNL     1     -16.622 -24.973  19.565  1.00  0.00     0.037 C 
HETATM   12  C15 UNL     1     -17.507 -25.216  18.389  1.00  0.00     0.022 C 
HETATM   13  C16 UNL     1     -17.749 -23.800  17.885  1.00  0.00     0.127 C 
HETATM   14  N3  UNL     1     -16.475 -23.158  18.094  1.00  0.00    -0.336 N 
HETATM   15  C17 UNL     1     -15.838 -22.201  17.224  1.00  0.00     0.254 C 
HETATM   16  O3  UNL     1     -14.757 -21.664  17.612  1.00  0.00    -0.270 OA
BRANCH  15  17
HETATM   17  C18 UNL     1     -16.335 -21.786  15.910  1.00  0.00     0.135 C 
HETATM   18  C19 UNL     1     -15.852 -20.413  15.569  1.00  0.00     0.056 C 
BRANCH  17  19
HETATM   19  O4  UNL     1     -17.752 -21.708  15.919  1.00  0.00    -0.381 OA
ATOM     20  H4  UNL     1     -18.046 -21.112  16.598  1.00  0.00     0.211 HD
ENDBRANCH  17  19
BRANCH  17  21
HETATM   21  C20 UNL     1     -15.926 -22.821  14.869  1.00  0.00     0.057 C 
BRANCH  21  22
HETATM   22  C21 UNL     1     -17.210 -23.219  14.146  1.00  0.00     0.066 C 
BRANCH  22  23
HETATM   23  S1  UNL     1     -16.989 -24.639  13.114  1.00  0.00    -0.228 SA
HETATM   24  C22 UNL     1     -17.755 -26.019  13.937  1.00  0.00     0.078 C 
HETATM   25  C23 UNL     1     -17.812 -24.392  11.549  1.00  0.00     0.078 C 
ENDBRANCH  22  23
ENDBRANCH  21  22
ENDBRANCH  17  21
ENDBRANCH  15  17
ENDBRANCH   7  10
ENDBRANCH   5   6
ENDBRANCH   3   5
BRANCH   1  26
HETATM   26  C9  UNL     1     -10.869 -19.442  20.535  1.00  0.00     0.127 C 
BRANCH  26  27
HETATM   27  C8  UNL     1     -10.383 -18.462  19.524  1.00  0.00     0.010 A 
HETATM   28  C7  UNL     1      -8.916 -18.379  19.358  1.00  0.00     0.007 A 
HETATM   29  C6  UNL     1      -8.592 -18.754  17.939  1.00  0.00     0.012 A 
HETATM   30  C5  UNL     1      -9.856 -18.948  17.172  1.00  0.00    -0.013 A 
HETATM   31  C24 UNL     1     -10.993 -18.838  18.203  1.00  0.00     0.020 A 
HETATM   32  C32 UNL     1     -10.187 -17.732  16.349  1.00  0.00     0.100 C 
HETATM   33  C25 UNL     1     -11.915 -17.757  17.768  1.00  0.00     0.128 C 
HETATM   34  N4  UNL     1     -11.579 -17.471  16.423  1.00  0.00    -0.387 N 
HETATM   35  C26 UNL     1     -12.460 -17.831  15.418  1.00  0.00     0.058 C 
HETATM   36  C27 UNL     1     -11.972 -17.895  14.025  1.00  0.00     0.045 C 
HETATM   37  C28 UNL     1     -10.501 -18.178  13.888  1.00  0.00     0.016 C 
HETATM   38  C29 UNL     1      -9.675 -17.562  14.998  1.00  0.00    -0.026 C 
HETATM   39  C30 UNL     1      -9.802 -16.036  14.711  1.00  0.00     0.017 C 
HETATM   40  C31 UNL     1      -8.240 -17.851  14.729  1.00  0.00     0.017 C 
BRANCH  30  41
HETATM   41  C4  UNL     1     -10.035 -20.227  16.492  1.00  0.00     0.016 C 
BRANCH  41  42
HETATM   42  C2  UNL     1     -11.189 -21.101  16.748  1.00  0.00    -0.022 C 
HETATM   43  C1  UNL     1     -10.913 -22.525  17.131  1.00  0.00     0.009 C 
HETATM   44  C3  UNL     1     -12.061 -21.219  15.469  1.00  0.00     0.009 C 
ENDBRANCH  41  42
ENDBRANCH  30  41
ENDBRANCH  26  27
ENDBRANCH   1  26
TORSDOF 12
ENDMDL
MODEL 2
REMARK VINA RESULT: -9.627612919      1.633      2.831
REMARK  12 active torsions:
REMARK  status: ('A' for Active; 'I' for Inactive)
REMARK    1  A    between atoms: C2_2  and  C4_4 
REMARK    2  A    between atoms: C4_4  and  C5_5 
REMARK    3  A    between atoms: C8_8  and  C9_9 
REMARK    4  A    between atoms: C9_9  and  N1_10 
REMARK       I    between atoms: N1_10  and  C10_12 
REMARK    5  A    between atoms: C10_12  and  C11_14 
REMARK    6  A    between atoms: C11_14  and  N2_15 
REMARK       I    between atoms: N2_15  and  C12_17 
REMARK    7  A    between atoms: C12_17  and  C13_19 
REMARK       I    between atoms: N3_23  and  C17_24 
REMARK    8  A    between atoms: C17_24  and  C18_26 
REMARK    9  A    between atoms: C18_26  and  O4_28 
REMARK   10  A    between atoms: C18_26  and  C20_30 
REMARK   11  A    between atoms: C20_30  and  C21_31 
REMARK   12  A    between atoms: C21_31  and  S1_32 
ROOT
HETATM    1  N1  UNL     1     -11.678 -20.093  20.480  1.00  0.00    -0.359 N 
ATOM      2  H1  UNL     1     -12.394 -19.600  19.946  1.00  0.00     0.162 HD
HETATM    3  C10 UNL     1     -11.992 -21.358  21.035  1.00  0.00     0.235 C 
HETATM    4  O1  UNL     1     -11.165 -22.027  21.694  1.00  0.00    -0.272 OA
ENDROOT
BRANCH   3   5
HETATM    5  C11 UNL     1     -13.349 -21.911  20.832  1.00  0.00     0.225 C 
BRANCH   5   6
HETATM    6  N2  UNL     1     -13.673 -22.179  19.476  1.00  0.00    -0.351 N 
HETATM    7  C12 UNL     1     -14.407 -21.344  18.610  1.00  0.00     0.241 C 
HETATM    8  O2  UNL     1     -14.832 -20.230  19.083  1.00  0.00    -0.271 OA
ATOM      9  H2  UNL     1     -13.342 -23.063  19.091  1.00  0.00     0.163 HD
BRANCH   7  10
HETATM   10  C13 UNL     1     -14.753 -21.611  17.206  1.00  0.00     0.179 C 
HETATM   11  C14 UNL     1     -14.982 -20.272  16.490  1.00  0.00     0.037 C 
HETATM   12  C15 UNL     1     -16.330 -20.334  15.854  1.00  0.00     0.022 C 
HETATM   13  C16 UNL     1     -16.558 -21.836  15.756  1.00  0.00     0.127 C 
HETATM   14  N3  UNL     1     -15.978 -22.334  16.979  1.00  0.00    -0.336 N 
HETATM   15  C17 UNL     1     -16.487 -23.401  17.802  1.00  0.00     0.254 C 
HETATM   16  O3  UNL     1     -15.795 -23.774  18.798  1.00  0.00    -0.270 OA
BRANCH  15  17
HETATM   17  C18 UNL     1     -17.753 -24.108  17.592  1.00  0.00     0.135 C 
HETATM   18  C19 UNL     1     -17.881 -24.560  16.173  1.00  0.00     0.056 C 
BRANCH  17  19
HETATM   19  O4  UNL     1     -18.849 -23.235  17.821  1.00  0.00    -0.381 OA
ATOM     20  H4  UNL     1     -19.665 -23.721  17.814  1.00  0.00     0.211 HD
ENDBRANCH  17  19
BRANCH  17  21
HETATM   21  C20 UNL     1     -17.855 -25.262  18.582  1.00  0.00     0.057 C 
BRANCH  21  22
HETATM   22  C21 UNL     1     -19.084 -26.066  18.166  1.00  0.00     0.066 C 
BRANCH  22  23
HETATM   23  S1  UNL     1     -18.707 -27.767  17.867  1.00  0.00    -0.228 SA
HETATM   24  C22 UNL     1     -19.906 -28.742  18.752  1.00  0.00     0.078 C 
HETATM   25  C23 UNL     1     -18.861 -28.132  16.127  1.00  0.00     0.078 C 
ENDBRANCH  22  23
ENDBRANCH  21  22
ENDBRANCH  17  21
ENDBRANCH  15  17
ENDBRANCH   7  10
ENDBRANCH   5   6
ENDBRANCH   3   5
BRANCH   1  26
HETATM   26  C9  UNL     1     -10.398 -19.483  20.638  1.00  0.00     0.127 C 
BRANCH  26  27
HETATM   27  C8  UNL     1      -9.979 -18.506  19.595  1.00  0.00     0.010 A 
HETATM   28  C7  UNL     1      -8.527 -18.427  19.330  1.00  0.00     0.007 A 
HETATM   29  C6  UNL     1      -8.302 -18.802  17.892  1.00  0.00     0.012 A 
HETATM   30  C5  UNL     1      -9.617 -18.992  17.214  1.00  0.00    -0.013 A 
HETATM   31  C24 UNL     1     -10.680 -18.879  18.320  1.00  0.00     0.020 A 
HETATM   32  C32 UNL     1      -9.999 -17.774  16.415  1.00  0.00     0.100 C 
HETATM   33  C25 UNL     1     -11.626 -17.794  17.949  1.00  0.00     0.128 C 
HETATM   34  N4  UNL     1     -11.382 -17.509  16.584  1.00  0.00    -0.387 N 
HETATM   35  C26 UNL     1     -12.331 -17.866  15.642  1.00  0.00     0.058 C 
HETATM   36  C27 UNL     1     -11.940 -17.931  14.219  1.00  0.00     0.045 C 
HETATM   37  C28 UNL     1     -10.483 -18.218  13.981  1.00  0.00     0.016 C 
HETATM   38  C29 UNL     1      -9.581 -17.606  15.032  1.00  0.00    -0.026 C 
HETATM   39  C30 UNL     1      -9.721 -16.080  14.755  1.00  0.00     0.017 C 
HETATM   40  C31 UNL     1      -8.169 -17.900  14.665  1.00  0.00     0.017 C 
BRANCH  30  41
HETATM   41  C4  UNL     1      -9.846 -20.270  16.547  1.00  0.00     0.016 C 
BRANCH  41  42
HETATM   42  C2  UNL     1     -11.035 -21.094  16.811  1.00  0.00    -0.022 C 
HETATM   43  C1  UNL     1     -10.822 -22.444  17.431  1.00  0.00     0.009 C 
HETATM   44  C3  UNL     1     -11.773 -21.404  15.481  1.00  0.00     0.009 C 
ENDBRANCH  41  42
ENDBRANCH  30  41
ENDBRANCH  26  27
ENDBRANCH   1  26
TORSDOF 12
ENDMDL
MODEL 3
REMARK VINA RESULT: -9.356116813      1.227      2.581
REMARK  12 active torsions:
REMARK  status: ('A' for Active; 'I' for Inactive)
REMARK    1  A    between atoms: C2_2  and  C4_4 
REMARK    2  A    between atoms: C4_4  and  C5_5 
REMARK    3  A    between atoms: C8_8  and  C9_9 
REMARK    4  A    between atoms: C9_9  and  N1_10 
REMARK       I    between atoms: N1_10  and  C10_12 
REMARK    5  A    between atoms: C10_12  and  C11_14 
REMARK    6  A    between atoms: C11_14  and  N2_15 
REMARK       I    between atoms: N2_15  and  C12_17 
REMARK    7  A    between atoms: C12_17  and  C13_19 
REMARK       I    between atoms: N3_23  and  C17_24 
REMARK    8  A    between atoms: C17_24  and  C18_26 
REMARK    9  A    between atoms: C18_26  and  O4_28 
REMARK   10  A    between atoms: C18_26  and  C20_30 
REMARK   11  A    between atoms: C20_30  and  C21_31 
REMARK   12  A    between atoms: C21_31  and  S1_32 
ROOT
HETATM    1  N1  UNL     1     -11.622 -22.860  19.726  1.00  0.00    -0.359 N 
ATOM      2  H1  UNL     1     -11.542 -23.849  19.484  1.00  0.00     0.162 HD
HETATM    3  C10 UNL     1     -12.546 -22.477  20.729  1.00  0.00     0.235 C 
HETATM    4  O1  UNL     1     -12.696 -21.287  21.085  1.00  0.00    -0.272 OA
ENDROOT
BRANCH   3   5
HETATM    5  C11 UNL     1     -13.368 -23.520  21.381  1.00  0.00     0.225 C 
BRANCH   5   6
HETATM    6  N2  UNL     1     -14.726 -23.535  20.970  1.00  0.00    -0.351 N 
HETATM    7  C12 UNL     1     -15.276 -24.299  19.923  1.00  0.00     0.241 C 
HETATM    8  O2  UNL     1     -14.479 -25.061  19.265  1.00  0.00    -0.271 OA
ATOM      9  H2  UNL     1     -15.368 -22.932  21.484  1.00  0.00     0.163 HD
BRANCH   7  10
HETATM   10  C13 UNL     1     -16.680 -24.320  19.484  1.00  0.00     0.179 C 
HETATM   11  C14 UNL     1     -17.137 -25.780  19.360  1.00  0.00     0.037 C 
HETATM   12  C15 UNL     1     -17.685 -25.959  17.984  1.00  0.00     0.022 C 
HETATM   13  C16 UNL     1     -18.025 -24.526  17.597  1.00  0.00     0.127 C 
HETATM   14  N3  UNL     1     -16.947 -23.767  18.181  1.00  0.00    -0.336 N 
HETATM   15  C17 UNL     1     -16.288 -22.622  17.604  1.00  0.00     0.254 C 
HETATM   16  O3  UNL     1     -15.419 -22.016  18.301  1.00  0.00    -0.270 OA
BRANCH  15  17
HETATM   17  C18 UNL     1     -16.533 -22.086  16.263  1.00  0.00     0.135 C 
HETATM   18  C19 UNL     1     -15.924 -20.729  16.112  1.00  0.00     0.056 C 
BRANCH  17  19
HETATM   19  O4  UNL     1     -17.926 -21.912  16.048  1.00  0.00    -0.381 OA
ATOM     20  H4  UNL     1     -18.417 -22.582  16.508  1.00  0.00     0.211 HD
ENDBRANCH  17  19
BRANCH  17  21
HETATM   21  C20 UNL     1     -16.015 -23.074  15.225  1.00  0.00     0.057 C 
BRANCH  21  22
HETATM   22  C21 UNL     1     -17.113 -23.190  14.170  1.00  0.00     0.066 C 
BRANCH  22  23
HETATM   23  S1  UNL     1     -16.937 -24.637  13.170  1.00  0.00    -0.228 SA
HETATM   24  C22 UNL     1     -17.747 -25.974  14.022  1.00  0.00     0.078 C 
HETATM   25  C23 UNL     1     -17.749 -24.399  11.598  1.00  0.00     0.078 C 
ENDBRANCH  22  23
ENDBRANCH  21  22
ENDBRANCH  17  21
ENDBRANCH  15  17
ENDBRANCH   7  10
ENDBRANCH   5   6
ENDBRANCH   3   5
BRANCH   1  26
HETATM   26  C9  UNL     1     -10.800 -21.918  19.040  1.00  0.00     0.127 C 
BRANCH  26  27
HETATM   27  C8  UNL     1     -11.294 -21.415  17.728  1.00  0.00     0.010 A 
HETATM   28  C7  UNL     1     -12.690 -20.928  17.707  1.00  0.00     0.007 A 
HETATM   29  C6  UNL     1     -12.664 -19.476  17.320  1.00  0.00     0.012 A 
HETATM   30  C5  UNL     1     -11.270 -19.076  16.971  1.00  0.00    -0.013 A 
HETATM   31  C24 UNL     1     -10.388 -20.292  17.307  1.00  0.00     0.020 A 
HETATM   32  C32 UNL     1     -11.064 -19.060  15.480  1.00  0.00     0.100 C 
HETATM   33  C25 UNL     1      -9.657 -20.692  16.077  1.00  0.00     0.128 C 
HETATM   34  N4  UNL     1      -9.797 -19.616  15.169  1.00  0.00    -0.387 N 
HETATM   35  C26 UNL     1      -8.692 -18.836  14.873  1.00  0.00     0.058 C 
HETATM   36  C27 UNL     1      -8.895 -17.512  14.250  1.00  0.00     0.045 C 
HETATM   37  C28 UNL     1     -10.221 -16.871  14.555  1.00  0.00     0.016 C 
HETATM   38  C29 UNL     1     -11.347 -17.877  14.683  1.00  0.00    -0.026 C 
HETATM   39  C30 UNL     1     -11.501 -18.404  13.226  1.00  0.00     0.017 C 
HETATM   40  C31 UNL     1     -12.614 -17.133  14.922  1.00  0.00     0.017 C 
BRANCH  30  41
HETATM   41  C4  UNL     1     -10.701 -17.940  17.690  1.00  0.00     0.016 C 
BRANCH  41  42
HETATM   42  C2  UNL     1      -9.405 -18.014  18.382  1.00  0.00    -0.022 C 
HETATM   43  C1  UNL     1      -9.416 -18.012  19.882  1.00  0.00     0.009 C 
HETATM   44  C3  UNL     1      -8.534 -16.784  18.011  1.00  0.00     0.009 C 
ENDBRANCH  41  42
ENDBRANCH  30  41
ENDBRANCH  26  27
ENDBRANCH   1  26
TORSDOF 12
ENDMDL
MODEL 4
REMARK VINA RESULT: -9.088421978      1.204      2.282
REMARK  12 active torsions:
REMARK  status: ('A' for Active; 'I' for Inactive)
REMARK    1  A    between atoms: C2_2  and  C4_4 
REMARK    2  A    between atoms: C4_4  and  C5_5 
REMARK    3  A    between atoms: C8_8  and  C9_9 
REMARK    4  A    between atoms: C9_9  and  N1_10 
REMARK       I    between atoms: N1_10  and  C10_12 
REMARK    5  A    between atoms: C10_12  and  C11_14 
REMARK    6  A    between atoms: C11_14  and  N2_15 
REMARK       I    between atoms: N2_15  and  C12_17 
REMARK    7  A    between atoms: C12_17  and  C13_19 
REMARK       I    between atoms: N3_23  and  C17_24 
REMARK    8  A    between atoms: C17_24  and  C18_26 
REMARK    9  A    between atoms: C18_26  and  O4_28 
REMARK   10  A    between atoms: C18_26  and  C20_30 
REMARK   11  A    between atoms: C20_30  and  C21_31 
REMARK   12  A    between atoms: C21_31  and  S1_32 
ROOT
HETATM    1  N1  UNL     1     -12.302 -20.963  19.498  1.00  0.00    -0.359 N 
ATOM      2  H1  UNL     1     -13.016 -21.246  18.826  1.00  0.00     0.162 HD
HETATM    3  C10 UNL     1     -11.939 -21.866  20.527  1.00  0.00     0.235 C 
HETATM    4  O1  UNL     1     -11.066 -21.594  21.383  1.00  0.00    -0.272 OA
ENDROOT
BRANCH   3   5
HETATM    5  C11 UNL     1     -12.616 -23.180  20.598  1.00  0.00     0.225 C 
BRANCH   5   6
HETATM    6  N2  UNL     1     -14.020 -23.124  20.401  1.00  0.00    -0.351 N 
HETATM    7  C12 UNL     1     -14.795 -24.023  19.643  1.00  0.00     0.241 C 
HETATM    8  O2  UNL     1     -14.182 -24.991  19.066  1.00  0.00    -0.271 OA
ATOM      9  H2  UNL     1     -14.517 -22.357  20.853  1.00  0.00     0.163 HD
BRANCH   7  10
HETATM   10  C13 UNL     1     -16.249 -23.974  19.426  1.00  0.00     0.179 C 
HETATM   11  C14 UNL     1     -16.805 -25.404  19.482  1.00  0.00     0.037 C 
HETATM   12  C15 UNL     1     -17.573 -25.632  18.224  1.00  0.00     0.022 C 
HETATM   13  C16 UNL     1     -17.885 -24.206  17.789  1.00  0.00     0.127 C 
HETATM   14  N3  UNL     1     -16.686 -23.488  18.143  1.00  0.00    -0.336 N 
HETATM   15  C17 UNL     1     -16.060 -22.431  17.389  1.00  0.00     0.254 C 
HETATM   16  O3  UNL     1     -15.058 -21.843  17.898  1.00  0.00    -0.270 OA
BRANCH  15  17
HETATM   17  C18 UNL     1     -16.482 -21.965  16.065  1.00  0.00     0.135 C 
HETATM   18  C19 UNL     1     -15.908 -20.618  15.767  1.00  0.00     0.056 C 
BRANCH  17  19
HETATM   19  O4  UNL     1     -17.892 -21.805  16.025  1.00  0.00    -0.381 OA
ATOM     20  H4  UNL     1     -18.129 -21.126  15.404  1.00  0.00     0.211 HD
ENDBRANCH  17  19
BRANCH  17  21
HETATM   21  C20 UNL     1     -16.096 -23.006  15.021  1.00  0.00     0.057 C 
BRANCH  21  22
HETATM   22  C21 UNL     1     -17.264 -23.071  14.041  1.00  0.00     0.066 C 
BRANCH  22  23
HETATM   23  S1  UNL     1     -17.393 -24.648  13.250  1.00  0.00    -0.228 SA
HETATM   24  C22 UNL     1     -15.760 -25.105  12.706  1.00  0.00     0.078 C 
HETATM   25  C23 UNL     1     -17.960 -25.874  14.417  1.00  0.00     0.078 C 
ENDBRANCH  22  23
ENDBRANCH  21  22
ENDBRANCH  17  21
ENDBRANCH  15  17
ENDBRANCH   7  10
ENDBRANCH   5   6
ENDBRANCH   3   5
BRANCH   1  26
HETATM   26  C9  UNL     1     -11.708 -19.673  19.365  1.00  0.00     0.127 C 
BRANCH  26  27
HETATM   27  C8  UNL     1     -10.381 -19.604  18.692  1.00  0.00     0.010 A 
HETATM   28  C7  UNL     1     -10.097 -20.674  17.712  1.00  0.00     0.007 A 
HETATM   29  C6  UNL     1      -9.886 -20.025  16.373  1.00  0.00     0.012 A 
HETATM   30  C5  UNL     1      -9.908 -18.542  16.526  1.00  0.00    -0.013 A 
HETATM   31  C24 UNL     1     -10.302 -18.277  17.990  1.00  0.00     0.020 A 
HETATM   32  C32 UNL     1      -8.514 -17.977  16.567  1.00  0.00     0.100 C 
HETATM   33  C25 UNL     1      -9.234 -17.457  18.618  1.00  0.00     0.128 C 
HETATM   34  N4  UNL     1      -8.439 -16.964  17.556  1.00  0.00    -0.387 N 
HETATM   35  C26 UNL     1      -8.489 -15.615  17.248  1.00  0.00     0.058 C 
HETATM   36  C27 UNL     1      -7.984 -15.160  15.937  1.00  0.00     0.045 C 
HETATM   37  C28 UNL     1      -8.048 -16.193  14.847  1.00  0.00     0.016 C 
HETATM   38  C29 UNL     1      -7.807 -17.600  15.352  1.00  0.00    -0.026 C 
HETATM   39  C30 UNL     1      -6.304 -17.564  15.760  1.00  0.00     0.017 C 
HETATM   40  C31 UNL     1      -7.831 -18.527  14.188  1.00  0.00     0.017 C 
BRANCH  30  41
HETATM   41  C4  UNL     1     -10.857 -17.799  15.701  1.00  0.00     0.016 C 
BRANCH  41  42
HETATM   42  C2  UNL     1     -11.550 -18.408  14.556  1.00  0.00    -0.022 C 
HETATM   43  C1  UNL     1     -11.407 -17.739  13.221  1.00  0.00     0.009 C 
HETATM   44  C3  UNL     1     -13.082 -18.421  14.807  1.00  0.00     0.009 C 
ENDBRANCH  41  42
ENDBRANCH  30  41
ENDBRANCH  26  27
ENDBRANCH   1  26
TORSDOF 12
ENDMDL
MODEL 5
REMARK VINA RESULT: -8.996897238      2.343      4.524
REMARK  12 active torsions:
REMARK  status: ('A' for Active; 'I' for Inactive)
REMARK    1  A    between atoms: C2_2  and  C4_4 
REMARK    2  A    between atoms: C4_4  and  C5_5 
REMARK    3  A    between atoms: C8_8  and  C9_9 
REMARK    4  A    between atoms: C9_9  and  N1_10 
REMARK       I    between atoms: N1_10  and  C10_12 
REMARK    5  A    between atoms: C10_12  and  C11_14 
REMARK    6  A    between atoms: C11_14  and  N2_15 
REMARK       I    between atoms: N2_15  and  C12_17 
REMARK    7  A    between atoms: C12_17  and  C13_19 
REMARK       I    between atoms: N3_23  and  C17_24 
REMARK    8  A    between atoms: C17_24  and  C18_26 
REMARK    9  A    between atoms: C18_26  and  O4_28 
REMARK   10  A    between atoms: C18_26  and  C20_30 
REMARK   11  A    between atoms: C20_30  and  C21_31 
REMARK   12  A    between atoms: C21_31  and  S1_32 
ROOT
HETATM    1  N1  UNL     1     -13.375 -19.316  15.513  1.00  0.00    -0.359 N 
ATOM      2  H1  UNL     1     -14.340 -19.124  15.783  1.00  0.00     0.162 HD
HETATM    3  C10 UNL     1     -13.007 -20.648  15.202  1.00  0.00     0.235 C 
HETATM    4  O1  UNL     1     -11.846 -20.962  14.855  1.00  0.00    -0.272 OA
ENDROOT
BRANCH   3   5
HETATM    5  C11 UNL     1     -14.031 -21.713  15.292  1.00  0.00     0.225 C 
BRANCH   5   6
HETATM    6  N2  UNL     1     -14.263 -22.189  16.609  1.00  0.00    -0.351 N 
HETATM    7  C12 UNL     1     -14.950 -21.512  17.636  1.00  0.00     0.241 C 
HETATM    8  O2  UNL     1     -15.415 -20.347  17.366  1.00  0.00    -0.271 OA
ATOM      9  H2  UNL     1     -13.896 -23.113  16.834  1.00  0.00     0.163 HD
BRANCH   7  10
HETATM   10  C13 UNL     1     -15.193 -21.992  19.005  1.00  0.00     0.179 C 
HETATM   11  C14 UNL     1     -13.845 -22.132  19.726  1.00  0.00     0.037 C 
HETATM   12  C15 UNL     1     -13.769 -23.524  20.257  1.00  0.00     0.022 C 
HETATM   13  C16 UNL     1     -15.240 -23.917  20.310  1.00  0.00     0.127 C 
HETATM   14  N3  UNL     1     -15.784 -23.300  19.125  1.00  0.00    -0.336 N 
HETATM   15  C17 UNL     1     -16.782 -23.854  18.246  1.00  0.00     0.254 C 
HETATM   16  O3  UNL     1     -17.215 -23.130  17.299  1.00  0.00    -0.270 OA
BRANCH  15  17
HETATM   17  C18 UNL     1     -17.351 -25.200  18.347  1.00  0.00     0.135 C 
HETATM   18  C19 UNL     1     -18.071 -25.377  19.645  1.00  0.00     0.056 C 
BRANCH  17  19
HETATM   19  O4  UNL     1     -16.319 -26.175  18.339  1.00  0.00    -0.381 OA
ATOM     20  H4  UNL     1     -16.419 -26.755  17.594  1.00  0.00     0.211 HD
ENDBRANCH  17  19
BRANCH  17  21
HETATM   21  C20 UNL     1     -18.251 -25.456  17.143  1.00  0.00     0.057 C 
BRANCH  21  22
HETATM   22  C21 UNL     1     -19.128 -26.647  17.520  1.00  0.00     0.066 C 
BRANCH  22  23
HETATM   23  S1  UNL     1     -19.419 -27.730  16.152  1.00  0.00    -0.228 SA
HETATM   24  C22 UNL     1     -18.285 -27.269  14.859  1.00  0.00     0.078 C 
HETATM   25  C23 UNL     1     -19.078 -29.417  16.623  1.00  0.00     0.078 C 
ENDBRANCH  22  23
ENDBRANCH  21  22
ENDBRANCH  17  21
ENDBRANCH  15  17
ENDBRANCH   7  10
ENDBRANCH   5   6
ENDBRANCH   3   5
BRANCH   1  26
HETATM   26  C9  UNL     1     -12.449 -18.234  15.462  1.00  0.00     0.127 C 
BRANCH  26  27
HETATM   27  C8  UNL     1     -11.953 -17.703  16.762  1.00  0.00     0.010 A 
HETATM   28  C7  UNL     1     -12.785 -18.009  17.945  1.00  0.00     0.007 A 
HETATM   29  C6  UNL     1     -11.949 -18.816  18.898  1.00  0.00     0.012 A 
HETATM   30  C5  UNL     1     -10.554 -18.911  18.382  1.00  0.00    -0.013 A 
HETATM   31  C24 UNL     1     -10.578 -18.269  16.984  1.00  0.00     0.020 A 
HETATM   32  C32 UNL     1      -9.651 -17.920  19.065  1.00  0.00     0.100 C 
HETATM   33  C25 UNL     1      -9.587 -17.162  16.963  1.00  0.00     0.128 C 
HETATM   34  N4  UNL     1      -8.779 -17.334  18.112  1.00  0.00    -0.387 N 
HETATM   35  C26 UNL     1      -7.464 -17.738  17.956  1.00  0.00     0.058 C 
HETATM   36  C27 UNL     1      -6.739 -18.285  19.120  1.00  0.00     0.045 C 
HETATM   37  C28 UNL     1      -7.615 -18.927  20.160  1.00  0.00     0.016 C 
HETATM   38  C29 UNL     1      -8.959 -18.243  20.303  1.00  0.00    -0.026 C 
HETATM   39  C30 UNL     1      -8.577 -16.865  20.920  1.00  0.00     0.017 C 
HETATM   40  C31 UNL     1      -9.713 -18.918  21.395  1.00  0.00     0.017 C 
BRANCH  30  41
HETATM   41  C4  UNL     1      -9.994 -20.250  18.213  1.00  0.00     0.016 C 
BRANCH  41  42
HETATM   42  C2  UNL     1     -10.739 -21.466  18.569  1.00  0.00    -0.022 C 
HETATM   43  C1  UNL     1     -10.251 -22.261  19.744  1.00  0.00     0.009 C 
HETATM   44  C3  UNL     1     -10.702 -22.476  17.391  1.00  0.00     0.009 C 
ENDBRANCH  41  42
ENDBRANCH  30  41
ENDBRANCH  26  27
ENDBRANCH   1  26
TORSDOF 12
ENDMDL
