MODEL 1
REMARK VINA RESULT: -9.430589413      0.000      0.000
REMARK  11 active torsions:
REMARK  status: ('A' for Active; 'I' for Inactive)
REMARK    1  A    between atoms: C2_2  and  C3_3 
REMARK    2  A    between atoms: C3_3  and  C4_4 
REMARK    3  A    between atoms: C3_3  and  C6_10 
REMARK    4  A    between atoms: C4_4  and  N1_5 
REMARK    5  A    between atoms: N1_5  and  O1_6 
REMARK    6  A    between atoms: N1_5  and  C5_8 
REMARK       I    between atoms: C6_10  and  N2_12 
REMARK       I    between atoms: N3_18  and  C12_19 
REMARK    7  A    between atoms: C12_19  and  C13_21 
REMARK    8  A    between atoms: C13_21  and  C14_22 
REMARK    9  A    between atoms: C13_21  and  N4_29 
REMARK   10  A    between atoms: C14_22  and  C15_23 
REMARK       I    between atoms: N4_29  and  C21_31 
REMARK       I    between atoms: C21_31  and  N5_33 
REMARK   11  A    between atoms: N5_33  and  C22_35 
REMARK       I    between atoms: N6_38  and  C25_39 
ROOT
HETATM    1  C13 UNL     1     -12.298 -19.360  16.982  1.00  0.00     0.179 C 
ENDROOT
BRANCH   1   2
HETATM    2  C12 UNL     1     -13.249 -20.440  17.199  1.00  0.00     0.242 C 
HETATM    3  N3  UNL     1     -12.952 -21.803  17.352  1.00  0.00    -0.350 N 
HETATM    4  C11 UNL     1     -11.636 -22.397  17.425  1.00  0.00     0.126 C 
HETATM    5  C29 UNL     1     -14.055 -22.784  17.425  1.00  0.00     0.138 C 
HETATM    6  C10 UNL     1     -11.627 -23.297  18.651  1.00  0.00     0.021 C 
HETATM    7  C9  UNL     1     -12.797 -22.988  19.570  1.00  0.00     0.016 C 
HETATM    8  C8  UNL     1     -14.071 -23.269  18.848  1.00  0.00     0.008 C 
HETATM    9  C7  UNL     1     -14.665 -24.655  19.009  1.00  0.00     0.138 C 
HETATM   10  C30 UNL     1     -15.341 -22.866  19.575  1.00  0.00     0.138 C 
HETATM   11  N2  UNL     1     -15.963 -24.015  18.951  1.00  0.00    -0.350 N 
HETATM   12  C6  UNL     1     -17.250 -24.342  18.489  1.00  0.00     0.225 C 
HETATM   13  O3  UNL     1     -18.215 -23.532  18.587  1.00  0.00    -0.273 OA
HETATM   14  O4  UNL     1     -14.496 -20.140  17.266  1.00  0.00    -0.271 OA
BRANCH  12  15
HETATM   15  C3  UNL     1     -17.436 -25.692  17.873  1.00  0.00     0.098 C 
BRANCH  15  16
HETATM   16  C2  UNL     1     -17.626 -26.752  18.911  1.00  0.00     0.011 C 
HETATM   17  C1  UNL     1     -18.846 -27.606  18.645  1.00  0.00     0.006 C 
ENDBRANCH  15  16
BRANCH  15  18
HETATM   18  C4  UNL     1     -18.492 -25.604  16.839  1.00  0.00     0.172 C 
BRANCH  18  19
HETATM   19  N1  UNL     1     -17.997 -25.711  15.487  1.00  0.00    -0.235 N 
BRANCH  19  20
HETATM   20  O1  UNL     1     -17.474 -24.586  14.941  1.00  0.00    -0.285 OA
ATOM     21  H1  UNL     1     -17.510 -24.516  13.994  1.00  0.00     0.245 HD
ENDBRANCH  19  20
BRANCH  19  22
HETATM   22  C5  UNL     1     -18.023 -26.893  14.710  1.00  0.00     0.376 C 
HETATM   23  O2  UNL     1     -18.292 -27.999  15.255  1.00  0.00    -0.281 OA
ENDBRANCH  19  22
ENDBRANCH  18  19
ENDBRANCH  15  18
ENDBRANCH  12  15
ENDBRANCH   1   2
BRANCH   1  24
HETATM   24  C14 UNL     1     -12.788 -18.070  16.428  1.00  0.00     0.039 C 
BRANCH  24  25
HETATM   25  C15 UNL     1     -12.896 -17.910  14.947  1.00  0.00    -0.012 C 
HETATM   26  C16 UNL     1     -13.148 -19.108  14.131  1.00  0.00     0.005 C 
HETATM   27  C17 UNL     1     -12.631 -19.155  12.738  1.00  0.00     0.000 C 
HETATM   28  C18 UNL     1     -11.599 -18.161  12.346  1.00  0.00     0.000 C 
HETATM   29  C19 UNL     1     -10.789 -17.851  13.604  1.00  0.00     0.000 C 
HETATM   30  C20 UNL     1     -11.743 -17.037  14.461  1.00  0.00     0.005 C 
ENDBRANCH  24  25
ENDBRANCH   1  24
BRANCH   1  31
HETATM   31  N4  UNL     1     -11.575 -19.100  18.256  1.00  0.00    -0.330 N 
HETATM   32  C21 UNL     1     -10.340 -18.400  18.240  1.00  0.00     0.317 C 
HETATM   33  O5  UNL     1      -9.868 -17.979  17.160  1.00  0.00    -0.247 OA
HETATM   34  N5  UNL     1      -9.635 -18.175  19.436  1.00  0.00    -0.338 N 
ATOM     35  H5  UNL     1     -10.009 -18.517  20.321  1.00  0.00     0.164 HD
ATOM     36  H4  UNL     1     -11.967 -19.424  19.141  1.00  0.00     0.165 HD
BRANCH  34  37
HETATM   37  C22 UNL     1      -8.382 -17.459  19.408  1.00  0.00     0.089 C 
HETATM   38  C23 UNL     1      -8.000 -16.971  20.759  1.00  0.00     0.045 C 
HETATM   39  C24 UNL     1      -7.216 -18.102  21.449  1.00  0.00     0.127 C 
HETATM   40  N6  UNL     1      -5.942 -18.150  20.761  1.00  0.00    -0.352 N 
HETATM   41  C25 UNL     1      -4.756 -18.308  21.516  1.00  0.00     0.215 C 
HETATM   42  C27 UNL     1      -5.938 -18.034  19.319  1.00  0.00     0.127 C 
HETATM   43  C26 UNL     1      -4.737 -18.431  22.986  1.00  0.00     0.117 C 
HETATM   44  O6  UNL     1      -3.658 -18.345  20.897  1.00  0.00    -0.274 OA
HETATM   45  C28 UNL     1      -7.298 -18.262  18.724  1.00  0.00     0.045 C 
ENDBRANCH  34  37
ENDBRANCH   1  31
TORSDOF 11
ENDMDL
MODEL 2
REMARK VINA RESULT: -9.334198398      3.445     11.467
REMARK  11 active torsions:
REMARK  status: ('A' for Active; 'I' for Inactive)
REMARK    1  A    between atoms: C2_2  and  C3_3 
REMARK    2  A    between atoms: C3_3  and  C4_4 
REMARK    3  A    between atoms: C3_3  and  C6_10 
REMARK    4  A    between atoms: C4_4  and  N1_5 
REMARK    5  A    between atoms: N1_5  and  O1_6 
REMARK    6  A    between atoms: N1_5  and  C5_8 
REMARK       I    between atoms: C6_10  and  N2_12 
REMARK       I    between atoms: N3_18  and  C12_19 
REMARK    7  A    between atoms: C12_19  and  C13_21 
REMARK    8  A    between atoms: C13_21  and  C14_22 
REMARK    9  A    between atoms: C13_21  and  N4_29 
REMARK   10  A    between atoms: C14_22  and  C15_23 
REMARK       I    between atoms: N4_29  and  C21_31 
REMARK       I    between atoms: C21_31  and  N5_33 
REMARK   11  A    between atoms: N5_33  and  C22_35 
REMARK       I    between atoms: N6_38  and  C25_39 
ROOT
HETATM    1  C13 UNL     1     -11.101 -19.721  16.191  1.00  0.00     0.179 C 
ENDROOT
BRANCH   1   2
HETATM    2  C12 UNL     1      -9.832 -19.028  16.358  1.00  0.00     0.242 C 
HETATM    3  N3  UNL     1      -9.195 -18.204  15.418  1.00  0.00    -0.350 N 
HETATM    4  C11 UNL     1      -9.717 -17.797  14.133  1.00  0.00     0.126 C 
HETATM    5  C29 UNL     1      -7.839 -17.691  15.701  1.00  0.00     0.138 C 
HETATM    6  C10 UNL     1      -9.563 -16.285  14.055  1.00  0.00     0.021 C 
HETATM    7  C9  UNL     1      -9.299 -15.687  15.426  1.00  0.00     0.016 C 
HETATM    8  C8  UNL     1      -8.008 -16.217  15.949  1.00  0.00     0.008 C 
HETATM    9  C7  UNL     1      -6.759 -15.407  15.658  1.00  0.00     0.138 C 
HETATM   10  C30 UNL     1      -7.671 -15.835  17.380  1.00  0.00     0.138 C 
HETATM   11  N2  UNL     1      -6.285 -15.825  16.961  1.00  0.00    -0.350 N 
HETATM   12  C6  UNL     1      -5.044 -16.107  17.561  1.00  0.00     0.225 C 
HETATM   13  O3  UNL     1      -4.959 -16.463  18.771  1.00  0.00    -0.273 OA
HETATM   14  O4  UNL     1      -9.214 -19.166  17.475  1.00  0.00    -0.271 OA
BRANCH  12  15
HETATM   15  C3  UNL     1      -3.823 -15.973  16.709  1.00  0.00     0.098 C 
BRANCH  15  16
HETATM   16  C2  UNL     1      -3.392 -17.291  16.149  1.00  0.00     0.011 C 
HETATM   17  C1  UNL     1      -1.922 -17.311  15.791  1.00  0.00     0.006 C 
ENDBRANCH  15  16
BRANCH  15  18
HETATM   18  C4  UNL     1      -4.047 -14.893  15.721  1.00  0.00     0.172 C 
BRANCH  18  19
HETATM   19  N1  UNL     1      -3.504 -13.616  16.117  1.00  0.00    -0.235 N 
BRANCH  19  20
HETATM   20  O1  UNL     1      -4.400 -12.645  16.427  1.00  0.00    -0.285 OA
ATOM     21  H1  UNL     1      -4.044 -11.791  16.642  1.00  0.00     0.245 HD
ENDBRANCH  19  20
BRANCH  19  22
HETATM   22  C5  UNL     1      -2.124 -13.316  16.201  1.00  0.00     0.376 C 
HETATM   23  O2  UNL     1      -1.330 -13.753  15.323  1.00  0.00    -0.281 OA
ENDBRANCH  19  22
ENDBRANCH  18  19
ENDBRANCH  15  18
ENDBRANCH  12  15
ENDBRANCH   1   2
BRANCH   1  24
HETATM   24  C14 UNL     1     -11.476 -20.220  14.841  1.00  0.00     0.039 C 
BRANCH  24  25
HETATM   25  C15 UNL     1     -12.921 -20.297  14.471  1.00  0.00    -0.012 C 
HETATM   26  C16 UNL     1     -13.861 -19.379  15.133  1.00  0.00     0.005 C 
HETATM   27  C17 UNL     1     -15.272 -19.807  15.327  1.00  0.00     0.000 C 
HETATM   28  C18 UNL     1     -15.589 -21.249  15.167  1.00  0.00     0.000 C 
HETATM   29  C19 UNL     1     -14.341 -22.021  15.592  1.00  0.00     0.000 C 
HETATM   30  C20 UNL     1     -13.351 -21.761  14.469  1.00  0.00     0.005 C 
ENDBRANCH  24  25
ENDBRANCH   1  24
BRANCH   1  31
HETATM   31  N4  UNL     1     -11.157 -20.850  17.160  1.00  0.00    -0.330 N 
HETATM   32  C21 UNL     1     -12.217 -20.923  18.101  1.00  0.00     0.317 C 
HETATM   33  O5  UNL     1     -13.119 -20.055  18.104  1.00  0.00    -0.247 OA
HETATM   34  N5  UNL     1     -12.263 -21.969  19.040  1.00  0.00    -0.338 N 
ATOM     35  H5  UNL     1     -11.531 -22.680  19.049  1.00  0.00     0.164 HD
ATOM     36  H4  UNL     1     -10.435 -21.570  17.148  1.00  0.00     0.165 HD
BRANCH  34  37
HETATM   37  C22 UNL     1     -13.348 -22.036  19.990  1.00  0.00     0.089 C 
HETATM   38  C23 UNL     1     -14.668 -22.100  19.311  1.00  0.00     0.045 C 
HETATM   39  C24 UNL     1     -14.966 -23.584  19.030  1.00  0.00     0.127 C 
HETATM   40  N6  UNL     1     -15.252 -24.163  20.327  1.00  0.00    -0.352 N 
HETATM   41  C25 UNL     1     -16.331 -25.068  20.454  1.00  0.00     0.215 C 
HETATM   42  C27 UNL     1     -14.413 -23.787  21.444  1.00  0.00     0.127 C 
HETATM   43  C26 UNL     1     -17.196 -25.468  19.329  1.00  0.00     0.117 C 
HETATM   44  O6  UNL     1     -16.563 -25.559  21.594  1.00  0.00    -0.274 OA
HETATM   45  C28 UNL     1     -13.132 -23.139  21.003  1.00  0.00     0.045 C 
ENDBRANCH  34  37
ENDBRANCH   1  31
TORSDOF 11
ENDMDL
MODEL 3
REMARK VINA RESULT: -9.246114663      3.134     11.439
REMARK  11 active torsions:
REMARK  status: ('A' for Active; 'I' for Inactive)
REMARK    1  A    between atoms: C2_2  and  C3_3 
REMARK    2  A    between atoms: C3_3  and  C4_4 
REMARK    3  A    between atoms: C3_3  and  C6_10 
REMARK    4  A    between atoms: C4_4  and  N1_5 
REMARK    5  A    between atoms: N1_5  and  O1_6 
REMARK    6  A    between atoms: N1_5  and  C5_8 
REMARK       I    between atoms: C6_10  and  N2_12 
REMARK       I    between atoms: N3_18  and  C12_19 
REMARK    7  A    between atoms: C12_19  and  C13_21 
REMARK    8  A    between atoms: C13_21  and  C14_22 
REMARK    9  A    between atoms: C13_21  and  N4_29 
REMARK   10  A    between atoms: C14_22  and  C15_23 
REMARK       I    between atoms: N4_29  and  C21_31 
REMARK       I    between atoms: C21_31  and  N5_33 
REMARK   11  A    between atoms: N5_33  and  C22_35 
REMARK       I    between atoms: N6_38  and  C25_39 
ROOT
HETATM    1  C13 UNL     1     -11.211 -19.779  16.176  1.00  0.00     0.179 C 
ENDROOT
BRANCH   1   2
HETATM    2  C12 UNL     1      -9.926 -19.128  16.382  1.00  0.00     0.242 C 
HETATM    3  N3  UNL     1      -9.255 -18.288  15.480  1.00  0.00    -0.350 N 
HETATM    4  C11 UNL     1      -9.751 -17.821  14.205  1.00  0.00     0.126 C 
HETATM    5  C29 UNL     1      -7.889 -17.824  15.797  1.00  0.00     0.138 C 
HETATM    6  C10 UNL     1      -9.554 -16.313  14.183  1.00  0.00     0.021 C 
HETATM    7  C9  UNL     1      -9.291 -15.771  15.578  1.00  0.00     0.016 C 
HETATM    8  C8  UNL     1      -8.021 -16.356  16.096  1.00  0.00     0.008 C 
HETATM    9  C7  UNL     1      -6.747 -15.571  15.848  1.00  0.00     0.138 C 
HETATM   10  C30 UNL     1      -7.691 -16.035  17.542  1.00  0.00     0.138 C 
HETATM   11  N2  UNL     1      -6.300 -16.048  17.140  1.00  0.00    -0.350 N 
HETATM   12  C6  UNL     1      -5.075 -16.386  17.743  1.00  0.00     0.225 C 
HETATM   13  O3  UNL     1      -5.014 -16.787  18.940  1.00  0.00    -0.273 OA
HETATM   14  O4  UNL     1      -9.325 -19.323  17.501  1.00  0.00    -0.271 OA
BRANCH  12  15
HETATM   15  C3  UNL     1      -3.841 -16.255  16.910  1.00  0.00     0.098 C 
BRANCH  15  16
HETATM   16  C2  UNL     1      -3.232 -14.894  17.032  1.00  0.00     0.011 C 
HETATM   17  C1  UNL     1      -3.283 -14.122  15.732  1.00  0.00     0.006 C 
ENDBRANCH  15  16
BRANCH  15  18
HETATM   18  C4  UNL     1      -2.941 -17.394  17.206  1.00  0.00     0.172 C 
BRANCH  18  19
HETATM   19  N1  UNL     1      -1.699 -17.364  16.473  1.00  0.00    -0.235 N 
BRANCH  19  20
HETATM   20  O1  UNL     1      -1.792 -17.331  15.120  1.00  0.00    -0.285 OA
ATOM     21  H1  UNL     1      -0.985 -17.455  14.635  1.00  0.00     0.245 HD
ENDBRANCH  19  20
BRANCH  19  22
HETATM   22  C5  UNL     1      -0.413 -17.367  17.063  1.00  0.00     0.376 C 
HETATM   23  O2  UNL     1      -0.147 -16.561  17.997  1.00  0.00    -0.281 OA
ENDBRANCH  19  22
ENDBRANCH  18  19
ENDBRANCH  15  18
ENDBRANCH  12  15
ENDBRANCH   1   2
BRANCH   1  24
HETATM   24  C14 UNL     1     -11.585 -20.217  14.805  1.00  0.00     0.039 C 
BRANCH  24  25
HETATM   25  C15 UNL     1     -13.030 -20.300  14.438  1.00  0.00    -0.012 C 
HETATM   26  C16 UNL     1     -13.978 -19.412  15.128  1.00  0.00     0.005 C 
HETATM   27  C17 UNL     1     -15.383 -19.862  15.315  1.00  0.00     0.000 C 
HETATM   28  C18 UNL     1     -15.684 -21.302  15.117  1.00  0.00     0.000 C 
HETATM   29  C19 UNL     1     -14.426 -22.072  15.516  1.00  0.00     0.000 C 
HETATM   30  C20 UNL     1     -13.442 -21.769  14.398  1.00  0.00     0.005 C 
ENDBRANCH  24  25
ENDBRANCH   1  24
BRANCH   1  31
HETATM   31  N4  UNL     1     -11.309 -20.941  17.102  1.00  0.00    -0.330 N 
HETATM   32  C21 UNL     1     -12.365 -21.007  18.047  1.00  0.00     0.317 C 
HETATM   33  O5  UNL     1     -13.231 -20.103  18.090  1.00  0.00    -0.247 OA
HETATM   34  N5  UNL     1     -12.450 -22.086  18.945  1.00  0.00    -0.338 N 
ATOM     35  H5  UNL     1     -11.748 -22.826  18.921  1.00  0.00     0.164 HD
ATOM     36  H4  UNL     1     -10.617 -21.689  17.056  1.00  0.00     0.165 HD
BRANCH  34  37
HETATM   37  C22 UNL     1     -13.531 -22.144  19.900  1.00  0.00     0.089 C 
HETATM   38  C23 UNL     1     -14.850 -22.267  19.227  1.00  0.00     0.045 C 
HETATM   39  C24 UNL     1     -15.110 -23.768  19.002  1.00  0.00     0.127 C 
HETATM   40  N6  UNL     1     -15.380 -24.305  20.321  1.00  0.00    -0.352 N 
HETATM   41  C25 UNL     1     -16.435 -25.232  20.484  1.00  0.00     0.215 C 
HETATM   42  C27 UNL     1     -14.549 -23.866  21.421  1.00  0.00     0.127 C 
HETATM   43  C26 UNL     1     -17.292 -25.695  19.377  1.00  0.00     0.117 C 
HETATM   44  O6  UNL     1     -16.653 -25.685  21.642  1.00  0.00    -0.274 OA
HETATM   45  C28 UNL     1     -13.285 -23.203  20.952  1.00  0.00     0.045 C 
ENDBRANCH  34  37
ENDBRANCH   1  31
TORSDOF 11
ENDMDL
MODEL 4
REMARK VINA RESULT: -9.151024791      3.729     11.959
REMARK  11 active torsions:
REMARK  status: ('A' for Active; 'I' for Inactive)
REMARK    1  A    between atoms: C2_2  and  C3_3 
REMARK    2  A    between atoms: C3_3  and  C4_4 
REMARK    3  A    between atoms: C3_3  and  C6_10 
REMARK    4  A    between atoms: C4_4  and  N1_5 
REMARK    5  A    between atoms: N1_5  and  O1_6 
REMARK    6  A    between atoms: N1_5  and  C5_8 
REMARK       I    between atoms: C6_10  and  N2_12 
REMARK       I    between atoms: N3_18  and  C12_19 
REMARK    7  A    between atoms: C12_19  and  C13_21 
REMARK    8  A    between atoms: C13_21  and  C14_22 
REMARK    9  A    between atoms: C13_21  and  N4_29 
REMARK   10  A    between atoms: C14_22  and  C15_23 
REMARK       I    between atoms: N4_29  and  C21_31 
REMARK       I    between atoms: C21_31  and  N5_33 
REMARK   11  A    between atoms: N5_33  and  C22_35 
REMARK       I    between atoms: N6_38  and  C25_39 
ROOT
HETATM    1  C13 UNL     1      -8.809 -17.900  16.500  1.00  0.00     0.179 C 
ENDROOT
BRANCH   1   2
HETATM    2  C12 UNL     1      -7.451 -17.428  16.721  1.00  0.00     0.242 C 
HETATM    3  N3  UNL     1      -6.868 -17.092  17.953  1.00  0.00    -0.350 N 
HETATM    4  C11 UNL     1      -7.465 -17.243  19.260  1.00  0.00     0.126 C 
HETATM    5  C29 UNL     1      -5.517 -16.494  17.979  1.00  0.00     0.138 C 
HETATM    6  C10 UNL     1      -6.448 -17.970  20.127  1.00  0.00     0.021 C 
HETATM    7  C9  UNL     1      -5.365 -18.617  19.280  1.00  0.00     0.016 C 
HETATM    8  C8  UNL     1      -4.616 -17.554  18.551  1.00  0.00     0.008 C 
HETATM    9  C7  UNL     1      -3.376 -16.997  19.222  1.00  0.00     0.138 C 
HETATM   10  C30 UNL     1      -3.596 -18.045  17.539  1.00  0.00     0.138 C 
HETATM   11  N2  UNL     1      -2.810 -16.881  17.894  1.00  0.00    -0.350 N 
HETATM   12  C6  UNL     1      -1.912 -16.026  17.230  1.00  0.00     0.225 C 
HETATM   13  O3  UNL     1      -1.608 -16.198  16.016  1.00  0.00    -0.273 OA
HETATM   14  O4  UNL     1      -6.684 -17.300  15.698  1.00  0.00    -0.271 OA
BRANCH  12  15
HETATM   15  C3  UNL     1      -1.329 -14.898  18.019  1.00  0.00     0.098 C 
BRANCH  15  16
HETATM   16  C2  UNL     1      -0.007 -15.266  18.616  1.00  0.00     0.011 C 
HETATM   17  C1  UNL     1      -0.057 -15.337  20.126  1.00  0.00     0.006 C 
ENDBRANCH  15  16
BRANCH  15  18
HETATM   18  C4  UNL     1      -1.343 -13.675  17.185  1.00  0.00     0.172 C 
BRANCH  18  19
HETATM   19  N1  UNL     1      -2.615 -12.992  17.170  1.00  0.00    -0.235 N 
BRANCH  19  20
HETATM   20  O1  UNL     1      -3.101 -12.586  18.369  1.00  0.00    -0.285 OA
ATOM     21  H1  UNL     1      -3.909 -12.086  18.353  1.00  0.00     0.245 HD
ENDBRANCH  19  20
BRANCH  19  22
HETATM   22  C5  UNL     1      -3.372 -12.724  16.005  1.00  0.00     0.376 C 
HETATM   23  O2  UNL     1      -3.083 -11.732  15.281  1.00  0.00    -0.281 OA
ENDBRANCH  19  22
ENDBRANCH  18  19
ENDBRANCH  15  18
ENDBRANCH  12  15
ENDBRANCH   1   2
BRANCH   1  24
HETATM   24  C14 UNL     1      -9.296 -18.068  15.105  1.00  0.00     0.039 C 
BRANCH  24  25
HETATM   25  C15 UNL     1     -10.746 -18.336  14.869  1.00  0.00    -0.012 C 
HETATM   26  C16 UNL     1     -11.168 -19.724  14.625  1.00  0.00     0.005 C 
HETATM   27  C17 UNL     1     -12.362 -19.976  13.776  1.00  0.00     0.000 C 
HETATM   28  C18 UNL     1     -12.865 -18.861  12.935  1.00  0.00     0.000 C 
HETATM   29  C19 UNL     1     -11.651 -18.011  12.562  1.00  0.00     0.000 C 
HETATM   30  C20 UNL     1     -11.276 -17.320  13.862  1.00  0.00     0.005 C 
ENDBRANCH  24  25
ENDBRANCH   1  24
BRANCH   1  31
HETATM   31  N4  UNL     1      -8.993 -19.180  17.237  1.00  0.00    -0.330 N 
HETATM   32  C21 UNL     1     -10.035 -19.305  18.192  1.00  0.00     0.317 C 
HETATM   33  O5  UNL     1     -10.817 -18.350  18.401  1.00  0.00    -0.247 OA
HETATM   34  N5  UNL     1     -10.199 -20.501  18.914  1.00  0.00    -0.338 N 
ATOM     35  H5  UNL     1      -9.565 -21.284  18.755  1.00  0.00     0.164 HD
ATOM     36  H4  UNL     1      -8.370 -19.968  17.055  1.00  0.00     0.165 HD
BRANCH  34  37
HETATM   37  C22 UNL     1     -11.265 -20.618  19.881  1.00  0.00     0.089 C 
HETATM   38  C23 UNL     1     -12.595 -20.691  19.223  1.00  0.00     0.045 C 
HETATM   39  C24 UNL     1     -12.866 -22.173  18.904  1.00  0.00     0.127 C 
HETATM   40  N6  UNL     1     -13.116 -22.794  20.189  1.00  0.00    -0.352 N 
HETATM   41  C25 UNL     1     -14.173 -23.726  20.309  1.00  0.00     0.215 C 
HETATM   42  C27 UNL     1     -12.266 -22.432  21.302  1.00  0.00     0.127 C 
HETATM   43  C26 UNL     1     -15.050 -24.114  19.188  1.00  0.00     0.117 C 
HETATM   44  O6  UNL     1     -14.375 -24.254  21.438  1.00  0.00    -0.274 OA
HETATM   45  C28 UNL     1     -11.007 -21.744  20.858  1.00  0.00     0.045 C 
ENDBRANCH  34  37
ENDBRANCH   1  31
TORSDOF 11
ENDMDL
MODEL 5
REMARK VINA RESULT: -9.136890759      4.003     11.834
REMARK  11 active torsions:
REMARK  status: ('A' for Active; 'I' for Inactive)
REMARK    1  A    between atoms: C2_2  and  C3_3 
REMARK    2  A    between atoms: C3_3  and  C4_4 
REMARK    3  A    between atoms: C3_3  and  C6_10 
REMARK    4  A    between atoms: C4_4  and  N1_5 
REMARK    5  A    between atoms: N1_5  and  O1_6 
REMARK    6  A    between atoms: N1_5  and  C5_8 
REMARK       I    between atoms: C6_10  and  N2_12 
REMARK       I    between atoms: N3_18  and  C12_19 
REMARK    7  A    between atoms: C12_19  and  C13_21 
REMARK    8  A    between atoms: C13_21  and  C14_22 
REMARK    9  A    between atoms: C13_21  and  N4_29 
REMARK   10  A    between atoms: C14_22  and  C15_23 
REMARK       I    between atoms: N4_29  and  C21_31 
REMARK       I    between atoms: C21_31  and  N5_33 
REMARK   11  A    between atoms: N5_33  and  C22_35 
REMARK       I    between atoms: N6_38  and  C25_39 
ROOT
HETATM    1  C13 UNL     1      -9.359 -18.164  15.599  1.00  0.00     0.179 C 
ENDROOT
BRANCH   1   2
HETATM    2  C12 UNL     1      -8.015 -17.632  15.761  1.00  0.00     0.242 C 
HETATM    3  N3  UNL     1      -7.574 -16.755  16.764  1.00  0.00    -0.350 N 
HETATM    4  C11 UNL     1      -8.340 -16.282  17.895  1.00  0.00     0.126 C 
HETATM    5  C29 UNL     1      -6.205 -16.203  16.697  1.00  0.00     0.138 C 
HETATM    6  C10 UNL     1      -7.484 -16.511  19.132  1.00  0.00     0.021 C 
HETATM    7  C9  UNL     1      -6.342 -17.470  18.842  1.00  0.00     0.016 C 
HETATM    8  C8  UNL     1      -5.447 -16.865  17.814  1.00  0.00     0.008 C 
HETATM    9  C7  UNL     1      -4.271 -16.049  18.316  1.00  0.00     0.138 C 
HETATM   10  C30 UNL     1      -4.337 -17.763  17.298  1.00  0.00     0.138 C 
HETATM   11  N2  UNL     1      -3.536 -16.562  17.179  1.00  0.00    -0.350 N 
HETATM   12  C6  UNL     1      -2.514 -16.109  16.326  1.00  0.00     0.225 C 
HETATM   13  O3  UNL     1      -2.069 -16.827  15.385  1.00  0.00    -0.273 OA
HETATM   14  O4  UNL     1      -7.119 -17.991  14.914  1.00  0.00    -0.271 OA
BRANCH  12  15
HETATM   15  C3  UNL     1      -1.971 -14.739  16.574  1.00  0.00     0.098 C 
BRANCH  15  16
HETATM   16  C2  UNL     1      -0.496 -14.765  16.824  1.00  0.00     0.011 C 
HETATM   17  C1  UNL     1      -0.141 -15.500  18.098  1.00  0.00     0.006 C 
ENDBRANCH  15  16
BRANCH  15  18
HETATM   18  C4  UNL     1      -2.426 -13.841  15.488  1.00  0.00     0.172 C 
BRANCH  18  19
HETATM   19  N1  UNL     1      -3.307 -12.787  15.930  1.00  0.00    -0.235 N 
BRANCH  19  20
HETATM   20  O1  UNL     1      -4.522 -13.167  16.397  1.00  0.00    -0.285 OA
ATOM     21  H1  UNL     1      -5.185 -12.489  16.461  1.00  0.00     0.245 HD
ENDBRANCH  19  20
BRANCH  19  22
HETATM   22  C5  UNL     1      -2.990 -11.409  15.909  1.00  0.00     0.376 C 
HETATM   23  O2  UNL     1      -3.004 -10.776  14.817  1.00  0.00    -0.281 OA
ENDBRANCH  19  22
ENDBRANCH  18  19
ENDBRANCH  15  18
ENDBRANCH  12  15
ENDBRANCH   1   2
BRANCH   1  24
HETATM   24  C14 UNL     1      -9.864 -18.440  14.228  1.00  0.00     0.039 C 
BRANCH  24  25
HETATM   25  C15 UNL     1     -11.337 -18.434  13.981  1.00  0.00    -0.012 C 
HETATM   26  C16 UNL     1     -12.184 -17.580  14.828  1.00  0.00     0.005 C 
HETATM   27  C17 UNL     1     -13.587 -17.992  15.094  1.00  0.00     0.000 C 
HETATM   28  C18 UNL     1     -13.969 -19.395  14.792  1.00  0.00     0.000 C 
HETATM   29  C19 UNL     1     -12.718 -20.245  15.009  1.00  0.00     0.000 C 
HETATM   30  C20 UNL     1     -11.818 -19.876  13.843  1.00  0.00     0.005 C 
ENDBRANCH  24  25
ENDBRANCH   1  24
BRANCH   1  31
HETATM   31  N4  UNL     1      -9.485 -19.398  16.421  1.00  0.00    -0.330 N 
HETATM   32  C21 UNL     1     -10.359 -19.419  17.539  1.00  0.00     0.317 C 
HETATM   33  O5  UNL     1     -11.045 -18.411  17.823  1.00  0.00    -0.247 OA
HETATM   34  N5  UNL     1     -10.463 -20.571  18.339  1.00  0.00    -0.338 N 
ATOM     35  H5  UNL     1      -9.906 -21.397  18.119  1.00  0.00     0.164 HD
ATOM     36  H4  UNL     1      -8.943 -20.229  16.181  1.00  0.00     0.165 HD
BRANCH  34  37
HETATM   37  C22 UNL     1     -11.358 -20.583  19.472  1.00  0.00     0.089 C 
HETATM   38  C23 UNL     1     -12.780 -20.646  19.045  1.00  0.00     0.045 C 
HETATM   39  C24 UNL     1     -13.142 -22.134  18.880  1.00  0.00     0.127 C 
HETATM   40  N6  UNL     1     -13.196 -22.659  20.229  1.00  0.00    -0.352 N 
HETATM   41  C25 UNL     1     -14.245 -23.539  20.584  1.00  0.00     0.215 C 
HETATM   42  C27 UNL     1     -12.164 -22.259  21.161  1.00  0.00     0.127 C 
HETATM   43  C26 UNL     1     -15.304 -23.963  19.651  1.00  0.00     0.117 C 
HETATM   44  O6  UNL     1     -14.273 -23.984  21.765  1.00  0.00    -0.274 OA
HETATM   45  C28 UNL     1     -10.976 -21.652  20.471  1.00  0.00     0.045 C 
ENDBRANCH  34  37
ENDBRANCH   1  31
TORSDOF 11
ENDMDL
