MODEL 1
REMARK VINA RESULT: -5.836006903      0.000      0.000
REMARK  13 active torsions:
REMARK  status: ('A' for Active; 'I' for Inactive)
REMARK    1  A    between atoms: O1_2  and  C2_3 
REMARK    2  A    between atoms: C2_3  and  C3_4 
REMARK    3  A    between atoms: C3_4  and  N1_5 
REMARK    4  A    between atoms: N1_5  and  C4_8 
REMARK    5  A    between atoms: C4_8  and  C5_9 
REMARK    6  A    between atoms: C5_9  and  C6_10 
REMARK    7  A    between atoms: C6_10  and  N2_11 
REMARK    8  A    between atoms: N3_25  and  C20_26 
REMARK    9  A    between atoms: C20_26  and  O2_27 
REMARK   10  A    between atoms: C21_29  and  N4_30 
REMARK       I    between atoms: N4_30  and  C22_32 
REMARK   11  A    between atoms: C27_38  and  C28_39 
REMARK   12  A    between atoms: C28_39  and  O4_40 
REMARK   13  A    between atoms: C32_46  and  O5_47 
ROOT
HETATM    1  N2  UNL     1     -10.312 -21.429  18.089  1.00  0.00    -0.360 N 
HETATM    2  C7  UNL     1      -9.148 -20.661  18.418  1.00  0.00     0.125 C 
HETATM    3  C8  UNL     1      -9.081 -20.119  19.818  1.00  0.00     0.020 C 
HETATM    4  C9  UNL     1      -8.103 -18.935  19.791  1.00  0.00     0.002 C 
HETATM    5  C10 UNL     1      -6.696 -19.342  19.501  1.00  0.00     0.000 C 
HETATM    6  C11 UNL     1      -5.842 -18.092  19.554  1.00  0.00     0.000 C 
HETATM    7  C12 UNL     1      -5.223 -17.713  18.253  1.00  0.00     0.000 C 
HETATM    8  C13 UNL     1      -6.160 -17.057  17.272  1.00  0.00     0.000 C 
HETATM    9  C14 UNL     1      -6.518 -15.647  17.599  1.00  0.00     0.000 C 
HETATM   10  C15 UNL     1      -8.001 -15.373  17.654  1.00  0.00     0.000 C 
HETATM   11  C16 UNL     1      -8.659 -15.647  16.326  1.00  0.00     0.000 C 
HETATM   12  C17 UNL     1     -10.131 -15.965  16.458  1.00  0.00     0.007 C 
HETATM   13  C18 UNL     1     -10.348 -17.493  16.454  1.00  0.00     0.012 C 
HETATM   14  C19 UNL     1     -11.261 -17.820  17.563  1.00  0.00     0.136 C 
HETATM   15  N3  UNL     1     -12.195 -18.949  17.359  1.00  0.00    -0.326 N 
HETATM   16  C24 UNL     1     -12.238 -20.197  16.732  1.00  0.00     0.065 C 
HETATM   17  C25 UNL     1     -12.425 -20.222  15.236  1.00  0.00     0.071 C 
HETATM   18  C26 UNL     1     -11.230 -20.101  14.393  1.00  0.00     0.060 C 
HETATM   19  C27 UNL     1     -11.364 -19.416  13.059  1.00  0.00     0.253 C 
HETATM   20  N5  UNL     1     -10.336 -18.472  13.314  1.00  0.00     0.101 N 
HETATM   21  C29 UNL     1     -10.608 -17.207  13.898  1.00  0.00     0.280 C 
HETATM   22  C30 UNL     1     -11.015 -17.818  15.162  1.00  0.00     0.053 C 
HETATM   23  C31 UNL     1     -10.279 -19.015  14.651  1.00  0.00     0.236 C 
HETATM   24  C32 UNL     1     -11.274 -21.263  17.096  1.00  0.00     0.161 C 
ENDROOT
BRANCH   1  25
HETATM   25  C6  UNL     1     -10.469 -22.644  18.927  1.00  0.00     0.126 C 
BRANCH  25  26
HETATM   26  C5  UNL     1     -11.868 -22.888  19.363  1.00  0.00     0.047 C 
BRANCH  26  27
HETATM   27  C4  UNL     1     -12.021 -22.237  20.743  1.00  0.00     0.234 C 
BRANCH  27  28
HETATM   28  N1  UNL     1     -13.303 -22.432  21.327  1.00  0.00    -0.073 N 
ATOM     29  H12 UNL     1     -14.032 -22.071  20.711  1.00  0.00     0.277 HD
ATOM     30  H11 UNL     1     -13.426 -21.811  22.127  1.00  0.00     0.277 HD
BRANCH  28  31
HETATM   31  C3  UNL     1     -13.595 -23.796  21.702  1.00  0.00     0.258 C 
BRANCH  31  32
HETATM   32  C2  UNL     1     -14.914 -24.169  21.076  1.00  0.00     0.194 C 
BRANCH  32  33
HETATM   33  O1  UNL     1     -14.821 -24.895  19.913  1.00  0.00    -0.394 OA
HETATM   34  C1  UNL     1     -16.029 -25.327  19.404  1.00  0.00     0.201 C 
ENDBRANCH  32  33
ENDBRANCH  31  32
ENDBRANCH  28  31
ENDBRANCH  27  28
ENDBRANCH  26  27
ENDBRANCH  25  26
ENDBRANCH   1  25
BRANCH  24  35
HETATM   35  O5  UNL     1     -11.398 -22.281  16.254  1.00  0.00    -0.345 OA
ATOM     36  H5  UNL     1     -11.717 -22.054  15.389  1.00  0.00     0.219 HD
ENDBRANCH  24  35
BRANCH  15  37
HETATM   37  C20 UNL     1     -13.318 -18.595  18.108  1.00  0.00     0.158 C 
HETATM   38  C21 UNL     1     -14.674 -19.017  18.242  1.00  0.00     0.147 C 
BRANCH  37  39
HETATM   39  O2  UNL     1     -13.128 -17.555  18.966  1.00  0.00    -0.345 OA
ATOM     40  H2  UNL     1     -12.877 -17.806  19.846  1.00  0.00     0.219 HD
ENDBRANCH  37  39
BRANCH  38  41
HETATM   41  N4  UNL     1     -15.403 -19.957  17.514  1.00  0.00    -0.333 N 
HETATM   42  C22 UNL     1     -15.393 -21.327  18.014  1.00  0.00     0.217 C 
HETATM   43  C23 UNL     1     -16.141 -22.344  17.285  1.00  0.00     0.117 C 
HETATM   44  O3  UNL     1     -14.748 -21.573  19.039  1.00  0.00    -0.274 OA
ATOM     45  H4  UNL     1     -15.919 -19.699  16.673  1.00  0.00     0.168 HD
ENDBRANCH  38  41
ENDBRANCH  15  37
BRANCH  19  46
HETATM   46  C28 UNL     1     -12.705 -18.975  12.636  1.00  0.00     0.200 C 
BRANCH  46  47
HETATM   47  O4  UNL     1     -12.565 -18.336  11.381  1.00  0.00    -0.399 OA
ATOM     48  H4  UNL     1     -13.419 -18.337  10.965  1.00  0.00     0.209 HD
ENDBRANCH  46  47
ENDBRANCH  19  46
TORSDOF 13
ENDMDL
MODEL 2
REMARK VINA RESULT: -5.498004997      5.552      9.843
REMARK  13 active torsions:
REMARK  status: ('A' for Active; 'I' for Inactive)
REMARK    1  A    between atoms: O1_2  and  C2_3 
REMARK    2  A    between atoms: C2_3  and  C3_4 
REMARK    3  A    between atoms: C3_4  and  N1_5 
REMARK    4  A    between atoms: N1_5  and  C4_8 
REMARK    5  A    between atoms: C4_8  and  C5_9 
REMARK    6  A    between atoms: C5_9  and  C6_10 
REMARK    7  A    between atoms: C6_10  and  N2_11 
REMARK    8  A    between atoms: N3_25  and  C20_26 
REMARK    9  A    between atoms: C20_26  and  O2_27 
REMARK   10  A    between atoms: C21_29  and  N4_30 
REMARK       I    between atoms: N4_30  and  C22_32 
REMARK   11  A    between atoms: C27_38  and  C28_39 
REMARK   12  A    between atoms: C28_39  and  O4_40 
REMARK   13  A    between atoms: C32_46  and  O5_47 
ROOT
HETATM    1  N2  UNL     1      -5.866 -17.808  19.488  1.00  0.00    -0.360 N 
HETATM    2  C7  UNL     1      -5.384 -16.951  18.446  1.00  0.00     0.125 C 
HETATM    3  C8  UNL     1      -5.499 -17.479  17.043  1.00  0.00     0.020 C 
HETATM    4  C9  UNL     1      -4.477 -16.710  16.193  1.00  0.00     0.002 C 
HETATM    5  C10 UNL     1      -4.803 -15.259  16.053  1.00  0.00     0.000 C 
HETATM    6  C11 UNL     1      -3.749 -14.642  15.158  1.00  0.00     0.000 C 
HETATM    7  C12 UNL     1      -2.887 -13.629  15.829  1.00  0.00     0.000 C 
HETATM    8  C13 UNL     1      -1.820 -14.199  16.728  1.00  0.00     0.000 C 
HETATM    9  C14 UNL     1      -0.667 -14.818  16.011  1.00  0.00     0.000 C 
HETATM   10  C15 UNL     1      -0.356 -16.234  16.430  1.00  0.00     0.000 C 
HETATM   11  C16 UNL     1       0.005 -16.309  17.891  1.00  0.00     0.000 C 
HETATM   12  C17 UNL     1      -0.252 -17.673  18.488  1.00  0.00     0.007 C 
HETATM   13  C18 UNL     1      -1.615 -17.691  19.210  1.00  0.00     0.012 C 
HETATM   14  C19 UNL     1      -2.331 -18.908  18.789  1.00  0.00     0.136 C 
HETATM   15  N3  UNL     1      -3.207 -19.557  19.790  1.00  0.00    -0.326 N 
HETATM   16  C24 UNL     1      -4.061 -19.214  20.841  1.00  0.00     0.065 C 
HETATM   17  C25 UNL     1      -3.432 -18.821  22.154  1.00  0.00     0.071 C 
HETATM   18  C26 UNL     1      -3.033 -17.420  22.332  1.00  0.00     0.060 C 
HETATM   19  C27 UNL     1      -1.836 -17.123  23.196  1.00  0.00     0.253 C 
HETATM   20  N5  UNL     1      -1.155 -16.386  22.194  1.00  0.00     0.101 N 
HETATM   21  C29 UNL     1      -0.248 -17.004  21.294  1.00  0.00     0.280 C 
HETATM   22  C30 UNL     1      -1.316 -17.781  20.667  1.00  0.00     0.053 C 
HETATM   23  C31 UNL     1      -2.220 -16.771  21.298  1.00  0.00     0.236 C 
HETATM   24  C32 UNL     1      -5.236 -18.339  20.610  1.00  0.00     0.161 C 
ENDROOT
BRANCH   1  25
HETATM   25  C6  UNL     1      -7.312 -18.123  19.365  1.00  0.00     0.126 C 
BRANCH  25  26
HETATM   26  C5  UNL     1      -8.189 -17.197  20.125  1.00  0.00     0.047 C 
BRANCH  26  27
HETATM   27  C4  UNL     1      -9.134 -18.069  20.962  1.00  0.00     0.234 C 
BRANCH  27  28
HETATM   28  N1  UNL     1     -10.495 -17.985  20.558  1.00  0.00    -0.073 N 
ATOM     29  H12 UNL     1     -10.723 -17.031  20.277  1.00  0.00     0.277 HD
ATOM     30  H11 UNL     1     -11.111 -18.083  21.365  1.00  0.00     0.277 HD
BRANCH  28  31
HETATM   31  C3  UNL     1     -10.875 -18.917  19.521  1.00  0.00     0.258 C 
BRANCH  31  32
HETATM   32  C2  UNL     1     -10.553 -20.304  20.014  1.00  0.00     0.194 C 
BRANCH  32  33
HETATM   33  O1  UNL     1     -11.526 -20.884  20.792  1.00  0.00    -0.394 OA
HETATM   34  C1  UNL     1     -11.259 -22.184  21.173  1.00  0.00     0.201 C 
ENDBRANCH  32  33
ENDBRANCH  31  32
ENDBRANCH  28  31
ENDBRANCH  27  28
ENDBRANCH  26  27
ENDBRANCH  25  26
ENDBRANCH   1  25
BRANCH  24  35
HETATM   35  O5  UNL     1      -5.786 -18.016  21.773  1.00  0.00    -0.345 OA
ATOM     36  H5  UNL     1      -6.402 -18.652  22.120  1.00  0.00     0.219 HD
ENDBRANCH  24  35
BRANCH  15  37
HETATM   37  C20 UNL     1      -3.142 -20.913  19.464  1.00  0.00     0.158 C 
HETATM   38  C21 UNL     1      -2.609 -22.109  20.027  1.00  0.00     0.147 C 
BRANCH  37  39
HETATM   39  O2  UNL     1      -3.732 -21.245  18.283  1.00  0.00    -0.345 OA
ATOM     40  H2  UNL     1      -3.127 -21.446  17.579  1.00  0.00     0.219 HD
ENDBRANCH  37  39
BRANCH  38  41
HETATM   41  N4  UNL     1      -1.814 -22.299  21.158  1.00  0.00    -0.333 N 
HETATM   42  C22 UNL     1      -1.992 -23.551  21.884  1.00  0.00     0.217 C 
HETATM   43  C23 UNL     1      -1.184 -23.793  23.072  1.00  0.00     0.117 C 
HETATM   44  O3  UNL     1      -2.826 -24.360  21.462  1.00  0.00    -0.274 OA
ATOM     45  H4  UNL     1      -1.139 -21.597  21.462  1.00  0.00     0.168 HD
ENDBRANCH  38  41
ENDBRANCH  15  37
BRANCH  19  46
HETATM   46  C28 UNL     1      -1.178 -18.250  23.882  1.00  0.00     0.200 C 
BRANCH  46  47
HETATM   47  O4  UNL     1      -1.381 -18.076  25.271  1.00  0.00    -0.399 OA
ATOM     48  H4  UNL     1      -1.246 -18.920  25.686  1.00  0.00     0.209 HD
ENDBRANCH  46  47
ENDBRANCH  19  46
TORSDOF 13
ENDMDL
MODEL 3
REMARK VINA RESULT: -5.494875299      5.517      9.980
REMARK  13 active torsions:
REMARK  status: ('A' for Active; 'I' for Inactive)
REMARK    1  A    between atoms: O1_2  and  C2_3 
REMARK    2  A    between atoms: C2_3  and  C3_4 
REMARK    3  A    between atoms: C3_4  and  N1_5 
REMARK    4  A    between atoms: N1_5  and  C4_8 
REMARK    5  A    between atoms: C4_8  and  C5_9 
REMARK    6  A    between atoms: C5_9  and  C6_10 
REMARK    7  A    between atoms: C6_10  and  N2_11 
REMARK    8  A    between atoms: N3_25  and  C20_26 
REMARK    9  A    between atoms: C20_26  and  O2_27 
REMARK   10  A    between atoms: C21_29  and  N4_30 
REMARK       I    between atoms: N4_30  and  C22_32 
REMARK   11  A    between atoms: C27_38  and  C28_39 
REMARK   12  A    between atoms: C28_39  and  O4_40 
REMARK   13  A    between atoms: C32_46  and  O5_47 
ROOT
HETATM    1  N2  UNL     1      -5.872 -17.795  19.489  1.00  0.00    -0.360 N 
HETATM    2  C7  UNL     1      -5.385 -16.936  18.451  1.00  0.00     0.125 C 
HETATM    3  C8  UNL     1      -5.485 -17.463  17.047  1.00  0.00     0.020 C 
HETATM    4  C9  UNL     1      -4.460 -16.687  16.207  1.00  0.00     0.002 C 
HETATM    5  C10 UNL     1      -4.792 -15.239  16.065  1.00  0.00     0.000 C 
HETATM    6  C11 UNL     1      -3.734 -14.615  15.179  1.00  0.00     0.000 C 
HETATM    7  C12 UNL     1      -2.883 -13.598  15.858  1.00  0.00     0.000 C 
HETATM    8  C13 UNL     1      -1.821 -14.163  16.765  1.00  0.00     0.000 C 
HETATM    9  C14 UNL     1      -0.659 -14.775  16.059  1.00  0.00     0.000 C 
HETATM   10  C15 UNL     1      -0.344 -16.190  16.479  1.00  0.00     0.000 C 
HETATM   11  C16 UNL     1       0.005 -16.263  17.943  1.00  0.00     0.000 C 
HETATM   12  C17 UNL     1      -0.250 -17.630  18.537  1.00  0.00     0.007 C 
HETATM   13  C18 UNL     1      -1.619 -17.656  19.247  1.00  0.00     0.012 C 
HETATM   14  C19 UNL     1      -2.325 -18.876  18.820  1.00  0.00     0.136 C 
HETATM   15  N3  UNL     1      -3.206 -19.531  19.812  1.00  0.00    -0.326 N 
HETATM   16  C24 UNL     1      -4.071 -19.192  20.856  1.00  0.00     0.065 C 
HETATM   17  C25 UNL     1      -3.455 -18.797  22.175  1.00  0.00     0.071 C 
HETATM   18  C26 UNL     1      -3.065 -17.395  22.357  1.00  0.00     0.060 C 
HETATM   19  C27 UNL     1      -1.878 -17.092  23.232  1.00  0.00     0.253 C 
HETATM   20  N5  UNL     1      -1.192 -16.350  22.237  1.00  0.00     0.101 N 
HETATM   21  C29 UNL     1      -0.273 -16.963  21.344  1.00  0.00     0.280 C 
HETATM   22  C30 UNL     1      -1.332 -17.745  20.707  1.00  0.00     0.053 C 
HETATM   23  C31 UNL     1      -2.247 -16.740  21.331  1.00  0.00     0.236 C 
HETATM   24  C32 UNL     1      -5.248 -18.324  20.616  1.00  0.00     0.161 C 
ENDROOT
BRANCH   1  25
HETATM   25  C6  UNL     1      -7.315 -18.119  19.353  1.00  0.00     0.126 C 
BRANCH  25  26
HETATM   26  C5  UNL     1      -8.206 -17.171  20.070  1.00  0.00     0.047 C 
BRANCH  26  27
HETATM   27  C4  UNL     1      -9.139 -18.018  20.945  1.00  0.00     0.234 C 
BRANCH  27  28
HETATM   28  N1  UNL     1     -10.502 -17.965  20.543  1.00  0.00    -0.073 N 
ATOM     29  H12 UNL     1     -10.735 -17.032  20.203  1.00  0.00     0.277 HD
ATOM     30  H11 UNL     1     -11.114 -18.014  21.357  1.00  0.00     0.277 HD
BRANCH  28  31
HETATM   31  C3  UNL     1     -10.883 -18.963  19.569  1.00  0.00     0.258 C 
BRANCH  31  32
HETATM   32  C2  UNL     1     -11.686 -18.271  18.498  1.00  0.00     0.194 C 
BRANCH  32  33
HETATM   33  O1  UNL     1     -10.950 -17.513  17.619  1.00  0.00    -0.394 OA
HETATM   34  C1  UNL     1     -10.079 -18.233  16.825  1.00  0.00     0.201 C 
ENDBRANCH  32  33
ENDBRANCH  31  32
ENDBRANCH  28  31
ENDBRANCH  27  28
ENDBRANCH  26  27
ENDBRANCH  25  26
ENDBRANCH   1  25
BRANCH  24  35
HETATM   35  O5  UNL     1      -5.810 -18.005  21.774  1.00  0.00    -0.345 OA
ATOM     36  H5  UNL     1      -6.662 -18.394  21.931  1.00  0.00     0.219 HD
ENDBRANCH  24  35
BRANCH  15  37
HETATM   37  C20 UNL     1      -3.130 -20.885  19.486  1.00  0.00     0.158 C 
HETATM   38  C21 UNL     1      -2.591 -22.079  20.050  1.00  0.00     0.147 C 
BRANCH  37  39
HETATM   39  O2  UNL     1      -3.715 -21.221  18.303  1.00  0.00    -0.345 OA
ATOM     40  H2  UNL     1      -3.891 -22.148  18.196  1.00  0.00     0.219 HD
ENDBRANCH  37  39
BRANCH  38  41
HETATM   41  N4  UNL     1      -1.797 -22.264  21.183  1.00  0.00    -0.333 N 
HETATM   42  C22 UNL     1      -1.978 -23.512  21.915  1.00  0.00     0.217 C 
HETATM   43  C23 UNL     1      -1.172 -23.748  23.106  1.00  0.00     0.117 C 
HETATM   44  O3  UNL     1      -2.812 -24.322  21.496  1.00  0.00    -0.274 OA
ATOM     45  H4  UNL     1      -1.123 -21.560  21.485  1.00  0.00     0.168 HD
ENDBRANCH  38  41
ENDBRANCH  15  37
BRANCH  19  46
HETATM   46  C28 UNL     1      -1.220 -18.215  23.923  1.00  0.00     0.200 C 
BRANCH  46  47
HETATM   47  O4  UNL     1      -1.777 -18.298  25.221  1.00  0.00    -0.399 OA
ATOM     48  H4  UNL     1      -1.284 -18.954  25.700  1.00  0.00     0.209 HD
ENDBRANCH  46  47
ENDBRANCH  19  46
TORSDOF 13
ENDMDL
MODEL 4
REMARK VINA RESULT: -5.200977555      8.554     13.691
REMARK  13 active torsions:
REMARK  status: ('A' for Active; 'I' for Inactive)
REMARK    1  A    between atoms: O1_2  and  C2_3 
REMARK    2  A    between atoms: C2_3  and  C3_4 
REMARK    3  A    between atoms: C3_4  and  N1_5 
REMARK    4  A    between atoms: N1_5  and  C4_8 
REMARK    5  A    between atoms: C4_8  and  C5_9 
REMARK    6  A    between atoms: C5_9  and  C6_10 
REMARK    7  A    between atoms: C6_10  and  N2_11 
REMARK    8  A    between atoms: N3_25  and  C20_26 
REMARK    9  A    between atoms: C20_26  and  O2_27 
REMARK   10  A    between atoms: C21_29  and  N4_30 
REMARK       I    between atoms: N4_30  and  C22_32 
REMARK   11  A    between atoms: C27_38  and  C28_39 
REMARK   12  A    between atoms: C28_39  and  O4_40 
REMARK   13  A    between atoms: C32_46  and  O5_47 
ROOT
HETATM    1  N2  UNL     1     -17.706 -26.044  12.935  1.00  0.00    -0.360 N 
HETATM    2  C7  UNL     1     -17.410 -26.832  11.776  1.00  0.00     0.125 C 
HETATM    3  C8  UNL     1     -17.557 -26.145  10.447  1.00  0.00     0.020 C 
HETATM    4  C9  UNL     1     -17.736 -27.248   9.393  1.00  0.00     0.002 C 
HETATM    5  C10 UNL     1     -16.519 -28.096   9.220  1.00  0.00     0.000 C 
HETATM    6  C11 UNL     1     -16.818 -29.099   8.125  1.00  0.00     0.000 C 
HETATM    7  C12 UNL     1     -16.843 -30.518   8.580  1.00  0.00     0.000 C 
HETATM    8  C13 UNL     1     -18.090 -30.924   9.322  1.00  0.00     0.000 C 
HETATM    9  C14 UNL     1     -19.297 -31.098   8.464  1.00  0.00     0.000 C 
HETATM   10  C15 UNL     1     -20.503 -30.309   8.913  1.00  0.00     0.000 C 
HETATM   11  C16 UNL     1     -20.943 -30.716  10.296  1.00  0.00     0.000 C 
HETATM   12  C17 UNL     1     -21.708 -29.625  11.011  1.00  0.00     0.007 C 
HETATM   13  C18 UNL     1     -20.766 -28.841  11.948  1.00  0.00     0.012 C 
HETATM   14  C19 UNL     1     -21.006 -27.405  11.729  1.00  0.00     0.136 C 
HETATM   15  N3  UNL     1     -20.869 -26.510  12.899  1.00  0.00    -0.326 N 
HETATM   16  C24 UNL     1     -20.094 -26.377  14.054  1.00  0.00     0.065 C 
HETATM   17  C25 UNL     1     -20.411 -27.282  15.218  1.00  0.00     0.071 C 
HETATM   18  C26 UNL     1     -19.793 -28.613  15.240  1.00  0.00     0.060 C 
HETATM   19  C27 UNL     1     -20.557 -29.745  15.873  1.00  0.00     0.253 C 
HETATM   20  N5  UNL     1     -20.491 -30.579  14.728  1.00  0.00     0.101 N 
HETATM   21  C29 UNL     1     -21.501 -30.566  13.730  1.00  0.00     0.280 C 
HETATM   22  C30 UNL     1     -21.169 -29.196  13.338  1.00  0.00     0.053 C 
HETATM   23  C31 UNL     1     -19.880 -29.462  14.047  1.00  0.00     0.236 C 
HETATM   24  C32 UNL     1     -18.621 -26.232  13.967  1.00  0.00     0.161 C 
ENDROOT
BRANCH   1  25
HETATM   25  C6  UNL     1     -16.830 -24.853  13.073  1.00  0.00     0.126 C 
BRANCH  25  26
HETATM   26  C5  UNL     1     -17.578 -23.589  13.293  1.00  0.00     0.047 C 
BRANCH  26  27
HETATM   27  C4  UNL     1     -16.914 -22.882  14.481  1.00  0.00     0.234 C 
BRANCH  27  28
HETATM   28  N1  UNL     1     -16.919 -23.652  15.677  1.00  0.00    -0.073 N 
ATOM     29  H12 UNL     1     -16.120 -24.286  15.694  1.00  0.00     0.277 HD
ATOM     30  H11 UNL     1     -17.681 -24.330  15.659  1.00  0.00     0.277 HD
BRANCH  28  31
HETATM   31  C3  UNL     1     -16.967 -22.875  16.895  1.00  0.00     0.258 C 
BRANCH  31  32
HETATM   32  C2  UNL     1     -17.833 -23.621  17.877  1.00  0.00     0.194 C 
BRANCH  32  33
HETATM   33  O1  UNL     1     -17.247 -23.872  19.094  1.00  0.00    -0.394 OA
HETATM   34  C1  UNL     1     -15.889 -23.631  19.141  1.00  0.00     0.201 C 
ENDBRANCH  32  33
ENDBRANCH  31  32
ENDBRANCH  28  31
ENDBRANCH  27  28
ENDBRANCH  26  27
ENDBRANCH  25  26
ENDBRANCH   1  25
BRANCH  24  35
HETATM   35  O5  UNL     1     -18.095 -26.298  15.184  1.00  0.00    -0.345 OA
ATOM     36  H5  UNL     1     -18.271 -25.549  15.742  1.00  0.00     0.219 HD
ENDBRANCH  24  35
BRANCH  15  37
HETATM   37  C20 UNL     1     -21.790 -25.491  12.652  1.00  0.00     0.158 C 
HETATM   38  C21 UNL     1     -22.100 -24.581  11.599  1.00  0.00     0.147 C 
BRANCH  37  39
HETATM   39  O2  UNL     1     -22.660 -25.247  13.671  1.00  0.00    -0.345 OA
ATOM     40  H2  UNL     1     -23.415 -24.724  13.433  1.00  0.00     0.219 HD
ENDBRANCH  37  39
BRANCH  38  41
HETATM   41  N4  UNL     1     -21.442 -24.337  10.393  1.00  0.00    -0.333 N 
HETATM   42  C22 UNL     1     -21.257 -22.940  10.017  1.00  0.00     0.217 C 
HETATM   43  C23 UNL     1     -20.575 -22.637   8.765  1.00  0.00     0.117 C 
HETATM   44  O3  UNL     1     -21.688 -22.066  10.776  1.00  0.00    -0.274 OA
ATOM     45  H4  UNL     1     -21.105 -25.098   9.803  1.00  0.00     0.168 HD
ENDBRANCH  38  41
ENDBRANCH  15  37
BRANCH  19  46
HETATM   46  C28 UNL     1     -21.851 -29.439  16.509  1.00  0.00     0.200 C 
BRANCH  46  47
HETATM   47  O4  UNL     1     -21.867 -30.083  17.768  1.00  0.00    -0.399 OA
ATOM     48  H4  UNL     1     -21.774 -31.015  17.612  1.00  0.00     0.209 HD
ENDBRANCH  46  47
ENDBRANCH  19  46
TORSDOF 13
ENDMDL
MODEL 5
REMARK VINA RESULT: -4.833350173      1.697      2.340
REMARK  13 active torsions:
REMARK  status: ('A' for Active; 'I' for Inactive)
REMARK    1  A    between atoms: O1_2  and  C2_3 
REMARK    2  A    between atoms: C2_3  and  C3_4 
REMARK    3  A    between atoms: C3_4  and  N1_5 
REMARK    4  A    between atoms: N1_5  and  C4_8 
REMARK    5  A    between atoms: C4_8  and  C5_9 
REMARK    6  A    between atoms: C5_9  and  C6_10 
REMARK    7  A    between atoms: C6_10  and  N2_11 
REMARK    8  A    between atoms: N3_25  and  C20_26 
REMARK    9  A    between atoms: C20_26  and  O2_27 
REMARK   10  A    between atoms: C21_29  and  N4_30 
REMARK       I    between atoms: N4_30  and  C22_32 
REMARK   11  A    between atoms: C27_38  and  C28_39 
REMARK   12  A    between atoms: C28_39  and  O4_40 
REMARK   13  A    between atoms: C32_46  and  O5_47 
ROOT
HETATM    1  N2  UNL     1      -9.935 -20.807  18.113  1.00  0.00    -0.360 N 
HETATM    2  C7  UNL     1      -9.109 -19.697  17.741  1.00  0.00     0.125 C 
HETATM    3  C8  UNL     1      -8.980 -18.593  18.753  1.00  0.00     0.020 C 
HETATM    4  C9  UNL     1      -8.550 -17.334  17.985  1.00  0.00     0.002 C 
HETATM    5  C10 UNL     1      -7.179 -17.442  17.403  1.00  0.00     0.000 C 
HETATM    6  C11 UNL     1      -6.870 -16.123  16.724  1.00  0.00     0.000 C 
HETATM    7  C12 UNL     1      -6.707 -16.214  15.246  1.00  0.00     0.000 C 
HETATM    8  C13 UNL     1      -7.994 -16.335  14.472  1.00  0.00     0.000 C 
HETATM    9  C14 UNL     1      -8.789 -15.076  14.384  1.00  0.00     0.000 C 
HETATM   10  C15 UNL     1     -10.224 -15.208  14.832  1.00  0.00     0.000 C 
HETATM   11  C16 UNL     1     -10.974 -16.205  13.988  1.00  0.00     0.000 C 
HETATM   12  C17 UNL     1     -12.159 -16.806  14.708  1.00  0.00     0.007 C 
HETATM   13  C18 UNL     1     -11.777 -18.173  15.314  1.00  0.00     0.012 C 
HETATM   14  C19 UNL     1     -12.263 -18.200  16.705  1.00  0.00     0.136 C 
HETATM   15  N3  UNL     1     -12.720 -19.504  17.236  1.00  0.00    -0.326 N 
HETATM   16  C24 UNL     1     -12.408 -20.862  17.140  1.00  0.00     0.065 C 
HETATM   17  C25 UNL     1     -12.859 -21.598  15.903  1.00  0.00     0.071 C 
HETATM   18  C26 UNL     1     -11.988 -21.555  14.723  1.00  0.00     0.060 C 
HETATM   19  C27 UNL     1     -12.628 -21.596  13.361  1.00  0.00     0.253 C 
HETATM   20  N5  UNL     1     -12.007 -20.405  12.908  1.00  0.00     0.101 N 
HETATM   21  C29 UNL     1     -12.619 -19.133  13.066  1.00  0.00     0.280 C 
HETATM   22  C30 UNL     1     -12.509 -19.201  14.522  1.00  0.00     0.053 C 
HETATM   23  C31 UNL     1     -11.489 -20.260  14.249  1.00  0.00     0.236 C 
HETATM   24  C32 UNL     1     -11.062 -21.360  17.509  1.00  0.00     0.161 C 
ENDROOT
BRANCH   1  25
HETATM   25  C6  UNL     1      -9.453 -21.516  19.325  1.00  0.00     0.126 C 
BRANCH  25  26
HETATM   26  C5  UNL     1     -10.544 -22.123  20.131  1.00  0.00     0.047 C 
BRANCH  26  27
HETATM   27  C4  UNL     1     -11.344 -20.963  20.737  1.00  0.00     0.234 C 
BRANCH  27  28
HETATM   28  N1  UNL     1     -12.673 -21.315  21.100  1.00  0.00    -0.073 N 
ATOM     29  H12 UNL     1     -13.329 -21.014  20.378  1.00  0.00     0.277 HD
ATOM     30  H11 UNL     1     -12.992 -20.740  21.878  1.00  0.00     0.277 HD
BRANCH  28  31
HETATM   31  C3  UNL     1     -12.867 -22.715  21.399  1.00  0.00     0.258 C 
BRANCH  31  32
HETATM   32  C2  UNL     1     -14.154 -23.147  20.747  1.00  0.00     0.194 C 
BRANCH  32  33
HETATM   33  O1  UNL     1     -14.134 -23.158  19.372  1.00  0.00    -0.394 OA
HETATM   34  C1  UNL     1     -13.535 -24.270  18.813  1.00  0.00     0.201 C 
ENDBRANCH  32  33
ENDBRANCH  31  32
ENDBRANCH  28  31
ENDBRANCH  27  28
ENDBRANCH  26  27
ENDBRANCH  25  26
ENDBRANCH   1  25
BRANCH  24  35
HETATM   35  O5  UNL     1     -10.952 -22.638  17.172  1.00  0.00    -0.345 OA
ATOM     36  H5  UNL     1     -10.273 -23.121  17.630  1.00  0.00     0.219 HD
ENDBRANCH  24  35
BRANCH  15  37
HETATM   37  C20 UNL     1     -13.725 -19.163  18.143  1.00  0.00     0.158 C 
HETATM   38  C21 UNL     1     -14.904 -19.754  18.683  1.00  0.00     0.147 C 
BRANCH  37  39
HETATM   39  O2  UNL     1     -13.599 -17.925  18.695  1.00  0.00    -0.345 OA
ATOM     40  H2  UNL     1     -13.953 -17.843  19.572  1.00  0.00     0.219 HD
ENDBRANCH  37  39
BRANCH  38  41
HETATM   41  N4  UNL     1     -15.542 -20.953  18.362  1.00  0.00    -0.333 N 
HETATM   42  C22 UNL     1     -16.015 -21.099  16.991  1.00  0.00     0.217 C 
HETATM   43  C23 UNL     1     -16.688 -22.334  16.610  1.00  0.00     0.117 C 
HETATM   44  O3  UNL     1     -15.826 -20.166  16.203  1.00  0.00    -0.274 OA
ATOM     45  H4  UNL     1     -15.671 -21.692  19.054  1.00  0.00     0.168 HD
ENDBRANCH  38  41
ENDBRANCH  15  37
BRANCH  19  46
HETATM   46  C28 UNL     1     -14.091 -21.760  13.286  1.00  0.00     0.200 C 
BRANCH  46  47
HETATM   47  O4  UNL     1     -14.367 -23.146  13.346  1.00  0.00    -0.399 OA
ATOM     48  H4  UNL     1     -14.662 -23.415  12.485  1.00  0.00     0.209 HD
ENDBRANCH  46  47
ENDBRANCH  19  46
TORSDOF 13
ENDMDL
