MODEL 1
REMARK VINA RESULT: -9.483075174      0.000      0.000
REMARK  10 active torsions:
REMARK  status: ('A' for Active; 'I' for Inactive)
REMARK    1  A    between atoms: C1_2  and  C2_4 
REMARK    2  A    between atoms: C2_4  and  C3_5 
REMARK    3  A    between atoms: C3_5  and  C4_6 
REMARK    4  A    between atoms: C4_6  and  N1_7 
REMARK    5  A    between atoms: C4_6  and  C25_37 
REMARK       I    between atoms: N1_7  and  C5_9 
REMARK    6  A    between atoms: C5_9  and  C6_11 
REMARK       I    between atoms: N2_16  and  C11_17 
REMARK    7  A    between atoms: C11_17  and  C12_19 
REMARK    8  A    between atoms: C12_19  and  C13_20 
REMARK    9  A    between atoms: C12_19  and  N3_27 
REMARK   10  A    between atoms: C13_20  and  C14_21 
REMARK       I    between atoms: N3_27  and  C20_29 
REMARK       I    between atoms: C20_29  and  N4_31 
REMARK       I    between atoms: C25_37  and  N5_39 
ROOT
HETATM    1  C6  UNL     1      -8.159 -16.048  16.424  1.00  0.00     0.179 C 
HETATM    2  C7  UNL     1      -7.249 -15.995  15.219  1.00  0.00     0.035 C 
HETATM    3  C8  UNL     1      -8.013 -15.248  14.129  1.00  0.00     0.004 C 
HETATM    4  C9  UNL     1      -9.254 -15.972  13.763  1.00  0.00     0.020 C 
HETATM    5  C10 UNL     1     -10.086 -16.354  14.960  1.00  0.00     0.127 C 
HETATM    6  N2  UNL     1      -9.288 -16.853  16.085  1.00  0.00    -0.337 N 
HETATM    7  C11 UNL     1      -9.676 -18.070  16.687  1.00  0.00     0.243 C 
HETATM    8  O4  UNL     1      -8.957 -18.601  17.616  1.00  0.00    -0.271 OA
ENDROOT
BRANCH   1   9
HETATM    9  C5  UNL     1      -7.497 -16.265  17.691  1.00  0.00     0.241 C 
HETATM   10  N1  UNL     1      -6.495 -17.253  17.856  1.00  0.00    -0.346 N 
ATOM     11  H1  UNL     1      -6.240 -17.815  17.043  1.00  0.00     0.163 HD
HETATM   12  O3  UNL     1      -7.791 -15.585  18.703  1.00  0.00    -0.271 OA
BRANCH  10  13
HETATM   13  C4  UNL     1      -5.804 -17.518  19.114  1.00  0.00     0.177 C 
BRANCH  13  14
HETATM   14  C3  UNL     1      -6.446 -18.731  19.784  1.00  0.00     0.045 C 
BRANCH  14  15
HETATM   15  C2  UNL     1      -6.784 -18.429  21.215  1.00  0.00     0.116 C 
BRANCH  15  16
HETATM   16  C1  UNL     1      -8.098 -17.712  21.317  1.00  0.00     0.172 C 
HETATM   17  O1  UNL     1      -8.129 -16.555  21.781  1.00  0.00    -0.648 OA
HETATM   18  O2  UNL     1      -9.249 -18.353  20.892  1.00  0.00    -0.648 OA
ENDBRANCH  15  16
ENDBRANCH  14  15
ENDBRANCH  13  14
BRANCH  13  19
HETATM   19  C25 UNL     1      -4.415 -17.895  18.762  1.00  0.00     0.242 C 
HETATM   20  O7  UNL     1      -4.097 -19.103  18.984  1.00  0.00    -0.271 OA
HETATM   21  N5  UNL     1      -3.448 -17.040  18.214  1.00  0.00    -0.350 N 
HETATM   22  C26 UNL     1      -3.655 -15.657  17.851  1.00  0.00     0.126 C 
HETATM   23  C30 UNL     1      -2.077 -17.530  17.972  1.00  0.00     0.126 C 
HETATM   24  C27 UNL     1      -3.490 -15.531  16.354  1.00  0.00     0.020 C 
HETATM   25  C28 UNL     1      -3.046 -16.840  15.778  1.00  0.00     0.003 C 
HETATM   26  C29 UNL     1      -1.816 -17.390  16.478  1.00  0.00     0.020 C 
ENDBRANCH  13  19
ENDBRANCH  10  13
ENDBRANCH   1   9
BRANCH   7  27
HETATM   27  C12 UNL     1     -10.889 -18.831  16.356  1.00  0.00     0.179 C 
BRANCH  27  28
HETATM   28  C13 UNL     1     -10.940 -19.577  15.089  1.00  0.00     0.039 C 
BRANCH  28  29
HETATM   29  C14 UNL     1     -12.153 -19.650  14.260  1.00  0.00    -0.012 C 
HETATM   30  C15 UNL     1     -12.755 -20.978  13.977  1.00  0.00     0.005 C 
HETATM   31  C16 UNL     1     -13.291 -21.625  15.257  1.00  0.00     0.000 C 
HETATM   32  C17 UNL     1     -14.497 -20.818  15.685  1.00  0.00     0.000 C 
HETATM   33  C18 UNL     1     -14.567 -19.481  15.013  1.00  0.00     0.000 C 
HETATM   34  C19 UNL     1     -13.265 -18.772  14.863  1.00  0.00     0.005 C 
ENDBRANCH  28  29
ENDBRANCH  27  28
BRANCH  27  35
HETATM   35  N3  UNL     1     -10.890 -19.915  17.402  1.00  0.00    -0.330 N 
HETATM   36  C20 UNL     1     -11.920 -19.988  18.344  1.00  0.00     0.319 C 
HETATM   37  O5  UNL     1     -12.849 -19.102  18.265  1.00  0.00    -0.247 OA
HETATM   38  N4  UNL     1     -12.039 -20.928  19.363  1.00  0.00    -0.330 N 
HETATM   39  C21 UNL     1     -13.146 -20.893  20.287  1.00  0.00     0.153 C 
HETATM   40  C24 UNL     1     -11.077 -22.016  19.583  1.00  0.00     0.153 C 
HETATM   41  C22 UNL     1     -13.572 -22.355  20.467  1.00  0.00     0.187 C 
HETATM   42  O6  UNL     1     -13.212 -23.128  19.377  1.00  0.00    -0.388 OA
HETATM   43  C23 UNL     1     -11.837 -23.293  19.231  1.00  0.00     0.187 C 
ATOM     44  H3  UNL     1     -10.135 -20.600  17.423  1.00  0.00     0.165 HD
ENDBRANCH  27  35
ENDBRANCH   7  27
TORSDOF 10
ENDMDL
MODEL 2
REMARK VINA RESULT: -9.135980382      0.996      1.291
REMARK  10 active torsions:
REMARK  status: ('A' for Active; 'I' for Inactive)
REMARK    1  A    between atoms: C1_2  and  C2_4 
REMARK    2  A    between atoms: C2_4  and  C3_5 
REMARK    3  A    between atoms: C3_5  and  C4_6 
REMARK    4  A    between atoms: C4_6  and  N1_7 
REMARK    5  A    between atoms: C4_6  and  C25_37 
REMARK       I    between atoms: N1_7  and  C5_9 
REMARK    6  A    between atoms: C5_9  and  C6_11 
REMARK       I    between atoms: N2_16  and  C11_17 
REMARK    7  A    between atoms: C11_17  and  C12_19 
REMARK    8  A    between atoms: C12_19  and  C13_20 
REMARK    9  A    between atoms: C12_19  and  N3_27 
REMARK   10  A    between atoms: C13_20  and  C14_21 
REMARK       I    between atoms: N3_27  and  C20_29 
REMARK       I    between atoms: C20_29  and  N4_31 
REMARK       I    between atoms: C25_37  and  N5_39 
ROOT
HETATM    1  C6  UNL     1      -7.953 -16.202  16.528  1.00  0.00     0.179 C 
HETATM    2  C7  UNL     1      -7.218 -16.219  15.208  1.00  0.00     0.035 C 
HETATM    3  C8  UNL     1      -8.116 -15.507  14.200  1.00  0.00     0.004 C 
HETATM    4  C9  UNL     1      -9.404 -16.225  14.041  1.00  0.00     0.020 C 
HETATM    5  C10 UNL     1     -10.067 -16.539  15.357  1.00  0.00     0.127 C 
HETATM    6  N2  UNL     1      -9.128 -17.002  16.383  1.00  0.00    -0.337 N 
HETATM    7  C11 UNL     1      -9.444 -18.185  17.088  1.00  0.00     0.243 C 
HETATM    8  O4  UNL     1      -8.610 -18.687  17.933  1.00  0.00    -0.271 OA
ENDROOT
BRANCH   1   9
HETATM    9  C5  UNL     1      -7.127 -16.375  17.701  1.00  0.00     0.241 C 
HETATM   10  N1  UNL     1      -6.029 -17.271  17.720  1.00  0.00    -0.346 N 
ATOM     11  H1  UNL     1      -5.826 -17.797  16.871  1.00  0.00     0.163 HD
HETATM   12  O3  UNL     1      -7.353 -15.737  18.756  1.00  0.00    -0.271 OA
BRANCH  10  13
HETATM   13  C4  UNL     1      -5.169 -17.489  18.880  1.00  0.00     0.177 C 
BRANCH  13  14
HETATM   14  C3  UNL     1      -5.688 -18.695  19.660  1.00  0.00     0.045 C 
BRANCH  14  15
HETATM   15  C2  UNL     1      -6.166 -18.281  21.021  1.00  0.00     0.116 C 
BRANCH  15  16
HETATM   16  C1  UNL     1      -5.072 -18.412  22.038  1.00  0.00     0.172 C 
HETATM   17  O1  UNL     1      -5.235 -17.930  23.177  1.00  0.00    -0.648 OA
HETATM   18  O2  UNL     1      -3.901 -19.064  21.688  1.00  0.00    -0.648 OA
ENDBRANCH  15  16
ENDBRANCH  14  15
ENDBRANCH  13  14
BRANCH  13  19
HETATM   19  C25 UNL     1      -3.832 -17.849  18.354  1.00  0.00     0.242 C 
HETATM   20  O7  UNL     1      -3.541 -19.083  18.378  1.00  0.00    -0.271 OA
HETATM   21  N5  UNL     1      -2.885 -16.950  17.841  1.00  0.00    -0.350 N 
HETATM   22  C26 UNL     1      -3.071 -15.525  17.690  1.00  0.00     0.126 C 
HETATM   23  C30 UNL     1      -1.560 -17.436  17.409  1.00  0.00     0.126 C 
HETATM   24  C27 UNL     1      -3.034 -15.196  16.216  1.00  0.00     0.020 C 
HETATM   25  C28 UNL     1      -2.691 -16.423  15.428  1.00  0.00     0.003 C 
HETATM   26  C29 UNL     1      -1.426 -17.096  15.930  1.00  0.00     0.020 C 
ENDBRANCH  13  19
ENDBRANCH  10  13
ENDBRANCH   1   9
BRANCH   7  27
HETATM   27  C12 UNL     1     -10.699 -18.938  16.962  1.00  0.00     0.179 C 
BRANCH  27  28
HETATM   28  C13 UNL     1     -10.819 -19.951  15.903  1.00  0.00     0.039 C 
BRANCH  28  29
HETATM   29  C14 UNL     1     -11.766 -19.819  14.784  1.00  0.00    -0.012 C 
HETATM   30  C15 UNL     1     -12.482 -21.027  14.298  1.00  0.00     0.005 C 
HETATM   31  C16 UNL     1     -13.435 -21.570  15.367  1.00  0.00     0.000 C 
HETATM   32  C17 UNL     1     -14.562 -20.569  15.499  1.00  0.00     0.000 C 
HETATM   33  C18 UNL     1     -14.231 -19.241  14.889  1.00  0.00     0.000 C 
HETATM   34  C19 UNL     1     -12.838 -18.764  15.113  1.00  0.00     0.005 C 
ENDBRANCH  28  29
ENDBRANCH  27  28
BRANCH  27  35
HETATM   35  N3  UNL     1     -10.721 -19.751  18.230  1.00  0.00    -0.330 N 
HETATM   36  C20 UNL     1     -11.932 -20.039  18.865  1.00  0.00     0.319 C 
HETATM   37  O5  UNL     1     -13.003 -19.587  18.316  1.00  0.00    -0.247 OA
HETATM   38  N4  UNL     1     -12.093 -20.769  20.039  1.00  0.00    -0.330 N 
HETATM   39  C21 UNL     1     -13.400 -20.990  20.608  1.00  0.00     0.153 C 
HETATM   40  C24 UNL     1     -10.979 -21.370  20.783  1.00  0.00     0.153 C 
HETATM   41  C22 UNL     1     -13.402 -22.452  21.068  1.00  0.00     0.187 C 
HETATM   42  O6  UNL     1     -12.486 -23.210  20.359  1.00  0.00    -0.388 OA
HETATM   43  C23 UNL     1     -11.158 -22.877  20.614  1.00  0.00     0.187 C 
ATOM     44  H3  UNL     1      -9.846 -20.094  18.627  1.00  0.00     0.165 HD
ENDBRANCH  27  35
ENDBRANCH   7  27
TORSDOF 10
ENDMDL
MODEL 3
REMARK VINA RESULT: -9.127398081      0.833      1.329
REMARK  10 active torsions:
REMARK  status: ('A' for Active; 'I' for Inactive)
REMARK    1  A    between atoms: C1_2  and  C2_4 
REMARK    2  A    between atoms: C2_4  and  C3_5 
REMARK    3  A    between atoms: C3_5  and  C4_6 
REMARK    4  A    between atoms: C4_6  and  N1_7 
REMARK    5  A    between atoms: C4_6  and  C25_37 
REMARK       I    between atoms: N1_7  and  C5_9 
REMARK    6  A    between atoms: C5_9  and  C6_11 
REMARK       I    between atoms: N2_16  and  C11_17 
REMARK    7  A    between atoms: C11_17  and  C12_19 
REMARK    8  A    between atoms: C12_19  and  C13_20 
REMARK    9  A    between atoms: C12_19  and  N3_27 
REMARK   10  A    between atoms: C13_20  and  C14_21 
REMARK       I    between atoms: N3_27  and  C20_29 
REMARK       I    between atoms: C20_29  and  N4_31 
REMARK       I    between atoms: C25_37  and  N5_39 
ROOT
HETATM    1  C6  UNL     1      -7.786 -16.113  16.579  1.00  0.00     0.179 C 
HETATM    2  C7  UNL     1      -7.013 -16.222  15.286  1.00  0.00     0.035 C 
HETATM    3  C8  UNL     1      -7.824 -15.476  14.230  1.00  0.00     0.004 C 
HETATM    4  C9  UNL     1      -9.156 -16.102  14.047  1.00  0.00     0.020 C 
HETATM    5  C10 UNL     1      -9.881 -16.328  15.348  1.00  0.00     0.127 C 
HETATM    6  N2  UNL     1      -9.011 -16.829  16.417  1.00  0.00    -0.337 N 
HETATM    7  C11 UNL     1      -9.436 -17.964  17.143  1.00  0.00     0.243 C 
HETATM    8  O4  UNL     1      -8.668 -18.501  18.028  1.00  0.00    -0.271 OA
ENDROOT
BRANCH   1   9
HETATM    9  C5  UNL     1      -7.011 -16.312  17.784  1.00  0.00     0.241 C 
HETATM   10  N1  UNL     1      -5.984 -17.286  17.864  1.00  0.00    -0.346 N 
ATOM     11  H1  UNL     1      -5.795 -17.850  17.036  1.00  0.00     0.163 HD
HETATM   12  O3  UNL     1      -7.222 -15.628  18.813  1.00  0.00    -0.271 OA
BRANCH  10  13
HETATM   13  C4  UNL     1      -5.180 -17.531  19.057  1.00  0.00     0.177 C 
BRANCH  13  14
HETATM   14  C3  UNL     1      -5.778 -18.711  19.821  1.00  0.00     0.045 C 
BRANCH  14  15
HETATM   15  C2  UNL     1      -6.090 -18.323  21.237  1.00  0.00     0.116 C 
BRANCH  15  16
HETATM   16  C1  UNL     1      -7.544 -17.997  21.397  1.00  0.00     0.172 C 
HETATM   17  O1  UNL     1      -7.879 -16.846  21.746  1.00  0.00    -0.648 OA
HETATM   18  O2  UNL     1      -8.486 -18.982  21.153  1.00  0.00    -0.648 OA
ENDBRANCH  15  16
ENDBRANCH  14  15
ENDBRANCH  13  14
BRANCH  13  19
HETATM   19  C25 UNL     1      -3.839 -17.949  18.584  1.00  0.00     0.242 C 
HETATM   20  O7  UNL     1      -3.582 -19.188  18.675  1.00  0.00    -0.271 OA
HETATM   21  N5  UNL     1      -2.857 -17.100  18.055  1.00  0.00    -0.350 N 
HETATM   22  C26 UNL     1      -3.002 -15.679  17.832  1.00  0.00     0.126 C 
HETATM   23  C30 UNL     1      -1.534 -17.638  17.682  1.00  0.00     0.126 C 
HETATM   24  C27 UNL     1      -2.918 -15.423  16.345  1.00  0.00     0.020 C 
HETATM   25  C28 UNL     1      -2.587 -16.694  15.626  1.00  0.00     0.003 C 
HETATM   26  C29 UNL     1      -1.354 -17.373  16.193  1.00  0.00     0.020 C 
ENDBRANCH  13  19
ENDBRANCH  10  13
ENDBRANCH   1   9
BRANCH   7  27
HETATM   27  C12 UNL     1     -10.739 -18.626  16.995  1.00  0.00     0.179 C 
BRANCH  27  28
HETATM   28  C13 UNL     1     -10.968 -19.499  15.834  1.00  0.00     0.039 C 
BRANCH  28  29
HETATM   29  C14 UNL     1     -12.289 -19.651  15.204  1.00  0.00    -0.012 C 
HETATM   30  C15 UNL     1     -12.997 -18.441  14.711  1.00  0.00     0.005 C 
HETATM   31  C16 UNL     1     -12.241 -17.796  13.547  1.00  0.00     0.000 C 
HETATM   32  C17 UNL     1     -12.366 -18.736  12.368  1.00  0.00     0.000 C 
HETATM   33  C18 UNL     1     -12.811 -20.110  12.768  1.00  0.00     0.000 C 
HETATM   34  C19 UNL     1     -12.208 -20.636  14.024  1.00  0.00     0.005 C 
ENDBRANCH  28  29
ENDBRANCH  27  28
BRANCH  27  35
HETATM   35  N3  UNL     1     -10.753 -19.581  18.160  1.00  0.00    -0.330 N 
HETATM   36  C20 UNL     1     -11.953 -19.888  18.809  1.00  0.00     0.319 C 
HETATM   37  O5  UNL     1     -13.020 -19.327  18.361  1.00  0.00    -0.247 OA
HETATM   38  N4  UNL     1     -12.107 -20.743  19.896  1.00  0.00    -0.330 N 
HETATM   39  C21 UNL     1     -13.401 -20.970  20.491  1.00  0.00     0.153 C 
HETATM   40  C24 UNL     1     -10.996 -21.476  20.518  1.00  0.00     0.153 C 
HETATM   41  C22 UNL     1     -13.457 -22.475  20.778  1.00  0.00     0.187 C 
HETATM   42  O6  UNL     1     -12.606 -23.185  19.948  1.00  0.00    -0.388 OA
HETATM   43  C23 UNL     1     -11.256 -22.943  20.184  1.00  0.00     0.187 C 
ATOM     44  H3  UNL     1      -9.883 -20.007  18.478  1.00  0.00     0.165 HD
ENDBRANCH  27  35
ENDBRANCH   7  27
TORSDOF 10
ENDMDL
MODEL 4
REMARK VINA RESULT: -8.954818864      0.980      1.198
REMARK  10 active torsions:
REMARK  status: ('A' for Active; 'I' for Inactive)
REMARK    1  A    between atoms: C1_2  and  C2_4 
REMARK    2  A    between atoms: C2_4  and  C3_5 
REMARK    3  A    between atoms: C3_5  and  C4_6 
REMARK    4  A    between atoms: C4_6  and  N1_7 
REMARK    5  A    between atoms: C4_6  and  C25_37 
REMARK       I    between atoms: N1_7  and  C5_9 
REMARK    6  A    between atoms: C5_9  and  C6_11 
REMARK       I    between atoms: N2_16  and  C11_17 
REMARK    7  A    between atoms: C11_17  and  C12_19 
REMARK    8  A    between atoms: C12_19  and  C13_20 
REMARK    9  A    between atoms: C12_19  and  N3_27 
REMARK   10  A    between atoms: C13_20  and  C14_21 
REMARK       I    between atoms: N3_27  and  C20_29 
REMARK       I    between atoms: C20_29  and  N4_31 
REMARK       I    between atoms: C25_37  and  N5_39 
ROOT
HETATM    1  C6  UNL     1      -8.038 -16.081  16.408  1.00  0.00     0.179 C 
HETATM    2  C7  UNL     1      -7.231 -16.013  15.133  1.00  0.00     0.035 C 
HETATM    3  C8  UNL     1      -8.087 -15.263  14.116  1.00  0.00     0.004 C 
HETATM    4  C9  UNL     1      -9.350 -15.992  13.847  1.00  0.00     0.020 C 
HETATM    5  C10 UNL     1     -10.077 -16.389  15.106  1.00  0.00     0.127 C 
HETATM    6  N2  UNL     1      -9.186 -16.892  16.156  1.00  0.00    -0.337 N 
HETATM    7  C11 UNL     1      -9.516 -18.116  16.778  1.00  0.00     0.243 C 
HETATM    8  O4  UNL     1      -8.719 -18.650  17.640  1.00  0.00    -0.271 OA
ENDROOT
BRANCH   1   9
HETATM    9  C5  UNL     1      -7.273 -16.304  17.615  1.00  0.00     0.241 C 
HETATM   10  N1  UNL     1      -6.186 -17.213  17.658  1.00  0.00    -0.346 N 
ATOM     11  H1  UNL     1      -5.946 -17.712  16.801  1.00  0.00     0.163 HD
HETATM   12  O3  UNL     1      -7.546 -15.700  18.679  1.00  0.00    -0.271 OA
BRANCH  10  13
HETATM   13  C4  UNL     1      -5.389 -17.480  18.851  1.00  0.00     0.177 C 
BRANCH  13  14
HETATM   14  C3  UNL     1      -5.992 -18.671  19.592  1.00  0.00     0.045 C 
BRANCH  14  15
HETATM   15  C2  UNL     1      -6.240 -18.330  21.032  1.00  0.00     0.116 C 
BRANCH  15  16
HETATM   16  C1  UNL     1      -7.676 -17.966  21.259  1.00  0.00     0.172 C 
HETATM   17  O1  UNL     1      -7.955 -16.860  21.765  1.00  0.00    -0.648 OA
HETATM   18  O2  UNL     1      -8.664 -18.867  20.900  1.00  0.00    -0.648 OA
ENDBRANCH  15  16
ENDBRANCH  14  15
ENDBRANCH  13  14
BRANCH  13  19
HETATM   19  C25 UNL     1      -4.046 -17.892  18.378  1.00  0.00     0.242 C 
HETATM   20  O7  UNL     1      -3.991 -18.345  17.195  1.00  0.00    -0.271 OA
HETATM   21  N5  UNL     1      -2.859 -17.818  19.121  1.00  0.00    -0.350 N 
HETATM   22  C26 UNL     1      -2.732 -17.281  20.457  1.00  0.00     0.126 C 
HETATM   23  C30 UNL     1      -1.595 -18.325  18.551  1.00  0.00     0.126 C 
HETATM   24  C27 UNL     1      -1.852 -16.055  20.391  1.00  0.00     0.020 C 
HETATM   25  C28 UNL     1      -1.310 -15.888  19.006  1.00  0.00     0.003 C 
HETATM   26  C29 UNL     1      -0.631 -17.147  18.497  1.00  0.00     0.020 C 
ENDBRANCH  13  19
ENDBRANCH  10  13
ENDBRANCH   1   9
BRANCH   7  27
HETATM   27  C12 UNL     1     -10.747 -18.883  16.542  1.00  0.00     0.179 C 
BRANCH  27  28
HETATM   28  C13 UNL     1     -10.834 -19.744  15.353  1.00  0.00     0.039 C 
BRANCH  28  29
HETATM   29  C14 UNL     1     -11.967 -19.688  14.415  1.00  0.00    -0.012 C 
HETATM   30  C15 UNL     1     -12.650 -20.951  14.032  1.00  0.00     0.005 C 
HETATM   31  C16 UNL     1     -13.355 -21.583  15.235  1.00  0.00     0.000 C 
HETATM   32  C17 UNL     1     -14.523 -20.686  15.580  1.00  0.00     0.000 C 
HETATM   33  C18 UNL     1     -14.418 -19.330  14.951  1.00  0.00     0.000 C 
HETATM   34  C19 UNL     1     -13.052 -18.733  14.945  1.00  0.00     0.005 C 
ENDBRANCH  28  29
ENDBRANCH  27  28
BRANCH  27  35
HETATM   35  N3  UNL     1     -10.746 -19.864  17.685  1.00  0.00    -0.330 N 
HETATM   36  C20 UNL     1     -11.865 -19.986  18.514  1.00  0.00     0.319 C 
HETATM   37  O5  UNL     1     -12.875 -19.236  18.247  1.00  0.00    -0.247 OA
HETATM   38  N4  UNL     1     -11.993 -20.841  19.604  1.00  0.00    -0.330 N 
HETATM   39  C21 UNL     1     -13.199 -20.868  20.395  1.00  0.00     0.153 C 
HETATM   40  C24 UNL     1     -10.943 -21.774  20.035  1.00  0.00     0.153 C 
HETATM   41  C22 UNL     1     -13.469 -22.351  20.675  1.00  0.00     0.187 C 
HETATM   42  O6  UNL     1     -12.894 -23.164  19.713  1.00  0.00    -0.388 OA
HETATM   43  C23 UNL     1     -11.501 -23.163  19.733  1.00  0.00     0.187 C 
ATOM     44  H3  UNL     1      -9.923 -20.442  17.856  1.00  0.00     0.165 HD
ENDBRANCH  27  35
ENDBRANCH   7  27
TORSDOF 10
ENDMDL
MODEL 5
REMARK VINA RESULT: -8.763780821      5.415     12.413
REMARK  10 active torsions:
REMARK  status: ('A' for Active; 'I' for Inactive)
REMARK    1  A    between atoms: C1_2  and  C2_4 
REMARK    2  A    between atoms: C2_4  and  C3_5 
REMARK    3  A    between atoms: C3_5  and  C4_6 
REMARK    4  A    between atoms: C4_6  and  N1_7 
REMARK    5  A    between atoms: C4_6  and  C25_37 
REMARK       I    between atoms: N1_7  and  C5_9 
REMARK    6  A    between atoms: C5_9  and  C6_11 
REMARK       I    between atoms: N2_16  and  C11_17 
REMARK    7  A    between atoms: C11_17  and  C12_19 
REMARK    8  A    between atoms: C12_19  and  C13_20 
REMARK    9  A    between atoms: C12_19  and  N3_27 
REMARK   10  A    between atoms: C13_20  and  C14_21 
REMARK       I    between atoms: N3_27  and  C20_29 
REMARK       I    between atoms: C20_29  and  N4_31 
REMARK       I    between atoms: C25_37  and  N5_39 
ROOT
HETATM    1  C6  UNL     1     -16.950 -24.205  18.777  1.00  0.00     0.179 C 
HETATM    2  C7  UNL     1     -16.675 -25.591  19.309  1.00  0.00     0.035 C 
HETATM    3  C8  UNL     1     -16.438 -25.442  20.810  1.00  0.00     0.004 C 
HETATM    4  C9  UNL     1     -15.259 -24.583  21.076  1.00  0.00     0.020 C 
HETATM    5  C10 UNL     1     -15.299 -23.282  20.317  1.00  0.00     0.127 C 
HETATM    6  N2  UNL     1     -15.759 -23.432  18.933  1.00  0.00    -0.337 N 
HETATM    7  C11 UNL     1     -14.984 -22.848  17.907  1.00  0.00     0.243 C 
HETATM    8  O4  UNL     1     -15.291 -23.029  16.668  1.00  0.00    -0.271 OA
ENDROOT
BRANCH   1   9
HETATM    9  C5  UNL     1     -17.660 -24.153  17.518  1.00  0.00     0.241 C 
HETATM   10  N1  UNL     1     -17.442 -25.107  16.493  1.00  0.00    -0.346 N 
ATOM     11  H1  UNL     1     -16.765 -25.850  16.668  1.00  0.00     0.163 HD
HETATM   12  O3  UNL     1     -18.500 -23.252  17.281  1.00  0.00    -0.271 OA
BRANCH  10  13
HETATM   13  C4  UNL     1     -18.125 -25.095  15.204  1.00  0.00     0.177 C 
BRANCH  13  14
HETATM   14  C3  UNL     1     -17.151 -24.607  14.133  1.00  0.00     0.045 C 
BRANCH  14  15
HETATM   15  C2  UNL     1     -17.754 -23.486  13.339  1.00  0.00     0.116 C 
BRANCH  15  16
HETATM   16  C1  UNL     1     -18.275 -23.979  12.022  1.00  0.00     0.172 C 
HETATM   17  O1  UNL     1     -19.378 -23.570  11.608  1.00  0.00    -0.648 OA
HETATM   18  O2  UNL     1     -17.517 -24.880  11.293  1.00  0.00    -0.648 OA
ENDBRANCH  15  16
ENDBRANCH  14  15
ENDBRANCH  13  14
BRANCH  13  19
HETATM   19  C25 UNL     1     -18.455 -26.505  14.886  1.00  0.00     0.242 C 
HETATM   20  O7  UNL     1     -17.774 -27.037  13.959  1.00  0.00    -0.271 OA
HETATM   21  N5  UNL     1     -19.439 -27.277  15.520  1.00  0.00    -0.350 N 
HETATM   22  C26 UNL     1     -20.266 -26.848  16.625  1.00  0.00     0.126 C 
HETATM   23  C30 UNL     1     -19.712 -28.653  15.060  1.00  0.00     0.126 C 
HETATM   24  C27 UNL     1     -19.928 -27.700  17.826  1.00  0.00     0.020 C 
HETATM   25  C28 UNL     1     -18.958 -28.772  17.436  1.00  0.00     0.003 C 
HETATM   26  C29 UNL     1     -19.437 -29.575  16.240  1.00  0.00     0.020 C 
ENDBRANCH  13  19
ENDBRANCH  10  13
ENDBRANCH   1   9
BRANCH   7  27
HETATM   27  C12 UNL     1     -13.804 -21.997  18.116  1.00  0.00     0.179 C 
BRANCH  27  28
HETATM   28  C13 UNL     1     -12.483 -22.630  18.250  1.00  0.00     0.039 C 
BRANCH  28  29
HETATM   29  C14 UNL     1     -11.723 -22.618  19.510  1.00  0.00    -0.012 C 
HETATM   30  C15 UNL     1     -10.257 -22.383  19.465  1.00  0.00     0.005 C 
HETATM   31  C16 UNL     1      -9.940 -20.968  18.973  1.00  0.00     0.000 C 
HETATM   32  C17 UNL     1     -10.379 -20.015  20.063  1.00  0.00     0.000 C 
HETATM   33  C18 UNL     1     -11.299 -20.656  21.056  1.00  0.00     0.000 C 
HETATM   34  C19 UNL     1     -12.316 -21.582  20.481  1.00  0.00     0.005 C 
ENDBRANCH  28  29
ENDBRANCH  27  28
BRANCH  27  35
HETATM   35  N3  UNL     1     -13.705 -21.251  16.811  1.00  0.00    -0.330 N 
HETATM   36  C20 UNL     1     -13.248 -19.930  16.784  1.00  0.00     0.319 C 
HETATM   37  O5  UNL     1     -12.918 -19.402  17.909  1.00  0.00    -0.247 OA
HETATM   38  N4  UNL     1     -13.116 -19.127  15.655  1.00  0.00    -0.330 N 
HETATM   39  C21 UNL     1     -12.643 -17.768  15.756  1.00  0.00     0.153 C 
HETATM   40  C24 UNL     1     -13.432 -19.578  14.294  1.00  0.00     0.153 C 
HETATM   41  C22 UNL     1     -11.682 -17.583  14.576  1.00  0.00     0.187 C 
HETATM   42  O6  UNL     1     -11.152 -18.791  14.157  1.00  0.00    -0.388 OA
HETATM   43  C23 UNL     1     -12.085 -19.647  13.578  1.00  0.00     0.187 C 
ATOM     44  H3  UNL     1     -13.974 -21.712  15.942  1.00  0.00     0.165 HD
ENDBRANCH  27  35
ENDBRANCH   7  27
TORSDOF 10
ENDMDL
