MODEL 1
REMARK VINA RESULT: -9.745615978      0.000      0.000
REMARK  12 active torsions:
REMARK  status: ('A' for Active; 'I' for Inactive)
REMARK       I    between atoms: N1_2  and  C2_4 
REMARK    1  A    between atoms: C2_4  and  C3_6 
REMARK       I    between atoms: N2_10  and  C7_11 
REMARK    2  A    between atoms: C7_11  and  C8_13 
REMARK    3  A    between atoms: C8_13  and  C9_15 
REMARK    4  A    between atoms: C9_15  and  C10_16 
REMARK    5  A    between atoms: C9_15  and  N3_23 
REMARK    6  A    between atoms: C10_16  and  C11_17 
REMARK       I    between atoms: N3_23  and  C17_25 
REMARK       I    between atoms: C17_25  and  N4_27 
REMARK    7  A    between atoms: N4_27  and  C18_29 
REMARK    8  A    between atoms: C18_29  and  C19_30 
REMARK    9  A    between atoms: C18_29  and  C29_44 
REMARK   10  A    between atoms: C19_30  and  O5_31 
REMARK   11  A    between atoms: C23_37  and  C24_38 
REMARK   12  A    between atoms: C24_38  and  C25_40 
ROOT
HETATM    1  N3  UNL     1     -13.349  23.208  -8.678  1.00  0.00    -0.309 N 
ATOM      2  H3  UNL     1     -14.015  23.948  -8.458  1.00  0.00     0.170 HD
HETATM    3  C17 UNL     1     -12.182  23.703  -9.276  1.00  0.00     0.321 C 
HETATM    4  O4  UNL     1     -11.270  22.900  -9.577  1.00  0.00    -0.247 OA
HETATM    5  N4  UNL     1     -12.016  25.085  -9.529  1.00  0.00    -0.330 N 
ATOM      6  H4  UNL     1     -12.814  25.701  -9.374  1.00  0.00     0.165 HD
ENDROOT
BRANCH   1   7
HETATM    7  C9  UNL     1     -13.824  21.937  -8.307  1.00  0.00     0.070 C 
BRANCH   7   8
HETATM    8  C8  UNL     1     -15.079  21.595  -8.998  1.00  0.00     0.261 C 
HETATM    9  O3  UNL     1     -15.122  21.847 -10.258  1.00  0.00    -0.280 OA
BRANCH   8  10
HETATM   10  C7  UNL     1     -16.263  21.037  -8.413  1.00  0.00     0.296 C 
HETATM   11  N2  UNL     1     -16.833  19.750  -8.645  1.00  0.00    -0.332 N 
HETATM   12  C3  UNL     1     -18.082  19.275  -8.014  1.00  0.00     0.179 C 
HETATM   13  C6  UNL     1     -16.441  18.658  -9.496  1.00  0.00     0.127 C 
HETATM   14  C4  UNL     1     -18.827  18.685  -9.175  1.00  0.00     0.037 C 
HETATM   15  C5  UNL     1     -17.780  18.436 -10.238  1.00  0.00     0.022 C 
HETATM   16  O2  UNL     1     -16.940  21.746  -7.575  1.00  0.00    -0.264 OA
BRANCH  12  17
HETATM   17  C2  UNL     1     -17.740  18.326  -6.945  1.00  0.00     0.240 C 
HETATM   18  N1  UNL     1     -16.809  18.687  -5.911  1.00  0.00    -0.364 N 
HETATM   19  C1  UNL     1     -16.500  17.739  -4.880  1.00  0.00     0.149 C 
ATOM     20  H1  UNL     1     -16.372  19.609  -5.910  1.00  0.00     0.161 HD
HETATM   21  O1  UNL     1     -18.263  17.191  -6.933  1.00  0.00    -0.271 OA
ENDBRANCH  12  17
ENDBRANCH   8  10
ENDBRANCH   7   8
BRANCH   7  22
HETATM   22  C10 UNL     1     -13.451  21.291  -7.040  1.00  0.00     0.066 C 
BRANCH  22  23
HETATM   23  C11 UNL     1     -13.912  21.929  -5.762  1.00  0.00    -0.009 C 
HETATM   24  C12 UNL     1     -14.343  20.789  -4.815  1.00  0.00     0.005 C 
HETATM   25  C13 UNL     1     -14.963  21.350  -3.564  1.00  0.00     0.000 C 
HETATM   26  C14 UNL     1     -15.106  22.851  -3.596  1.00  0.00     0.000 C 
HETATM   27  C15 UNL     1     -13.775  23.466  -3.851  1.00  0.00     0.000 C 
HETATM   28  C16 UNL     1     -13.075  22.932  -5.095  1.00  0.00     0.005 C 
ENDBRANCH  22  23
ENDBRANCH   7  22
ENDBRANCH   1   7
BRANCH   5  29
HETATM   29  C18 UNL     1     -10.748  25.692 -10.009  1.00  0.00     0.168 C 
BRANCH  29  30
HETATM   30  C19 UNL     1     -10.229  26.466  -8.880  1.00  0.00     0.138 C 
HETATM   31  N5  UNL     1      -9.043  26.808  -8.300  1.00  0.00    -0.352 N 
HETATM   32  C20 UNL     1      -7.621  26.665  -8.540  1.00  0.00     0.125 C 
HETATM   33  C23 UNL     1      -8.907  27.596  -7.010  1.00  0.00     0.156 C 
HETATM   34  C21 UNL     1      -7.137  28.120  -8.497  1.00  0.00     0.022 C 
HETATM   35  C22 UNL     1      -8.239  28.786  -7.637  1.00  0.00     0.035 C 
BRANCH  30  36
HETATM   36  O5  UNL     1     -11.290  26.994  -8.244  1.00  0.00    -0.348 OA
ATOM     37  H5  UNL     1     -11.175  26.817  -7.317  1.00  0.00     0.219 HD
ENDBRANCH  30  36
BRANCH  33  38
HETATM   38  C24 UNL     1     -10.081  27.755  -6.222  1.00  0.00     0.154 C 
HETATM   39  O6  UNL     1     -10.674  28.881  -6.407  1.00  0.00    -0.295 OA
BRANCH  38  40
HETATM   40  C25 UNL     1     -10.749  26.904  -5.245  1.00  0.00     0.061 A 
HETATM   41  C26 UNL     1     -10.506  25.380  -5.508  1.00  0.00     0.017 A 
HETATM   42  C27 UNL     1     -10.149  26.088  -4.200  1.00  0.00    -0.007 A 
HETATM   43  C28 UNL     1     -11.054  25.673  -3.044  1.00  0.00     0.011 C 
ENDBRANCH  38  40
ENDBRANCH  33  38
ENDBRANCH  29  30
BRANCH  29  44
HETATM   44  C29 UNL     1     -10.787  26.193 -11.374  1.00  0.00    -0.023 C 
HETATM   45  C30 UNL     1      -9.799  27.285 -11.708  1.00  0.00     0.017 C 
HETATM   46  C31 UNL     1     -10.481  25.073 -12.406  1.00  0.00     0.017 C 
HETATM   47  C32 UNL     1     -12.158  26.726 -11.833  1.00  0.00     0.017 C 
ENDBRANCH  29  44
ENDBRANCH   5  29
TORSDOF 12
ENDMDL
MODEL 2
REMARK VINA RESULT: -9.569133284      3.217      5.820
REMARK  12 active torsions:
REMARK  status: ('A' for Active; 'I' for Inactive)
REMARK       I    between atoms: N1_2  and  C2_4 
REMARK    1  A    between atoms: C2_4  and  C3_6 
REMARK       I    between atoms: N2_10  and  C7_11 
REMARK    2  A    between atoms: C7_11  and  C8_13 
REMARK    3  A    between atoms: C8_13  and  C9_15 
REMARK    4  A    between atoms: C9_15  and  C10_16 
REMARK    5  A    between atoms: C9_15  and  N3_23 
REMARK    6  A    between atoms: C10_16  and  C11_17 
REMARK       I    between atoms: N3_23  and  C17_25 
REMARK       I    between atoms: C17_25  and  N4_27 
REMARK    7  A    between atoms: N4_27  and  C18_29 
REMARK    8  A    between atoms: C18_29  and  C19_30 
REMARK    9  A    between atoms: C18_29  and  C29_44 
REMARK   10  A    between atoms: C19_30  and  O5_31 
REMARK   11  A    between atoms: C23_37  and  C24_38 
REMARK   12  A    between atoms: C24_38  and  C25_40 
ROOT
HETATM    1  N3  UNL     1     -16.288  20.400  -4.788  1.00  0.00    -0.309 N 
ATOM      2  H3  UNL     1     -16.910  21.111  -5.171  1.00  0.00     0.170 HD
HETATM    3  C17 UNL     1     -14.943  20.655  -5.085  1.00  0.00     0.321 C 
HETATM    4  O4  UNL     1     -14.068  19.870  -4.654  1.00  0.00    -0.247 OA
HETATM    5  N4  UNL     1     -14.560  21.785  -5.847  1.00  0.00    -0.330 N 
ATOM      6  H4  UNL     1     -15.296  22.346  -6.276  1.00  0.00     0.165 HD
ENDROOT
BRANCH   1   7
HETATM    7  C9  UNL     1     -16.988  19.400  -4.089  1.00  0.00     0.070 C 
BRANCH   7   8
HETATM    8  C8  UNL     1     -17.016  18.127  -4.829  1.00  0.00     0.261 C 
HETATM    9  O3  UNL     1     -16.125  17.260  -4.502  1.00  0.00    -0.280 OA
BRANCH   8  10
HETATM   10  C7  UNL     1     -17.910  17.762  -5.888  1.00  0.00     0.296 C 
HETATM   11  N2  UNL     1     -18.249  18.519  -7.049  1.00  0.00    -0.332 N 
HETATM   12  C3  UNL     1     -19.212  18.069  -8.075  1.00  0.00     0.179 C 
HETATM   13  C6  UNL     1     -17.841  19.820  -7.508  1.00  0.00     0.127 C 
HETATM   14  C4  UNL     1     -20.058  19.289  -8.284  1.00  0.00     0.037 C 
HETATM   15  C5  UNL     1     -19.238  20.442  -7.747  1.00  0.00     0.022 C 
HETATM   16  O2  UNL     1     -18.516  16.626  -5.831  1.00  0.00    -0.264 OA
BRANCH  12  17
HETATM   17  C2  UNL     1     -18.464  17.618  -9.258  1.00  0.00     0.240 C 
HETATM   18  N1  UNL     1     -18.201  18.515 -10.349  1.00  0.00    -0.364 N 
HETATM   19  C1  UNL     1     -17.465  18.044 -11.486  1.00  0.00     0.149 C 
ATOM     20  H1  UNL     1     -18.535  19.479 -10.315  1.00  0.00     0.161 HD
HETATM   21  O1  UNL     1     -18.051  16.439  -9.317  1.00  0.00    -0.271 OA
ENDBRANCH  12  17
ENDBRANCH   8  10
ENDBRANCH   7   8
BRANCH   7  22
HETATM   22  C10 UNL     1     -17.997  19.709  -3.066  1.00  0.00     0.066 C 
BRANCH  22  23
HETATM   23  C11 UNL     1     -19.329  19.024  -3.161  1.00  0.00    -0.009 C 
HETATM   24  C12 UNL     1     -19.817  18.774  -1.718  1.00  0.00     0.005 C 
HETATM   25  C13 UNL     1     -21.077  17.953  -1.723  1.00  0.00     0.000 C 
HETATM   26  C14 UNL     1     -21.480  17.495  -3.102  1.00  0.00     0.000 C 
HETATM   27  C15 UNL     1     -21.615  18.680  -3.993  1.00  0.00     0.000 C 
HETATM   28  C16 UNL     1     -20.380  19.572  -4.025  1.00  0.00     0.005 C 
ENDBRANCH  22  23
ENDBRANCH   7  22
ENDBRANCH   1   7
BRANCH   5  29
HETATM   29  C18 UNL     1     -13.150  22.201  -6.061  1.00  0.00     0.168 C 
BRANCH  29  30
HETATM   30  C19 UNL     1     -12.886  23.231  -5.055  1.00  0.00     0.138 C 
HETATM   31  N5  UNL     1     -13.529  24.224  -4.377  1.00  0.00    -0.352 N 
HETATM   32  C20 UNL     1     -14.868  24.754  -4.212  1.00  0.00     0.125 C 
HETATM   33  C23 UNL     1     -12.857  25.198  -3.427  1.00  0.00     0.156 C 
HETATM   34  C21 UNL     1     -15.054  24.698  -2.690  1.00  0.00     0.022 C 
HETATM   35  C22 UNL     1     -13.585  24.730  -2.200  1.00  0.00     0.035 C 
BRANCH  30  36
HETATM   36  O5  UNL     1     -11.589  23.125  -4.715  1.00  0.00    -0.348 OA
ATOM     37  H5  UNL     1     -11.206  23.990  -4.807  1.00  0.00     0.219 HD
ENDBRANCH  30  36
BRANCH  33  38
HETATM   38  C24 UNL     1     -11.435  25.248  -3.450  1.00  0.00     0.154 C 
HETATM   39  O6  UNL     1     -10.884  24.637  -2.462  1.00  0.00    -0.295 OA
BRANCH  38  40
HETATM   40  C25 UNL     1     -10.473  25.850  -4.365  1.00  0.00     0.061 A 
HETATM   41  C26 UNL     1     -11.162  26.601  -5.555  1.00  0.00     0.017 A 
HETATM   42  C27 UNL     1     -10.192  27.263  -4.575  1.00  0.00    -0.007 A 
HETATM   43  C28 UNL     1      -8.854  27.611  -5.222  1.00  0.00     0.011 C 
ENDBRANCH  38  40
ENDBRANCH  33  38
ENDBRANCH  29  30
BRANCH  29  44
HETATM   44  C29 UNL     1     -12.751  22.319  -7.454  1.00  0.00    -0.023 C 
HETATM   45  C30 UNL     1     -11.759  23.414  -7.770  1.00  0.00     0.017 C 
HETATM   46  C31 UNL     1     -12.066  21.023  -7.969  1.00  0.00     0.017 C 
HETATM   47  C32 UNL     1     -13.912  22.519  -8.448  1.00  0.00     0.017 C 
ENDBRANCH  29  44
ENDBRANCH   5  29
TORSDOF 12
ENDMDL
MODEL 3
REMARK VINA RESULT: -9.489721709      3.298      6.202
REMARK  12 active torsions:
REMARK  status: ('A' for Active; 'I' for Inactive)
REMARK       I    between atoms: N1_2  and  C2_4 
REMARK    1  A    between atoms: C2_4  and  C3_6 
REMARK       I    between atoms: N2_10  and  C7_11 
REMARK    2  A    between atoms: C7_11  and  C8_13 
REMARK    3  A    between atoms: C8_13  and  C9_15 
REMARK    4  A    between atoms: C9_15  and  C10_16 
REMARK    5  A    between atoms: C9_15  and  N3_23 
REMARK    6  A    between atoms: C10_16  and  C11_17 
REMARK       I    between atoms: N3_23  and  C17_25 
REMARK       I    between atoms: C17_25  and  N4_27 
REMARK    7  A    between atoms: N4_27  and  C18_29 
REMARK    8  A    between atoms: C18_29  and  C19_30 
REMARK    9  A    between atoms: C18_29  and  C29_44 
REMARK   10  A    between atoms: C19_30  and  O5_31 
REMARK   11  A    between atoms: C23_37  and  C24_38 
REMARK   12  A    between atoms: C24_38  and  C25_40 
ROOT
HETATM    1  N3  UNL     1     -17.369  21.759  -6.399  1.00  0.00    -0.309 N 
ATOM      2  H3  UNL     1     -17.563  22.743  -6.581  1.00  0.00     0.170 HD
HETATM    3  C17 UNL     1     -15.996  21.497  -6.300  1.00  0.00     0.321 C 
HETATM    4  O4  UNL     1     -15.619  20.329  -6.054  1.00  0.00    -0.247 OA
HETATM    5  N4  UNL     1     -15.039  22.527  -6.460  1.00  0.00    -0.330 N 
ATOM      6  H4  UNL     1     -15.365  23.444  -6.765  1.00  0.00     0.165 HD
ENDROOT
BRANCH   1   7
HETATM    7  C9  UNL     1     -18.545  20.993  -6.306  1.00  0.00     0.070 C 
BRANCH   7   8
HETATM    8  C8  UNL     1     -18.741  20.447  -4.952  1.00  0.00     0.261 C 
HETATM    9  O3  UNL     1     -18.747  21.300  -3.990  1.00  0.00    -0.280 OA
BRANCH   8  10
HETATM   10  C7  UNL     1     -18.900  19.069  -4.590  1.00  0.00     0.296 C 
HETATM   11  N2  UNL     1     -20.051  18.434  -4.038  1.00  0.00    -0.332 N 
HETATM   12  C3  UNL     1     -20.107  17.004  -3.667  1.00  0.00     0.179 C 
HETATM   13  C6  UNL     1     -21.350  18.934  -3.674  1.00  0.00     0.127 C 
HETATM   14  C4  UNL     1     -20.741  17.047  -2.308  1.00  0.00     0.037 C 
HETATM   15  C5  UNL     1     -21.420  18.396  -2.225  1.00  0.00     0.022 C 
HETATM   16  O2  UNL     1     -17.908  18.262  -4.755  1.00  0.00    -0.264 OA
BRANCH  12  17
HETATM   17  C2  UNL     1     -20.874  16.280  -4.691  1.00  0.00     0.240 C 
HETATM   18  N1  UNL     1     -20.366  16.138  -6.028  1.00  0.00    -0.364 N 
HETATM   19  C1  UNL     1     -21.137  15.423  -7.002  1.00  0.00     0.149 C 
ATOM     20  H1  UNL     1     -19.465  16.543  -6.282  1.00  0.00     0.161 HD
HETATM   21  O1  UNL     1     -21.982  15.781  -4.397  1.00  0.00    -0.271 OA
ENDBRANCH  12  17
ENDBRANCH   8  10
ENDBRANCH   7   8
BRANCH   7  22
HETATM   22  C10 UNL     1     -19.180  20.372  -7.477  1.00  0.00     0.066 C 
BRANCH  22  23
HETATM   23  C11 UNL     1     -18.463  19.237  -8.147  1.00  0.00    -0.009 C 
HETATM   24  C12 UNL     1     -19.537  18.345  -8.805  1.00  0.00     0.005 C 
HETATM   25  C13 UNL     1     -18.913  17.098  -9.371  1.00  0.00     0.000 C 
HETATM   26  C14 UNL     1     -17.441  16.981  -9.063  1.00  0.00     0.000 C 
HETATM   27  C15 UNL     1     -16.738  18.198  -9.555  1.00  0.00     0.000 C 
HETATM   28  C16 UNL     1     -17.328  19.504  -9.038  1.00  0.00     0.005 C 
ENDBRANCH  22  23
ENDBRANCH   7  22
ENDBRANCH   1   7
BRANCH   5  29
HETATM   29  C18 UNL     1     -13.585  22.351  -6.211  1.00  0.00     0.168 C 
BRANCH  29  30
HETATM   30  C19 UNL     1     -13.259  23.267  -5.116  1.00  0.00     0.138 C 
HETATM   31  N5  UNL     1     -13.838  24.238  -4.354  1.00  0.00    -0.352 N 
HETATM   32  C20 UNL     1     -15.138  24.844  -4.147  1.00  0.00     0.125 C 
HETATM   33  C23 UNL     1     -13.108  25.074  -3.318  1.00  0.00     0.156 C 
HETATM   34  C21 UNL     1     -15.342  24.667  -2.637  1.00  0.00     0.022 C 
HETATM   35  C22 UNL     1     -13.880  24.551  -2.141  1.00  0.00     0.035 C 
BRANCH  30  36
HETATM   36  O5  UNL     1     -11.976  23.040  -4.782  1.00  0.00    -0.348 OA
ATOM     37  H5  UNL     1     -11.648  23.837  -4.381  1.00  0.00     0.219 HD
ENDBRANCH  30  36
BRANCH  33  38
HETATM   38  C24 UNL     1     -11.686  25.026  -3.332  1.00  0.00     0.154 C 
HETATM   39  O6  UNL     1     -11.188  24.311  -2.386  1.00  0.00    -0.295 OA
BRANCH  38  40
HETATM   40  C25 UNL     1     -10.677  25.622  -4.198  1.00  0.00     0.061 A 
HETATM   41  C26 UNL     1     -11.294  26.279  -5.479  1.00  0.00     0.017 A 
HETATM   42  C27 UNL     1     -10.435  27.033  -4.462  1.00  0.00    -0.007 A 
HETATM   43  C28 UNL     1      -9.063  27.405  -5.017  1.00  0.00     0.011 C 
ENDBRANCH  38  40
ENDBRANCH  33  38
ENDBRANCH  29  30
BRANCH  29  44
HETATM   44  C29 UNL     1     -12.770  22.210  -7.407  1.00  0.00    -0.023 C 
HETATM   45  C30 UNL     1     -11.426  22.897  -7.380  1.00  0.00     0.017 C 
HETATM   46  C31 UNL     1     -12.434  20.723  -7.703  1.00  0.00     0.017 C 
HETATM   47  C32 UNL     1     -13.444  22.682  -8.711  1.00  0.00     0.017 C 
ENDBRANCH  29  44
ENDBRANCH   5  29
TORSDOF 12
ENDMDL
MODEL 4
REMARK VINA RESULT: -9.414426032      3.532     11.696
REMARK  12 active torsions:
REMARK  status: ('A' for Active; 'I' for Inactive)
REMARK       I    between atoms: N1_2  and  C2_4 
REMARK    1  A    between atoms: C2_4  and  C3_6 
REMARK       I    between atoms: N2_10  and  C7_11 
REMARK    2  A    between atoms: C7_11  and  C8_13 
REMARK    3  A    between atoms: C8_13  and  C9_15 
REMARK    4  A    between atoms: C9_15  and  C10_16 
REMARK    5  A    between atoms: C9_15  and  N3_23 
REMARK    6  A    between atoms: C10_16  and  C11_17 
REMARK       I    between atoms: N3_23  and  C17_25 
REMARK       I    between atoms: C17_25  and  N4_27 
REMARK    7  A    between atoms: N4_27  and  C18_29 
REMARK    8  A    between atoms: C18_29  and  C19_30 
REMARK    9  A    between atoms: C18_29  and  C29_44 
REMARK   10  A    between atoms: C19_30  and  O5_31 
REMARK   11  A    between atoms: C23_37  and  C24_38 
REMARK   12  A    between atoms: C24_38  and  C25_40 
ROOT
HETATM    1  N3  UNL     1     -16.599  19.848  -5.666  1.00  0.00    -0.309 N 
ATOM      2  H3  UNL     1     -17.192  20.662  -5.822  1.00  0.00     0.170 HD
HETATM    3  C17 UNL     1     -17.306  18.775  -5.105  1.00  0.00     0.321 C 
HETATM    4  O4  UNL     1     -16.700  17.702  -4.883  1.00  0.00    -0.247 OA
HETATM    5  N4  UNL     1     -18.684  18.882  -4.803  1.00  0.00    -0.330 N 
ATOM      6  H4  UNL     1     -19.126  19.796  -4.893  1.00  0.00     0.165 HD
ENDROOT
BRANCH   1   7
HETATM    7  C9  UNL     1     -15.270  20.073  -6.066  1.00  0.00     0.070 C 
BRANCH   7   8
HETATM    8  C8  UNL     1     -14.542  20.922  -5.107  1.00  0.00     0.261 C 
HETATM    9  O3  UNL     1     -13.728  20.317  -4.316  1.00  0.00    -0.280 OA
BRANCH   8  10
HETATM   10  C7  UNL     1     -14.663  22.341  -4.944  1.00  0.00     0.296 C 
HETATM   11  N2  UNL     1     -14.566  23.096  -3.738  1.00  0.00    -0.332 N 
HETATM   12  C3  UNL     1     -14.738  24.562  -3.667  1.00  0.00     0.179 C 
HETATM   13  C6  UNL     1     -14.339  22.710  -2.370  1.00  0.00     0.127 C 
HETATM   14  C4  UNL     1     -15.653  24.724  -2.489  1.00  0.00     0.037 C 
HETATM   15  C5  UNL     1     -15.540  23.431  -1.713  1.00  0.00     0.022 C 
HETATM   16  O2  UNL     1     -14.898  23.071  -5.980  1.00  0.00    -0.264 OA
BRANCH  12  17
HETATM   17  C2  UNL     1     -13.415  25.186  -3.519  1.00  0.00     0.240 C 
HETATM   18  N1  UNL     1     -12.565  25.390  -4.660  1.00  0.00    -0.364 N 
HETATM   19  C1  UNL     1     -11.282  26.004  -4.482  1.00  0.00     0.149 C 
ATOM     20  H1  UNL     1     -12.872  25.100  -5.589  1.00  0.00     0.161 HD
HETATM   21  O1  UNL     1     -13.022  25.544  -2.387  1.00  0.00    -0.271 OA
ENDBRANCH  12  17
ENDBRANCH   8  10
ENDBRANCH   7   8
BRANCH   7  22
HETATM   22  C10 UNL     1     -14.834  19.957  -7.465  1.00  0.00     0.066 C 
BRANCH  22  23
HETATM   23  C11 UNL     1     -14.036  21.087  -8.049  1.00  0.00    -0.009 C 
HETATM   24  C12 UNL     1     -12.574  20.604  -8.155  1.00  0.00     0.005 C 
HETATM   25  C13 UNL     1     -11.677  21.731  -8.590  1.00  0.00     0.000 C 
HETATM   26  C14 UNL     1     -12.398  23.050  -8.706  1.00  0.00     0.000 C 
HETATM   27  C15 UNL     1     -13.552  22.899  -9.635  1.00  0.00     0.000 C 
HETATM   28  C16 UNL     1     -14.497  21.761  -9.267  1.00  0.00     0.005 C 
ENDBRANCH  22  23
ENDBRANCH   7  22
ENDBRANCH   1   7
BRANCH   5  29
HETATM   29  C18 UNL     1     -19.525  17.740  -4.360  1.00  0.00     0.168 C 
BRANCH  29  30
HETATM   30  C19 UNL     1     -20.025  17.119  -5.588  1.00  0.00     0.138 C 
HETATM   31  N5  UNL     1     -20.336  17.444  -6.875  1.00  0.00    -0.352 N 
HETATM   32  C20 UNL     1     -20.256  18.579  -7.773  1.00  0.00     0.125 C 
HETATM   33  C23 UNL     1     -20.952  16.491  -7.883  1.00  0.00     0.156 C 
HETATM   34  C21 UNL     1     -19.474  18.000  -8.960  1.00  0.00     0.022 C 
HETATM   35  C22 UNL     1     -19.776  16.488  -8.817  1.00  0.00     0.035 C 
BRANCH  30  36
HETATM   36  O5  UNL     1     -20.222  15.816  -5.319  1.00  0.00    -0.348 OA
ATOM     37  H5  UNL     1     -21.010  15.553  -5.779  1.00  0.00     0.219 HD
ENDBRANCH  30  36
BRANCH  33  38
HETATM   38  C24 UNL     1     -21.480  15.269  -7.379  1.00  0.00     0.154 C 
HETATM   39  O6  UNL     1     -20.670  14.276  -7.487  1.00  0.00    -0.295 OA
BRANCH  38  40
HETATM   40  C25 UNL     1     -22.753  14.911  -6.766  1.00  0.00     0.061 A 
HETATM   41  C26 UNL     1     -23.571  16.163  -6.301  1.00  0.00     0.017 A 
HETATM   42  C27 UNL     1     -24.096  15.120  -7.289  1.00  0.00    -0.007 A 
HETATM   43  C28 UNL     1     -25.208  14.260  -6.696  1.00  0.00     0.011 C 
ENDBRANCH  38  40
ENDBRANCH  33  38
ENDBRANCH  29  30
BRANCH  29  44
HETATM   44  C29 UNL     1     -20.358  18.007  -3.199  1.00  0.00    -0.023 C 
HETATM   45  C30 UNL     1     -20.549  16.856  -2.240  1.00  0.00     0.017 C 
HETATM   46  C31 UNL     1     -19.772  19.144  -2.319  1.00  0.00     0.017 C 
HETATM   47  C32 UNL     1     -21.779  18.511  -3.521  1.00  0.00     0.017 C 
ENDBRANCH  29  44
ENDBRANCH   5  29
TORSDOF 12
ENDMDL
MODEL 5
REMARK VINA RESULT: -9.387120926      1.197      1.760
REMARK  12 active torsions:
REMARK  status: ('A' for Active; 'I' for Inactive)
REMARK       I    between atoms: N1_2  and  C2_4 
REMARK    1  A    between atoms: C2_4  and  C3_6 
REMARK       I    between atoms: N2_10  and  C7_11 
REMARK    2  A    between atoms: C7_11  and  C8_13 
REMARK    3  A    between atoms: C8_13  and  C9_15 
REMARK    4  A    between atoms: C9_15  and  C10_16 
REMARK    5  A    between atoms: C9_15  and  N3_23 
REMARK    6  A    between atoms: C10_16  and  C11_17 
REMARK       I    between atoms: N3_23  and  C17_25 
REMARK       I    between atoms: C17_25  and  N4_27 
REMARK    7  A    between atoms: N4_27  and  C18_29 
REMARK    8  A    between atoms: C18_29  and  C19_30 
REMARK    9  A    between atoms: C18_29  and  C29_44 
REMARK   10  A    between atoms: C19_30  and  O5_31 
REMARK   11  A    between atoms: C23_37  and  C24_38 
REMARK   12  A    between atoms: C24_38  and  C25_40 
ROOT
HETATM    1  N3  UNL     1     -13.226  23.220  -8.381  1.00  0.00    -0.309 N 
ATOM      2  H3  UNL     1     -13.970  23.916  -8.328  1.00  0.00     0.170 HD
HETATM    3  C17 UNL     1     -12.073  23.721  -9.000  1.00  0.00     0.321 C 
HETATM    4  O4  UNL     1     -11.073  22.975  -9.110  1.00  0.00    -0.247 OA
HETATM    5  N4  UNL     1     -12.018  25.049  -9.487  1.00  0.00    -0.330 N 
ATOM      6  H4  UNL     1     -12.877  25.598  -9.482  1.00  0.00     0.165 HD
ENDROOT
BRANCH   1   7
HETATM    7  C9  UNL     1     -13.606  21.991  -7.814  1.00  0.00     0.070 C 
BRANCH   7   8
HETATM    8  C8  UNL     1     -14.788  21.418  -8.482  1.00  0.00     0.261 C 
HETATM    9  O3  UNL     1     -15.174  22.007  -9.557  1.00  0.00    -0.280 OA
BRANCH   8  10
HETATM   10  C7  UNL     1     -15.565  20.294  -8.049  1.00  0.00     0.296 C 
HETATM   11  N2  UNL     1     -16.838  20.304  -7.404  1.00  0.00    -0.332 N 
HETATM   12  C3  UNL     1     -17.549  19.086  -6.964  1.00  0.00     0.179 C 
HETATM   13  C6  UNL     1     -17.704  21.376  -6.992  1.00  0.00     0.127 C 
HETATM   14  C4  UNL     1     -17.985  19.449  -5.576  1.00  0.00     0.037 C 
HETATM   15  C5  UNL     1     -17.920  20.959  -5.517  1.00  0.00     0.022 C 
HETATM   16  O2  UNL     1     -15.100  19.105  -8.231  1.00  0.00    -0.264 OA
BRANCH  12  17
HETATM   17  C2  UNL     1     -18.641  18.811  -7.909  1.00  0.00     0.240 C 
HETATM   18  N1  UNL     1     -19.983  18.592  -7.442  1.00  0.00    -0.364 N 
HETATM   19  C1  UNL     1     -21.025  18.330  -8.390  1.00  0.00     0.149 C 
ATOM     20  H1  UNL     1     -20.191  18.623  -6.443  1.00  0.00     0.161 HD
HETATM   21  O1  UNL     1     -18.403  18.766  -9.136  1.00  0.00    -0.271 OA
ENDBRANCH  12  17
ENDBRANCH   8  10
ENDBRANCH   7   8
BRANCH   7  22
HETATM   22  C10 UNL     1     -13.246  21.607  -6.442  1.00  0.00     0.066 C 
BRANCH  22  23
HETATM   23  C11 UNL     1     -13.999  22.245  -5.312  1.00  0.00    -0.009 C 
HETATM   24  C12 UNL     1     -14.379  21.120  -4.325  1.00  0.00     0.005 C 
HETATM   25  C13 UNL     1     -15.270  21.653  -3.236  1.00  0.00     0.000 C 
HETATM   26  C14 UNL     1     -15.652  23.098  -3.438  1.00  0.00     0.000 C 
HETATM   27  C15 UNL     1     -14.417  23.919  -3.563  1.00  0.00     0.000 C 
HETATM   28  C16 UNL     1     -13.453  23.427  -4.637  1.00  0.00     0.005 C 
ENDBRANCH  22  23
ENDBRANCH   7  22
ENDBRANCH   1   7
BRANCH   5  29
HETATM   29  C18 UNL     1     -10.782  25.690 -10.005  1.00  0.00     0.168 C 
BRANCH  29  30
HETATM   30  C19 UNL     1     -10.243  26.468  -8.888  1.00  0.00     0.138 C 
HETATM   31  N5  UNL     1      -9.048  26.803  -8.324  1.00  0.00    -0.352 N 
HETATM   32  C20 UNL     1      -7.630  26.644  -8.577  1.00  0.00     0.125 C 
HETATM   33  C23 UNL     1      -8.890  27.601  -7.043  1.00  0.00     0.156 C 
HETATM   34  C21 UNL     1      -7.130  28.094  -8.553  1.00  0.00     0.022 C 
HETATM   35  C22 UNL     1      -8.217  28.779  -7.687  1.00  0.00     0.035 C 
BRANCH  30  36
HETATM   36  O5  UNL     1     -11.292  27.013  -8.246  1.00  0.00    -0.348 OA
ATOM     37  H5  UNL     1     -11.074  27.028  -7.321  1.00  0.00     0.219 HD
ENDBRANCH  30  36
BRANCH  33  38
HETATM   38  C24 UNL     1     -10.054  27.780  -6.244  1.00  0.00     0.154 C 
HETATM   39  O6  UNL     1     -10.625  28.919  -6.416  1.00  0.00    -0.295 OA
BRANCH  38  40
HETATM   40  C25 UNL     1     -10.732  26.935  -5.268  1.00  0.00     0.061 A 
HETATM   41  C26 UNL     1     -10.513  25.408  -5.537  1.00  0.00     0.017 A 
HETATM   42  C27 UNL     1     -10.141  26.106  -4.227  1.00  0.00    -0.007 A 
HETATM   43  C28 UNL     1     -11.050  25.701  -3.070  1.00  0.00     0.011 C 
ENDBRANCH  38  40
ENDBRANCH  33  38
ENDBRANCH  29  30
BRANCH  29  44
HETATM   44  C29 UNL     1     -10.879  26.199 -11.364  1.00  0.00    -0.023 C 
HETATM   45  C30 UNL     1      -9.908  27.294 -11.734  1.00  0.00     0.017 C 
HETATM   46  C31 UNL     1     -10.618  25.085 -12.415  1.00  0.00     0.017 C 
HETATM   47  C32 UNL     1     -12.270  26.734 -11.760  1.00  0.00     0.017 C 
ENDBRANCH  29  44
ENDBRANCH   5  29
TORSDOF 12
ENDMDL
