MODEL 1
REMARK VINA RESULT: -9.150177387      0.000      0.000
REMARK  12 active torsions:
REMARK  status: ('A' for Active; 'I' for Inactive)
REMARK    1  A    between atoms: C2_2  and  C3_3 
REMARK    2  A    between atoms: C3_3  and  N1_4 
REMARK    3  A    between atoms: C3_3  and  C25_39 
REMARK       I    between atoms: N1_4  and  C4_6 
REMARK    4  A    between atoms: C4_6  and  C5_8 
REMARK    5  A    between atoms: C6_9  and  C7_10 
REMARK    6  A    between atoms: C7_10  and  C8_11 
REMARK    7  A    between atoms: C8_11  and  O3_13 
REMARK       I    between atoms: N2_16  and  C11_17 
REMARK    8  A    between atoms: C11_17  and  C12_19 
REMARK    9  A    between atoms: C12_19  and  N3_21 
REMARK       I    between atoms: N3_21  and  C14_23 
REMARK       I    between atoms: C14_23  and  N4_25 
REMARK   10  A    between atoms: N4_25  and  C15_27 
REMARK   11  A    between atoms: C19_31  and  C20_32 
REMARK   12  A    between atoms: C20_32  and  O6_34 
REMARK       I    between atoms: C25_39  and  N5_41 
ROOT
HETATM    1  C5  UNL     1     -18.173  19.329  -7.093  1.00  0.00     0.113 C 
HETATM    2  C6  UNL     1     -18.665  19.489  -5.736  1.00  0.00    -0.043 C 
HETATM    3  C10 UNL     1     -19.851  18.594  -5.503  1.00  0.00     0.161 C 
HETATM    4  N2  UNL     1     -19.956  17.339  -6.143  1.00  0.00    -0.339 N 
HETATM    5  C11 UNL     1     -20.794  16.482  -5.378  1.00  0.00     0.243 C 
HETATM    6  O4  UNL     1     -20.952  15.298  -5.766  1.00  0.00    -0.271 OA
HETATM    7  C19 UNL     1     -19.496  16.681  -7.331  1.00  0.00     0.120 C 
HETATM    8  C22 UNL     1     -18.130  16.884  -7.789  1.00  0.00     0.017 A 
HETATM    9  C23 UNL     1     -17.731  17.748  -8.973  1.00  0.00     0.013 A 
HETATM   10  C24 UNL     1     -17.438  18.117  -7.495  1.00  0.00     0.009 A 
ENDROOT
BRANCH   1  11
HETATM   11  C4  UNL     1     -17.370  20.499  -7.545  1.00  0.00     0.227 C 
HETATM   12  N1  UNL     1     -15.997  20.529  -7.802  1.00  0.00    -0.347 N 
ATOM     13  H1  UNL     1     -15.459  19.667  -7.710  1.00  0.00     0.163 HD
HETATM   14  O1  UNL     1     -17.986  21.617  -7.718  1.00  0.00    -0.273 OA
BRANCH  12  15
HETATM   15  C3  UNL     1     -15.301  21.762  -8.202  1.00  0.00     0.176 C 
BRANCH  15  16
HETATM   16  C2  UNL     1     -14.707  21.580  -9.584  1.00  0.00     0.030 C 
HETATM   17  C1  UNL     1     -15.478  20.619 -10.449  1.00  0.00     0.007 C 
ENDBRANCH  15  16
BRANCH  15  18
HETATM   18  C25 UNL     1     -14.289  22.089  -7.199  1.00  0.00     0.242 C 
HETATM   19  O7  UNL     1     -13.094  21.745  -7.452  1.00  0.00    -0.271 OA
HETATM   20  N5  UNL     1     -14.535  22.752  -5.973  1.00  0.00    -0.350 N 
HETATM   21  C26 UNL     1     -15.816  23.185  -5.478  1.00  0.00     0.126 C 
HETATM   22  C30 UNL     1     -13.403  23.027  -5.063  1.00  0.00     0.126 C 
HETATM   23  C27 UNL     1     -15.558  24.280  -4.427  1.00  0.00     0.020 C 
HETATM   24  C28 UNL     1     -14.877  23.695  -3.218  1.00  0.00     0.003 C 
HETATM   25  C29 UNL     1     -13.934  22.606  -3.689  1.00  0.00     0.020 C 
ENDBRANCH  15  18
ENDBRANCH  12  15
ENDBRANCH   1  11
BRANCH   2  26
HETATM   26  C7  UNL     1     -17.775  19.601  -4.574  1.00  0.00     0.087 C 
BRANCH  26  27
HETATM   27  C8  UNL     1     -18.239  19.753  -3.234  1.00  0.00     0.282 C 
HETATM   28  O2  UNL     1     -18.109  18.963  -2.296  1.00  0.00    -0.260 OA
BRANCH  27  29
HETATM   29  O3  UNL     1     -18.936  20.940  -2.914  1.00  0.00    -0.323 OA
HETATM   30  C9  UNL     1     -18.437  22.175  -3.333  1.00  0.00     0.213 C 
ENDBRANCH  27  29
ENDBRANCH  26  27
ENDBRANCH   2  26
BRANCH   7  31
HETATM   31  C20 UNL     1     -20.441  16.868  -8.518  1.00  0.00     0.137 C 
HETATM   32  C21 UNL     1     -20.689  15.509  -9.169  1.00  0.00     0.041 C 
BRANCH  31  33
HETATM   33  O6  UNL     1     -21.693  17.352  -8.132  1.00  0.00    -0.394 OA
ATOM     34  H6  UNL     1     -22.288  17.444  -8.867  1.00  0.00     0.210 HD
ENDBRANCH  31  33
ENDBRANCH   7  31
BRANCH   5  35
HETATM   35  C12 UNL     1     -21.536  16.816  -4.134  1.00  0.00     0.174 C 
HETATM   36  C13 UNL     1     -20.687  16.886  -2.908  1.00  0.00     0.042 C 
BRANCH  35  37
HETATM   37  N3  UNL     1     -22.249  18.080  -4.319  1.00  0.00    -0.330 N 
HETATM   38  C14 UNL     1     -23.591  18.225  -3.878  1.00  0.00     0.317 C 
HETATM   39  O5  UNL     1     -24.126  17.258  -3.329  1.00  0.00    -0.247 OA
HETATM   40  N4  UNL     1     -24.241  19.505  -4.102  1.00  0.00    -0.335 N 
ATOM     41  H4  UNL     1     -23.718  20.251  -4.560  1.00  0.00     0.165 HD
ATOM     42  H3  UNL     1     -21.778  18.865  -4.769  1.00  0.00     0.165 HD
BRANCH  40  43
HETATM   43  C15 UNL     1     -25.598  19.750  -3.700  1.00  0.00     0.023 C 
HETATM   44  C16 UNL     1     -26.544  19.031  -4.655  1.00  0.00     0.037 C 
HETATM   45  C17 UNL     1     -25.862  19.345  -2.271  1.00  0.00     0.037 C 
HETATM   46  C18 UNL     1     -25.873  21.232  -3.826  1.00  0.00     0.037 C 
ENDBRANCH  40  43
ENDBRANCH  35  37
ENDBRANCH   5  35
TORSDOF 12
ENDMDL
MODEL 2
REMARK VINA RESULT: -9.106042451      1.888      8.447
REMARK  12 active torsions:
REMARK  status: ('A' for Active; 'I' for Inactive)
REMARK    1  A    between atoms: C2_2  and  C3_3 
REMARK    2  A    between atoms: C3_3  and  N1_4 
REMARK    3  A    between atoms: C3_3  and  C25_39 
REMARK       I    between atoms: N1_4  and  C4_6 
REMARK    4  A    between atoms: C4_6  and  C5_8 
REMARK    5  A    between atoms: C6_9  and  C7_10 
REMARK    6  A    between atoms: C7_10  and  C8_11 
REMARK    7  A    between atoms: C8_11  and  O3_13 
REMARK       I    between atoms: N2_16  and  C11_17 
REMARK    8  A    between atoms: C11_17  and  C12_19 
REMARK    9  A    between atoms: C12_19  and  N3_21 
REMARK       I    between atoms: N3_21  and  C14_23 
REMARK       I    between atoms: C14_23  and  N4_25 
REMARK   10  A    between atoms: N4_25  and  C15_27 
REMARK   11  A    between atoms: C19_31  and  C20_32 
REMARK   12  A    between atoms: C20_32  and  O6_34 
REMARK       I    between atoms: C25_39  and  N5_41 
ROOT
HETATM    1  C5  UNL     1     -19.755  18.239  -6.534  1.00  0.00     0.113 C 
HETATM    2  C6  UNL     1     -18.792  18.841  -5.629  1.00  0.00    -0.043 C 
HETATM    3  C10 UNL     1     -17.460  18.992  -6.310  1.00  0.00     0.161 C 
HETATM    4  N2  UNL     1     -17.373  19.249  -7.696  1.00  0.00    -0.339 N 
HETATM    5  C11 UNL     1     -16.139  19.892  -7.985  1.00  0.00     0.243 C 
HETATM    6  O4  UNL     1     -15.916  20.254  -9.168  1.00  0.00    -0.271 OA
HETATM    7  C19 UNL     1     -18.136  19.039  -8.891  1.00  0.00     0.120 C 
HETATM    8  C22 UNL     1     -19.579  19.223  -8.872  1.00  0.00     0.017 A 
HETATM    9  C23 UNL     1     -20.598  18.096  -8.879  1.00  0.00     0.013 A 
HETATM   10  C24 UNL     1     -20.325  19.008  -7.654  1.00  0.00     0.009 A 
ENDROOT
BRANCH   1  11
HETATM   11  C4  UNL     1     -20.893  17.607  -5.812  1.00  0.00     0.227 C 
HETATM   12  N1  UNL     1     -22.246  17.665  -6.157  1.00  0.00    -0.347 N 
ATOM     13  H1  UNL     1     -22.517  18.160  -7.007  1.00  0.00     0.163 HD
HETATM   14  O1  UNL     1     -20.627  16.936  -4.746  1.00  0.00    -0.273 OA
BRANCH  12  15
HETATM   15  C3  UNL     1     -23.292  17.036  -5.336  1.00  0.00     0.176 C 
BRANCH  15  16
HETATM   16  C2  UNL     1     -23.560  15.635  -5.846  1.00  0.00     0.030 C 
HETATM   17  C1  UNL     1     -23.087  15.408  -7.257  1.00  0.00     0.007 C 
ENDBRANCH  15  16
BRANCH  15  18
HETATM   18  C25 UNL     1     -24.490  17.875  -5.359  1.00  0.00     0.242 C 
HETATM   19  O7  UNL     1     -24.997  18.125  -6.494  1.00  0.00    -0.271 OA
HETATM   20  N5  UNL     1     -25.122  18.430  -4.221  1.00  0.00    -0.350 N 
HETATM   21  C26 UNL     1     -24.686  18.306  -2.854  1.00  0.00     0.126 C 
HETATM   22  C30 UNL     1     -26.340  19.250  -4.402  1.00  0.00     0.126 C 
HETATM   23  C27 UNL     1     -25.902  18.589  -1.954  1.00  0.00     0.020 C 
HETATM   24  C28 UNL     1     -26.319  20.031  -2.075  1.00  0.00     0.003 C 
HETATM   25  C29 UNL     1     -26.090  20.469  -3.508  1.00  0.00     0.020 C 
ENDBRANCH  15  18
ENDBRANCH  12  15
ENDBRANCH   1  11
BRANCH   2  26
HETATM   26  C7  UNL     1     -19.127  19.957  -4.737  1.00  0.00     0.087 C 
BRANCH  26  27
HETATM   27  C8  UNL     1     -18.377  20.290  -3.569  1.00  0.00     0.282 C 
HETATM   28  O2  UNL     1     -17.804  21.352  -3.319  1.00  0.00    -0.260 OA
BRANCH  27  29
HETATM   29  O3  UNL     1     -18.259  19.303  -2.565  1.00  0.00    -0.323 OA
HETATM   30  C9  UNL     1     -19.405  18.795  -1.950  1.00  0.00     0.213 C 
ENDBRANCH  27  29
ENDBRANCH  26  27
ENDBRANCH   2  26
BRANCH   7  31
HETATM   31  C20 UNL     1     -17.824  17.705  -9.570  1.00  0.00     0.137 C 
HETATM   32  C21 UNL     1     -17.426  17.971 -11.021  1.00  0.00     0.041 C 
BRANCH  31  33
HETATM   33  O6  UNL     1     -16.741  17.048  -8.982  1.00  0.00    -0.394 OA
ATOM     34  H6  UNL     1     -16.750  16.113  -9.151  1.00  0.00     0.210 HD
ENDBRANCH  31  33
ENDBRANCH   7  31
BRANCH   5  35
HETATM   35  C12 UNL     1     -15.036  20.203  -7.039  1.00  0.00     0.174 C 
HETATM   36  C13 UNL     1     -13.674  19.855  -7.540  1.00  0.00     0.042 C 
BRANCH  35  37
HETATM   37  N3  UNL     1     -15.088  21.621  -6.681  1.00  0.00    -0.330 N 
HETATM   38  C14 UNL     1     -14.612  22.068  -5.421  1.00  0.00     0.317 C 
HETATM   39  O5  UNL     1     -14.148  21.225  -4.647  1.00  0.00    -0.247 OA
HETATM   40  N4  UNL     1     -14.703  23.488  -5.129  1.00  0.00    -0.335 N 
ATOM     41  H4  UNL     1     -15.097  24.113  -5.833  1.00  0.00     0.165 HD
ATOM     42  H3  UNL     1     -15.470  22.296  -7.345  1.00  0.00     0.165 HD
BRANCH  40  43
HETATM   43  C15 UNL     1     -14.256  24.039  -3.880  1.00  0.00     0.023 C 
HETATM   44  C16 UNL     1     -14.964  23.326  -2.733  1.00  0.00     0.037 C 
HETATM   45  C17 UNL     1     -12.758  23.968  -3.717  1.00  0.00     0.037 C 
HETATM   46  C18 UNL     1     -14.665  25.495  -3.826  1.00  0.00     0.037 C 
ENDBRANCH  40  43
ENDBRANCH  35  37
ENDBRANCH   5  35
TORSDOF 12
ENDMDL
MODEL 3
REMARK VINA RESULT: -9.082511928      2.152      8.657
REMARK  12 active torsions:
REMARK  status: ('A' for Active; 'I' for Inactive)
REMARK    1  A    between atoms: C2_2  and  C3_3 
REMARK    2  A    between atoms: C3_3  and  N1_4 
REMARK    3  A    between atoms: C3_3  and  C25_39 
REMARK       I    between atoms: N1_4  and  C4_6 
REMARK    4  A    between atoms: C4_6  and  C5_8 
REMARK    5  A    between atoms: C6_9  and  C7_10 
REMARK    6  A    between atoms: C7_10  and  C8_11 
REMARK    7  A    between atoms: C8_11  and  O3_13 
REMARK       I    between atoms: N2_16  and  C11_17 
REMARK    8  A    between atoms: C11_17  and  C12_19 
REMARK    9  A    between atoms: C12_19  and  N3_21 
REMARK       I    between atoms: N3_21  and  C14_23 
REMARK       I    between atoms: C14_23  and  N4_25 
REMARK   10  A    between atoms: N4_25  and  C15_27 
REMARK   11  A    between atoms: C19_31  and  C20_32 
REMARK   12  A    between atoms: C20_32  and  O6_34 
REMARK       I    between atoms: C25_39  and  N5_41 
ROOT
HETATM    1  C5  UNL     1     -19.648  18.190  -6.490  1.00  0.00     0.113 C 
HETATM    2  C6  UNL     1     -19.000  18.672  -5.282  1.00  0.00    -0.043 C 
HETATM    3  C10 UNL     1     -17.561  19.004  -5.560  1.00  0.00     0.161 C 
HETATM    4  N2  UNL     1     -17.155  19.502  -6.818  1.00  0.00    -0.339 N 
HETATM    5  C11 UNL     1     -15.953  20.246  -6.672  1.00  0.00     0.243 C 
HETATM    6  O4  UNL     1     -15.477  20.818  -7.684  1.00  0.00    -0.271 OA
HETATM    7  C19 UNL     1     -17.574  19.466  -8.189  1.00  0.00     0.120 C 
HETATM    8  C22 UNL     1     -18.987  19.572  -8.519  1.00  0.00     0.017 A 
HETATM    9  C23 UNL     1     -19.863  18.414  -8.966  1.00  0.00     0.013 A 
HETATM   10  C24 UNL     1     -19.989  19.112  -7.586  1.00  0.00     0.009 A 
ENDROOT
BRANCH   1  11
HETATM   11  C4  UNL     1     -20.867  17.387  -6.196  1.00  0.00     0.227 C 
HETATM   12  N1  UNL     1     -22.162  17.619  -6.669  1.00  0.00    -0.347 N 
ATOM     13  H1  UNL     1     -22.321  18.396  -7.310  1.00  0.00     0.163 HD
HETATM   14  O1  UNL     1     -20.740  16.367  -5.420  1.00  0.00    -0.273 OA
BRANCH  12  15
HETATM   15  C3  UNL     1     -23.303  16.779  -6.271  1.00  0.00     0.176 C 
BRANCH  15  16
HETATM   16  C2  UNL     1     -23.503  15.682  -7.297  1.00  0.00     0.030 C 
HETATM   17  C1  UNL     1     -24.498  14.636  -6.872  1.00  0.00     0.007 C 
ENDBRANCH  15  16
BRANCH  15  18
HETATM   18  C25 UNL     1     -24.488  17.621  -6.118  1.00  0.00     0.242 C 
HETATM   19  O7  UNL     1     -25.126  17.918  -7.173  1.00  0.00    -0.271 OA
HETATM   20  N5  UNL     1     -24.976  18.133  -4.892  1.00  0.00    -0.350 N 
HETATM   21  C26 UNL     1     -24.380  17.954  -3.593  1.00  0.00     0.126 C 
HETATM   22  C30 UNL     1     -26.200  18.963  -4.893  1.00  0.00     0.126 C 
HETATM   23  C27 UNL     1     -25.476  18.205  -2.543  1.00  0.00     0.020 C 
HETATM   24  C28 UNL     1     -25.894  19.651  -2.557  1.00  0.00     0.003 C 
HETATM   25  C29 UNL     1     -25.835  20.145  -3.988  1.00  0.00     0.020 C 
ENDBRANCH  15  18
ENDBRANCH  12  15
ENDBRANCH   1  11
BRANCH   2  26
HETATM   26  C7  UNL     1     -19.649  19.599  -4.347  1.00  0.00     0.087 C 
BRANCH  26  27
HETATM   27  C8  UNL     1     -19.133  19.906  -3.052  1.00  0.00     0.282 C 
HETATM   28  O2  UNL     1     -19.296  19.273  -2.007  1.00  0.00    -0.260 OA
BRANCH  27  29
HETATM   29  O3  UNL     1     -18.341  21.068  -2.923  1.00  0.00    -0.323 OA
HETATM   30  C9  UNL     1     -18.506  22.128  -3.817  1.00  0.00     0.213 C 
ENDBRANCH  27  29
ENDBRANCH  26  27
ENDBRANCH   2  26
BRANCH   7  31
HETATM   31  C20 UNL     1     -16.981  18.287  -8.961  1.00  0.00     0.137 C 
HETATM   32  C21 UNL     1     -16.554  18.769 -10.346  1.00  0.00     0.041 C 
BRANCH  31  33
HETATM   33  O6  UNL     1     -15.832  17.775  -8.353  1.00  0.00    -0.394 OA
ATOM     34  H6  UNL     1     -15.854  16.828  -8.276  1.00  0.00     0.210 HD
ENDBRANCH  31  33
ENDBRANCH   7  31
BRANCH   5  35
HETATM   35  C12 UNL     1     -15.155  20.442  -5.434  1.00  0.00     0.174 C 
HETATM   36  C13 UNL     1     -14.383  19.240  -4.999  1.00  0.00     0.042 C 
BRANCH  35  37
HETATM   37  N3  UNL     1     -14.248  21.577  -5.615  1.00  0.00    -0.330 N 
HETATM   38  C14 UNL     1     -14.170  22.604  -4.638  1.00  0.00     0.317 C 
HETATM   39  O5  UNL     1     -14.883  22.502  -3.634  1.00  0.00    -0.247 OA
HETATM   40  N4  UNL     1     -13.256  23.705  -4.887  1.00  0.00    -0.335 N 
ATOM     41  H4  UNL     1     -12.702  23.703  -5.743  1.00  0.00     0.165 HD
ATOM     42  H3  UNL     1     -13.666  21.630  -6.451  1.00  0.00     0.165 HD
BRANCH  40  43
HETATM   43  C15 UNL     1     -13.110  24.796  -3.965  1.00  0.00     0.023 C 
HETATM   44  C16 UNL     1     -14.438  25.536  -3.844  1.00  0.00     0.037 C 
HETATM   45  C17 UNL     1     -12.616  24.350  -2.611  1.00  0.00     0.037 C 
HETATM   46  C18 UNL     1     -12.103  25.772  -4.534  1.00  0.00     0.037 C 
ENDBRANCH  40  43
ENDBRANCH  35  37
ENDBRANCH   5  35
TORSDOF 12
ENDMDL
MODEL 4
REMARK VINA RESULT: -9.071893117      1.934      8.448
REMARK  12 active torsions:
REMARK  status: ('A' for Active; 'I' for Inactive)
REMARK    1  A    between atoms: C2_2  and  C3_3 
REMARK    2  A    between atoms: C3_3  and  N1_4 
REMARK    3  A    between atoms: C3_3  and  C25_39 
REMARK       I    between atoms: N1_4  and  C4_6 
REMARK    4  A    between atoms: C4_6  and  C5_8 
REMARK    5  A    between atoms: C6_9  and  C7_10 
REMARK    6  A    between atoms: C7_10  and  C8_11 
REMARK    7  A    between atoms: C8_11  and  O3_13 
REMARK       I    between atoms: N2_16  and  C11_17 
REMARK    8  A    between atoms: C11_17  and  C12_19 
REMARK    9  A    between atoms: C12_19  and  N3_21 
REMARK       I    between atoms: N3_21  and  C14_23 
REMARK       I    between atoms: C14_23  and  N4_25 
REMARK   10  A    between atoms: N4_25  and  C15_27 
REMARK   11  A    between atoms: C19_31  and  C20_32 
REMARK   12  A    between atoms: C20_32  and  O6_34 
REMARK       I    between atoms: C25_39  and  N5_41 
ROOT
HETATM    1  C5  UNL     1     -19.590  18.315  -6.442  1.00  0.00     0.113 C 
HETATM    2  C6  UNL     1     -18.604  18.906  -5.553  1.00  0.00    -0.043 C 
HETATM    3  C10 UNL     1     -17.281  19.035  -6.255  1.00  0.00     0.161 C 
HETATM    4  N2  UNL     1     -17.211  19.285  -7.644  1.00  0.00    -0.339 N 
HETATM    5  C11 UNL     1     -15.972  19.909  -7.955  1.00  0.00     0.243 C 
HETATM    6  O4  UNL     1     -15.763  20.262  -9.142  1.00  0.00    -0.271 OA
HETATM    7  C19 UNL     1     -17.996  19.082  -8.826  1.00  0.00     0.120 C 
HETATM    8  C22 UNL     1     -19.436  19.288  -8.786  1.00  0.00     0.017 A 
HETATM    9  C23 UNL     1     -20.471  18.175  -8.773  1.00  0.00     0.013 A 
HETATM   10  C24 UNL     1     -20.165  19.088  -7.556  1.00  0.00     0.009 A 
ENDROOT
BRANCH   1  11
HETATM   11  C4  UNL     1     -20.726  17.704  -5.699  1.00  0.00     0.227 C 
HETATM   12  N1  UNL     1     -22.069  17.679  -6.086  1.00  0.00    -0.347 N 
ATOM     13  H1  UNL     1     -22.332  18.089  -6.982  1.00  0.00     0.163 HD
HETATM   14  O1  UNL     1     -20.469  17.136  -4.572  1.00  0.00    -0.273 OA
BRANCH  12  15
HETATM   15  C3  UNL     1     -23.117  17.082  -5.242  1.00  0.00     0.176 C 
BRANCH  15  16
HETATM   16  C2  UNL     1     -23.337  15.641  -5.656  1.00  0.00     0.030 C 
HETATM   17  C1  UNL     1     -22.801  15.320  -7.026  1.00  0.00     0.007 C 
ENDBRANCH  15  16
BRANCH  15  18
HETATM   18  C25 UNL     1     -24.334  17.884  -5.349  1.00  0.00     0.242 C 
HETATM   19  O7  UNL     1     -24.825  18.037  -6.509  1.00  0.00    -0.271 OA
HETATM   20  N5  UNL     1     -25.004  18.505  -4.268  1.00  0.00    -0.350 N 
HETATM   21  C26 UNL     1     -24.593  18.492  -2.887  1.00  0.00     0.126 C 
HETATM   22  C30 UNL     1     -26.238  19.276  -4.531  1.00  0.00     0.126 C 
HETATM   23  C27 UNL     1     -25.834  18.808  -2.033  1.00  0.00     0.020 C 
HETATM   24  C28 UNL     1     -26.285  20.225  -2.268  1.00  0.00     0.003 C 
HETATM   25  C29 UNL     1     -26.037  20.563  -3.725  1.00  0.00     0.020 C 
ENDBRANCH  15  18
ENDBRANCH  12  15
ENDBRANCH   1  11
BRANCH   2  26
HETATM   26  C7  UNL     1     -18.909  20.032  -4.662  1.00  0.00     0.087 C 
BRANCH  26  27
HETATM   27  C8  UNL     1     -17.922  20.926  -4.151  1.00  0.00     0.282 C 
HETATM   28  O2  UNL     1     -17.026  20.677  -3.341  1.00  0.00    -0.260 OA
BRANCH  27  29
HETATM   29  O3  UNL     1     -17.951  22.262  -4.608  1.00  0.00    -0.323 OA
HETATM   30  C9  UNL     1     -18.076  22.530  -5.972  1.00  0.00     0.213 C 
ENDBRANCH  27  29
ENDBRANCH  26  27
ENDBRANCH   2  26
BRANCH   7  31
HETATM   31  C20 UNL     1     -17.714  17.741  -9.505  1.00  0.00     0.137 C 
HETATM   32  C21 UNL     1     -17.369  17.992 -10.971  1.00  0.00     0.041 C 
BRANCH  31  33
HETATM   33  O6  UNL     1     -16.613  17.084  -8.950  1.00  0.00    -0.394 OA
ATOM     34  H6  UNL     1     -16.583  16.164  -9.186  1.00  0.00     0.210 HD
ENDBRANCH  31  33
ENDBRANCH   7  31
BRANCH   5  35
HETATM   35  C12 UNL     1     -14.851  20.207  -7.026  1.00  0.00     0.174 C 
HETATM   36  C13 UNL     1     -13.503  19.828  -7.543  1.00  0.00     0.042 C 
BRANCH  35  37
HETATM   37  N3  UNL     1     -14.871  21.629  -6.682  1.00  0.00    -0.330 N 
HETATM   38  C14 UNL     1     -14.419  22.073  -5.411  1.00  0.00     0.317 C 
HETATM   39  O5  UNL     1     -14.005  21.223  -4.617  1.00  0.00    -0.247 OA
HETATM   40  N4  UNL     1     -14.476  23.497  -5.133  1.00  0.00    -0.335 N 
ATOM     41  H4  UNL     1     -14.830  24.127  -5.853  1.00  0.00     0.165 HD
ATOM     42  H3  UNL     1     -15.212  22.309  -7.362  1.00  0.00     0.165 HD
BRANCH  40  43
HETATM   43  C15 UNL     1     -14.051  24.045  -3.876  1.00  0.00     0.023 C 
HETATM   44  C16 UNL     1     -14.766  23.319  -2.741  1.00  0.00     0.037 C 
HETATM   45  C17 UNL     1     -12.554  23.987  -3.694  1.00  0.00     0.037 C 
HETATM   46  C18 UNL     1     -14.474  25.496  -3.819  1.00  0.00     0.037 C 
ENDBRANCH  40  43
ENDBRANCH  35  37
ENDBRANCH   5  35
TORSDOF 12
ENDMDL
MODEL 5
REMARK VINA RESULT: -9.014200557      2.177      8.748
REMARK  12 active torsions:
REMARK  status: ('A' for Active; 'I' for Inactive)
REMARK    1  A    between atoms: C2_2  and  C3_3 
REMARK    2  A    between atoms: C3_3  and  N1_4 
REMARK    3  A    between atoms: C3_3  and  C25_39 
REMARK       I    between atoms: N1_4  and  C4_6 
REMARK    4  A    between atoms: C4_6  and  C5_8 
REMARK    5  A    between atoms: C6_9  and  C7_10 
REMARK    6  A    between atoms: C7_10  and  C8_11 
REMARK    7  A    between atoms: C8_11  and  O3_13 
REMARK       I    between atoms: N2_16  and  C11_17 
REMARK    8  A    between atoms: C11_17  and  C12_19 
REMARK    9  A    between atoms: C12_19  and  N3_21 
REMARK       I    between atoms: N3_21  and  C14_23 
REMARK       I    between atoms: C14_23  and  N4_25 
REMARK   10  A    between atoms: N4_25  and  C15_27 
REMARK   11  A    between atoms: C19_31  and  C20_32 
REMARK   12  A    between atoms: C20_32  and  O6_34 
REMARK       I    between atoms: C25_39  and  N5_41 
ROOT
HETATM    1  C5  UNL     1     -19.460  18.289  -6.416  1.00  0.00     0.113 C 
HETATM    2  C6  UNL     1     -18.770  18.685  -5.201  1.00  0.00    -0.043 C 
HETATM    3  C10 UNL     1     -17.344  19.050  -5.507  1.00  0.00     0.161 C 
HETATM    4  N2  UNL     1     -16.989  19.643  -6.738  1.00  0.00    -0.339 N 
HETATM    5  C11 UNL     1     -15.787  20.385  -6.582  1.00  0.00     0.243 C 
HETATM    6  O4  UNL     1     -15.353  21.035  -7.566  1.00  0.00    -0.271 OA
HETATM    7  C19 UNL     1     -17.460  19.706  -8.091  1.00  0.00     0.120 C 
HETATM    8  C22 UNL     1     -18.885  19.824  -8.360  1.00  0.00     0.017 A 
HETATM    9  C23 UNL     1     -19.770  18.695  -8.859  1.00  0.00     0.013 A 
HETATM   10  C24 UNL     1     -19.848  19.287  -7.427  1.00  0.00     0.009 A 
ENDROOT
BRANCH   1  11
HETATM   11  C4  UNL     1     -20.663  17.456  -6.138  1.00  0.00     0.227 C 
HETATM   12  N1  UNL     1     -21.951  17.641  -6.647  1.00  0.00    -0.347 N 
ATOM     13  H1  UNL     1     -22.116  18.401  -7.306  1.00  0.00     0.163 HD
HETATM   14  O1  UNL     1     -20.526  16.455  -5.340  1.00  0.00    -0.273 OA
BRANCH  12  15
HETATM   15  C3  UNL     1     -23.077  16.775  -6.263  1.00  0.00     0.176 C 
BRANCH  15  16
HETATM   16  C2  UNL     1     -23.224  15.659  -7.276  1.00  0.00     0.030 C 
HETATM   17  C1  UNL     1     -24.233  14.615  -6.880  1.00  0.00     0.007 C 
ENDBRANCH  15  16
BRANCH  15  18
HETATM   18  C25 UNL     1     -24.288  17.586  -6.148  1.00  0.00     0.242 C 
HETATM   19  O7  UNL     1     -24.915  17.842  -7.221  1.00  0.00    -0.271 OA
HETATM   20  N5  UNL     1     -24.813  18.109  -4.942  1.00  0.00    -0.350 N 
HETATM   21  C26 UNL     1     -24.237  17.973  -3.629  1.00  0.00     0.126 C 
HETATM   22  C30 UNL     1     -26.060  18.903  -4.983  1.00  0.00     0.126 C 
HETATM   23  C27 UNL     1     -25.359  18.214  -2.605  1.00  0.00     0.020 C 
HETATM   24  C28 UNL     1     -25.818  19.647  -2.657  1.00  0.00     0.003 C 
HETATM   25  C29 UNL     1     -25.746  20.113  -4.097  1.00  0.00     0.020 C 
ENDBRANCH  15  18
ENDBRANCH  12  15
ENDBRANCH   1  11
BRANCH   2  26
HETATM   26  C7  UNL     1     -19.388  19.534  -4.176  1.00  0.00     0.087 C 
BRANCH  26  27
HETATM   27  C8  UNL     1     -19.598  19.120  -2.827  1.00  0.00     0.282 C 
HETATM   28  O2  UNL     1     -18.777  19.098  -1.908  1.00  0.00    -0.260 OA
BRANCH  27  29
HETATM   29  O3  UNL     1     -20.891  18.673  -2.474  1.00  0.00    -0.323 OA
HETATM   30  C9  UNL     1     -21.044  17.527  -1.691  1.00  0.00     0.213 C 
ENDBRANCH  27  29
ENDBRANCH  26  27
ENDBRANCH   2  26
BRANCH   7  31
HETATM   31  C20 UNL     1     -16.889  18.592  -8.971  1.00  0.00     0.137 C 
HETATM   32  C21 UNL     1     -16.381  19.205 -10.275  1.00  0.00     0.041 C 
BRANCH  31  33
HETATM   33  O6  UNL     1     -15.792  17.958  -8.384  1.00  0.00    -0.394 OA
ATOM     34  H6  UNL     1     -15.621  17.104  -8.764  1.00  0.00     0.210 HD
ENDBRANCH  31  33
ENDBRANCH   7  31
BRANCH   5  35
HETATM   35  C12 UNL     1     -14.943  20.495  -5.363  1.00  0.00     0.174 C 
HETATM   36  C13 UNL     1     -14.218  19.242  -4.998  1.00  0.00     0.042 C 
BRANCH  35  37
HETATM   37  N3  UNL     1     -13.989  21.591  -5.531  1.00  0.00    -0.330 N 
HETATM   38  C14 UNL     1     -13.944  22.661  -4.598  1.00  0.00     0.317 C 
HETATM   39  O5  UNL     1     -14.727  22.628  -3.644  1.00  0.00    -0.247 OA
HETATM   40  N4  UNL     1     -12.978  23.721  -4.832  1.00  0.00    -0.335 N 
ATOM     41  H4  UNL     1     -12.366  23.661  -5.645  1.00  0.00     0.165 HD
ATOM     42  H3  UNL     1     -13.348  21.587  -6.325  1.00  0.00     0.165 HD
BRANCH  40  43
HETATM   43  C15 UNL     1     -12.860  24.849  -3.952  1.00  0.00     0.023 C 
HETATM   44  C16 UNL     1     -14.211  25.546  -3.840  1.00  0.00     0.037 C 
HETATM   45  C17 UNL     1     -12.334  24.471  -2.589  1.00  0.00     0.037 C 
HETATM   46  C18 UNL     1     -11.894  25.837  -4.569  1.00  0.00     0.037 C 
ENDBRANCH  40  43
ENDBRANCH  35  37
ENDBRANCH   5  35
TORSDOF 12
ENDMDL
