MODEL 1
REMARK VINA RESULT: -10.405205799      0.000      0.000
REMARK  10 active torsions:
REMARK  status: ('A' for Active; 'I' for Inactive)
REMARK    1  A    between atoms: C6_7  and  C7_8 
REMARK       I    between atoms: C7_8  and  N2_10 
REMARK    2  A    between atoms: N2_10  and  C8_12 
REMARK    3  A    between atoms: C10_14  and  C11_15 
REMARK       I    between atoms: C11_15  and  N3_17 
REMARK    4  A    between atoms: N3_17  and  C12_19 
REMARK    5  A    between atoms: C12_19  and  C13_20 
REMARK    6  A    between atoms: N5_27  and  C17_28 
REMARK    7  A    between atoms: C17_28  and  C18_29 
REMARK    8  A    between atoms: C18_29  and  C19_30 
REMARK    9  A    between atoms: N6_33  and  C22_34 
REMARK   10  A    between atoms: C22_34  and  C23_35 
ROOT
HETATM    1  C13 UNL     1     -11.715  24.577  -3.816  1.00  0.00     0.259 C 
HETATM    2  C14 UNL     1     -10.626  25.514  -3.378  1.00  0.00     0.160 C 
HETATM    3  N4  UNL     1     -10.526  26.718  -4.170  1.00  0.00    -0.357 N 
ATOM      4  H4  UNL     1     -10.372  27.631  -3.744  1.00  0.00     0.162 HD
HETATM    5  C15 UNL     1     -10.655  26.556  -5.594  1.00  0.00     0.246 C 
HETATM    6  O3  UNL     1     -10.571  27.463  -6.401  1.00  0.00    -0.272 OA
HETATM    7  C16 UNL     1     -10.908  25.148  -5.992  1.00  0.00     0.375 C 
HETATM    8  N5  UNL     1     -11.910  24.491  -5.194  1.00  0.00     0.105 N 
ENDROOT
BRANCH   1   9
HETATM    9  C12 UNL     1     -12.927  24.894  -2.968  1.00  0.00     0.160 C 
BRANCH   9  10
HETATM   10  N3  UNL     1     -14.133  24.209  -3.335  1.00  0.00    -0.359 N 
HETATM   11  C11 UNL     1     -14.780  23.431  -2.352  1.00  0.00     0.222 C 
HETATM   12  O2  UNL     1     -14.315  23.347  -1.205  1.00  0.00    -0.273 OA
ATOM     13  H3  UNL     1     -14.512  24.283  -4.279  1.00  0.00     0.162 HD
BRANCH  11  14
HETATM   14  C10 UNL     1     -16.021  22.717  -2.700  1.00  0.00     0.080 C 
HETATM   15  C9  UNL     1     -15.846  21.268  -3.019  1.00  0.00     0.040 C 
HETATM   16  C8  UNL     1     -16.834  20.980  -4.097  1.00  0.00     0.093 C 
HETATM   17  C32 UNL     1     -17.474  22.261  -4.478  1.00  0.00    -0.026 C 
HETATM   18  C31 UNL     1     -16.541  23.339  -4.005  1.00  0.00     0.025 C 
HETATM   19  C33 UNL     1     -17.593  22.426  -5.981  1.00  0.00     0.017 C 
HETATM   20  C34 UNL     1     -18.810  22.482  -3.796  1.00  0.00     0.017 C 
BRANCH  16  21
HETATM   21  N2  UNL     1     -17.793  19.960  -3.709  1.00  0.00    -0.354 N 
HETATM   22  C7  UNL     1     -18.022  18.770  -4.403  1.00  0.00     0.240 C 
HETATM   23  O1  UNL     1     -17.384  18.514  -5.443  1.00  0.00    -0.271 OA
ATOM     24  H2  UNL     1     -18.341  20.126  -2.865  1.00  0.00     0.162 HD
BRANCH  22  25
HETATM   25  C6  UNL     1     -19.024  17.805  -3.907  1.00  0.00     0.171 C 
HETATM   26  N1  UNL     1     -20.007  18.431  -3.088  1.00  0.00    -0.404 N 
HETATM   27  C1  UNL     1     -20.272  17.716  -1.858  1.00  0.00     0.144 C 
HETATM   28  C2  UNL     1     -21.165  18.938  -3.734  1.00  0.00     0.117 C 
HETATM   29  C3  UNL     1     -21.818  17.903  -4.658  1.00  0.00     0.019 C 
HETATM   30  C4  UNL     1     -20.759  17.604  -5.719  1.00  0.00     0.004 C 
HETATM   31  C5  UNL     1     -19.599  16.956  -5.013  1.00  0.00     0.035 C 
ENDBRANCH  22  25
ENDBRANCH  16  21
ENDBRANCH  11  14
ENDBRANCH   9  10
ENDBRANCH   1   9
BRANCH   8  32
HETATM   32  C17 UNL     1     -12.008  23.143  -5.754  1.00  0.00     0.274 C 
BRANCH  32  33
HETATM   33  C18 UNL     1     -11.713  23.177  -7.200  1.00  0.00     0.035 C 
BRANCH  33  34
HETATM   34  C19 UNL     1     -12.460  22.100  -8.013  1.00  0.00    -0.007 C 
HETATM   35  C20 UNL     1     -13.118  21.097  -7.168  1.00  0.00     0.049 C 
HETATM   36  C21 UNL     1     -14.582  20.848  -7.443  1.00  0.00     0.064 C 
HETATM   37  N6  UNL     1     -14.863  20.898  -8.814  1.00  0.00    -0.370 N 
HETATM   38  C29 UNL     1     -14.606  22.184  -9.346  1.00  0.00     0.128 C 
HETATM   39  C30 UNL     1     -13.238  22.714  -9.121  1.00  0.00     0.025 C 
BRANCH  37  40
HETATM   40  C22 UNL     1     -15.759  20.043  -9.419  1.00  0.00     0.092 C 
BRANCH  40  41
HETATM   41  C23 UNL     1     -16.672  19.169  -8.610  1.00  0.00    -0.064 C 
HETATM   42  C24 UNL     1     -16.421  17.707  -8.723  1.00  0.00     0.035 C 
HETATM   43  C25 UNL     1     -17.515  16.910  -9.388  1.00  0.00     0.004 C 
HETATM   44  C26 UNL     1     -18.852  17.285  -8.768  1.00  0.00     0.001 C 
HETATM   45  C27 UNL     1     -19.101  18.721  -9.220  1.00  0.00     0.004 C 
HETATM   46  C28 UNL     1     -18.086  19.597  -8.583  1.00  0.00     0.035 C 
ENDBRANCH  40  41
ENDBRANCH  37  40
ENDBRANCH  33  34
ENDBRANCH  32  33
ENDBRANCH   8  32
TORSDOF 10
ENDMDL
MODEL 2
REMARK VINA RESULT: -10.188475596      3.182     10.163
REMARK  10 active torsions:
REMARK  status: ('A' for Active; 'I' for Inactive)
REMARK    1  A    between atoms: C6_7  and  C7_8 
REMARK       I    between atoms: C7_8  and  N2_10 
REMARK    2  A    between atoms: N2_10  and  C8_12 
REMARK    3  A    between atoms: C10_14  and  C11_15 
REMARK       I    between atoms: C11_15  and  N3_17 
REMARK    4  A    between atoms: N3_17  and  C12_19 
REMARK    5  A    between atoms: C12_19  and  C13_20 
REMARK    6  A    between atoms: N5_27  and  C17_28 
REMARK    7  A    between atoms: C17_28  and  C18_29 
REMARK    8  A    between atoms: C18_29  and  C19_30 
REMARK    9  A    between atoms: N6_33  and  C22_34 
REMARK   10  A    between atoms: C22_34  and  C23_35 
ROOT
HETATM    1  C13 UNL     1     -23.211  15.839  -6.365  1.00  0.00     0.259 C 
HETATM    2  C14 UNL     1     -24.674  15.672  -6.665  1.00  0.00     0.160 C 
HETATM    3  N4  UNL     1     -25.406  16.913  -6.755  1.00  0.00    -0.357 N 
ATOM      4  H4  UNL     1     -26.104  17.075  -7.481  1.00  0.00     0.162 HD
HETATM    5  C15 UNL     1     -25.097  17.908  -5.762  1.00  0.00     0.246 C 
HETATM    6  O3  UNL     1     -25.640  18.995  -5.683  1.00  0.00    -0.272 OA
HETATM    7  C16 UNL     1     -24.030  17.474  -4.826  1.00  0.00     0.375 C 
HETATM    8  N5  UNL     1     -22.898  16.868  -5.477  1.00  0.00     0.105 N 
ENDROOT
BRANCH   1   9
HETATM    9  C12 UNL     1     -22.493  15.835  -7.696  1.00  0.00     0.160 C 
BRANCH   9  10
HETATM   10  N3  UNL     1     -21.099  16.175  -7.645  1.00  0.00    -0.359 N 
HETATM   11  C11 UNL     1     -20.723  17.489  -7.997  1.00  0.00     0.222 C 
HETATM   12  O2  UNL     1     -21.578  18.322  -8.337  1.00  0.00    -0.273 OA
ATOM     13  H3  UNL     1     -20.401  15.487  -7.363  1.00  0.00     0.162 HD
BRANCH  11  14
HETATM   14  C10 UNL     1     -19.300  17.867  -7.953  1.00  0.00     0.080 C 
HETATM   15  C9  UNL     1     -19.038  19.338  -7.964  1.00  0.00     0.040 C 
HETATM   16  C8  UNL     1     -17.790  19.509  -8.759  1.00  0.00     0.093 C 
HETATM   17  C32 UNL     1     -17.412  18.183  -9.301  1.00  0.00    -0.026 C 
HETATM   18  C31 UNL     1     -18.663  17.353  -9.254  1.00  0.00     0.025 C 
HETATM   19  C33 UNL     1     -16.996  18.247 -10.759  1.00  0.00     0.017 C 
HETATM   20  C34 UNL     1     -16.364  17.476  -8.464  1.00  0.00     0.017 C 
BRANCH  16  21
HETATM   21  N2  UNL     1     -16.725  20.132  -7.990  1.00  0.00    -0.354 N 
HETATM   22  C7  UNL     1     -15.795  21.041  -8.498  1.00  0.00     0.240 C 
HETATM   23  O1  UNL     1     -15.833  21.376  -9.698  1.00  0.00    -0.271 OA
ATOM     24  H2  UNL     1     -16.652  19.885  -7.003  1.00  0.00     0.162 HD
BRANCH  22  25
HETATM   25  C6  UNL     1     -14.758  21.610  -7.615  1.00  0.00     0.171 C 
HETATM   26  N1  UNL     1     -13.990  20.598  -6.972  1.00  0.00    -0.404 N 
HETATM   27  C1  UNL     1     -13.813  20.823  -5.554  1.00  0.00     0.144 C 
HETATM   28  C2  UNL     1     -12.827  20.139  -7.644  1.00  0.00     0.117 C 
HETATM   29  C3  UNL     1     -11.922  21.291  -8.097  1.00  0.00     0.019 C 
HETATM   30  C4  UNL     1     -12.772  22.089  -9.084  1.00  0.00     0.004 C 
HETATM   31  C5  UNL     1     -13.928  22.661  -8.309  1.00  0.00     0.035 C 
ENDBRANCH  22  25
ENDBRANCH  16  21
ENDBRANCH  11  14
ENDBRANCH   9  10
ENDBRANCH   1   9
BRANCH   8  32
HETATM   32  C17 UNL     1     -21.979  16.531  -4.390  1.00  0.00     0.274 C 
BRANCH  32  33
HETATM   33  C18 UNL     1     -21.599  17.754  -3.657  1.00  0.00     0.035 C 
BRANCH  33  34
HETATM   34  C19 UNL     1     -20.189  18.276  -4.006  1.00  0.00    -0.007 C 
HETATM   35  C20 UNL     1     -20.211  19.574  -4.688  1.00  0.00     0.049 C 
HETATM   36  C21 UNL     1     -19.339  20.656  -4.095  1.00  0.00     0.064 C 
HETATM   37  N6  UNL     1     -18.127  20.137  -3.622  1.00  0.00    -0.370 N 
HETATM   38  C29 UNL     1     -18.338  19.218  -2.566  1.00  0.00     0.128 C 
HETATM   39  C30 UNL     1     -19.255  18.090  -2.864  1.00  0.00     0.025 C 
BRANCH  37  40
HETATM   40  C22 UNL     1     -16.931  20.808  -3.754  1.00  0.00     0.092 C 
BRANCH  40  41
HETATM   41  C23 UNL     1     -16.800  22.252  -3.369  1.00  0.00    -0.064 C 
HETATM   42  C24 UNL     1     -16.907  23.224  -4.491  1.00  0.00     0.035 C 
HETATM   43  C25 UNL     1     -15.648  23.995  -4.803  1.00  0.00     0.004 C 
HETATM   44  C26 UNL     1     -15.078  24.564  -3.514  1.00  0.00     0.001 C 
HETATM   45  C27 UNL     1     -14.593  23.346  -2.733  1.00  0.00     0.004 C 
HETATM   46  C28 UNL     1     -15.773  22.535  -2.344  1.00  0.00     0.035 C 
ENDBRANCH  40  41
ENDBRANCH  37  40
ENDBRANCH  33  34
ENDBRANCH  32  33
ENDBRANCH   8  32
TORSDOF 10
ENDMDL
MODEL 3
REMARK VINA RESULT: -10.163335645      2.770     10.056
REMARK  10 active torsions:
REMARK  status: ('A' for Active; 'I' for Inactive)
REMARK    1  A    between atoms: C6_7  and  C7_8 
REMARK       I    between atoms: C7_8  and  N2_10 
REMARK    2  A    between atoms: N2_10  and  C8_12 
REMARK    3  A    between atoms: C10_14  and  C11_15 
REMARK       I    between atoms: C11_15  and  N3_17 
REMARK    4  A    between atoms: N3_17  and  C12_19 
REMARK    5  A    between atoms: C12_19  and  C13_20 
REMARK    6  A    between atoms: N5_27  and  C17_28 
REMARK    7  A    between atoms: C17_28  and  C18_29 
REMARK    8  A    between atoms: C18_29  and  C19_30 
REMARK    9  A    between atoms: N6_33  and  C22_34 
REMARK   10  A    between atoms: C22_34  and  C23_35 
ROOT
HETATM    1  C13 UNL     1     -18.247  17.830  -7.200  1.00  0.00     0.259 C 
HETATM    2  C14 UNL     1     -19.027  16.744  -7.886  1.00  0.00     0.160 C 
HETATM    3  N4  UNL     1     -20.435  16.732  -7.565  1.00  0.00    -0.357 N 
ATOM      4  H4  UNL     1     -21.148  16.579  -8.278  1.00  0.00     0.162 HD
HETATM    5  C15 UNL     1     -20.775  16.947  -6.184  1.00  0.00     0.246 C 
HETATM    6  O3  UNL     1     -21.911  16.942  -5.745  1.00  0.00    -0.272 OA
HETATM    7  C16 UNL     1     -19.585  17.181  -5.328  1.00  0.00     0.375 C 
HETATM    8  N5  UNL     1     -18.639  18.109  -5.891  1.00  0.00     0.105 N 
ENDROOT
BRANCH   1   9
HETATM    9  C12 UNL     1     -18.186  18.994  -8.164  1.00  0.00     0.160 C 
BRANCH   9  10
HETATM   10  N3  UNL     1     -17.226  20.012  -7.840  1.00  0.00    -0.359 N 
HETATM   11  C11 UNL     1     -16.239  20.323  -8.799  1.00  0.00     0.222 C 
HETATM   12  O2  UNL     1     -16.209  19.730  -9.889  1.00  0.00    -0.273 OA
ATOM     13  H3  UNL     1     -17.258  20.496  -6.943  1.00  0.00     0.162 HD
BRANCH  11  14
HETATM   14  C10 UNL     1     -15.242  21.363  -8.495  1.00  0.00     0.080 C 
HETATM   15  C9  UNL     1     -14.718  22.100  -9.684  1.00  0.00     0.040 C 
HETATM   16  C8  UNL     1     -13.286  22.374  -9.377  1.00  0.00     0.093 C 
HETATM   17  C32 UNL     1     -12.960  21.701  -8.098  1.00  0.00    -0.026 C 
HETATM   18  C31 UNL     1     -14.014  20.647  -7.913  1.00  0.00     0.025 C 
HETATM   19  C33 UNL     1     -11.630  20.973  -8.147  1.00  0.00     0.017 C 
HETATM   20  C34 UNL     1     -13.030  22.631  -6.903  1.00  0.00     0.017 C 
BRANCH  16  21
HETATM   21  N2  UNL     1     -12.986  23.796  -9.362  1.00  0.00    -0.354 N 
HETATM   22  C7  UNL     1     -11.778  24.365  -9.769  1.00  0.00     0.240 C 
HETATM   23  O1  UNL     1     -10.849  23.644 -10.183  1.00  0.00    -0.271 OA
ATOM     24  H2  UNL     1     -13.715  24.427  -9.028  1.00  0.00     0.162 HD
BRANCH  22  25
HETATM   25  C6  UNL     1     -11.592  25.829  -9.711  1.00  0.00     0.171 C 
HETATM   26  N1  UNL     1     -10.222  26.188  -9.563  1.00  0.00    -0.404 N 
HETATM   27  C1  UNL     1      -9.996  27.187  -8.542  1.00  0.00     0.144 C 
HETATM   28  C2  UNL     1      -9.468  26.380 -10.750  1.00  0.00     0.117 C 
HETATM   29  C3  UNL     1     -10.165  27.324 -11.738  1.00  0.00     0.019 C 
HETATM   30  C4  UNL     1     -11.471  26.615 -12.098  1.00  0.00     0.004 C 
HETATM   31  C5  UNL     1     -12.293  26.541 -10.840  1.00  0.00     0.035 C 
ENDBRANCH  22  25
ENDBRANCH  16  21
ENDBRANCH  11  14
ENDBRANCH   9  10
ENDBRANCH   1   9
BRANCH   8  32
HETATM   32  C17 UNL     1     -17.570  18.201  -4.897  1.00  0.00     0.274 C 
BRANCH  32  33
HETATM   33  C18 UNL     1     -18.068  18.877  -3.684  1.00  0.00     0.035 C 
BRANCH  33  34
HETATM   34  C19 UNL     1     -17.571  20.329  -3.533  1.00  0.00    -0.007 C 
HETATM   35  C20 UNL     1     -16.147  20.485  -3.848  1.00  0.00     0.049 C 
HETATM   36  C21 UNL     1     -15.798  21.561  -4.849  1.00  0.00     0.064 C 
HETATM   37  N6  UNL     1     -16.604  22.695  -4.686  1.00  0.00    -0.370 N 
HETATM   38  C29 UNL     1     -17.966  22.398  -4.931  1.00  0.00     0.128 C 
HETATM   39  C30 UNL     1     -18.539  21.287  -4.130  1.00  0.00     0.025 C 
BRANCH  37  40
HETATM   40  C22 UNL     1     -16.118  23.977  -4.827  1.00  0.00     0.092 C 
BRANCH  40  41
HETATM   41  C23 UNL     1     -15.407  24.671  -3.703  1.00  0.00    -0.064 C 
HETATM   42  C24 UNL     1     -13.980  25.003  -3.959  1.00  0.00     0.035 C 
HETATM   43  C25 UNL     1     -12.979  24.265  -3.105  1.00  0.00     0.004 C 
HETATM   44  C26 UNL     1     -13.407  24.351  -1.649  1.00  0.00     0.001 C 
HETATM   45  C27 UNL     1     -14.674  23.505  -1.565  1.00  0.00     0.004 C 
HETATM   46  C28 UNL     1     -15.739  24.174  -2.352  1.00  0.00     0.035 C 
ENDBRANCH  40  41
ENDBRANCH  37  40
ENDBRANCH  33  34
ENDBRANCH  32  33
ENDBRANCH   8  32
TORSDOF 10
ENDMDL
MODEL 4
REMARK VINA RESULT: -10.150442718      2.837     10.054
REMARK  10 active torsions:
REMARK  status: ('A' for Active; 'I' for Inactive)
REMARK    1  A    between atoms: C6_7  and  C7_8 
REMARK       I    between atoms: C7_8  and  N2_10 
REMARK    2  A    between atoms: N2_10  and  C8_12 
REMARK    3  A    between atoms: C10_14  and  C11_15 
REMARK       I    between atoms: C11_15  and  N3_17 
REMARK    4  A    between atoms: N3_17  and  C12_19 
REMARK    5  A    between atoms: C12_19  and  C13_20 
REMARK    6  A    between atoms: N5_27  and  C17_28 
REMARK    7  A    between atoms: C17_28  and  C18_29 
REMARK    8  A    between atoms: C18_29  and  C19_30 
REMARK    9  A    between atoms: N6_33  and  C22_34 
REMARK   10  A    between atoms: C22_34  and  C23_35 
ROOT
HETATM    1  C13 UNL     1     -17.815  17.686  -7.179  1.00  0.00     0.259 C 
HETATM    2  C14 UNL     1     -18.777  16.765  -7.873  1.00  0.00     0.160 C 
HETATM    3  N4  UNL     1     -19.677  17.428  -8.787  1.00  0.00    -0.357 N 
ATOM      4  H4  UNL     1     -19.900  17.037  -9.702  1.00  0.00     0.162 HD
HETATM    5  C15 UNL     1     -20.243  18.671  -8.334  1.00  0.00     0.246 C 
HETATM    6  O3  UNL     1     -21.036  19.340  -8.971  1.00  0.00    -0.272 OA
HETATM    7  C16 UNL     1     -19.755  19.068  -6.990  1.00  0.00     0.375 C 
HETATM    8  N5  UNL     1     -18.332  18.932  -6.825  1.00  0.00     0.105 N 
ENDROOT
BRANCH   1   9
HETATM    9  C12 UNL     1     -16.540  17.676  -7.993  1.00  0.00     0.160 C 
BRANCH   9  10
HETATM   10  N3  UNL     1     -15.633  18.758  -7.732  1.00  0.00    -0.359 N 
HETATM   11  C11 UNL     1     -15.650  19.865  -8.607  1.00  0.00     0.222 C 
HETATM   12  O2  UNL     1     -16.432  19.896  -9.570  1.00  0.00    -0.273 OA
ATOM     13  H3  UNL     1     -14.995  18.727  -6.937  1.00  0.00     0.162 HD
BRANCH  11  14
HETATM   14  C10 UNL     1     -14.731  20.989  -8.363  1.00  0.00     0.080 C 
HETATM   15  C9  UNL     1     -14.396  21.803  -9.571  1.00  0.00     0.040 C 
HETATM   16  C8  UNL     1     -12.973  22.207  -9.391  1.00  0.00     0.093 C 
HETATM   17  C32 UNL     1     -12.463  21.536  -8.172  1.00  0.00    -0.026 C 
HETATM   18  C31 UNL     1     -13.390  20.381  -7.924  1.00  0.00     0.025 C 
HETATM   19  C33 UNL     1     -11.081  20.942  -8.370  1.00  0.00     0.017 C 
HETATM   20  C34 UNL     1     -12.504  22.426  -6.944  1.00  0.00     0.017 C 
BRANCH  16  21
HETATM   21  N2  UNL     1     -12.809  23.650  -9.356  1.00  0.00    -0.354 N 
HETATM   22  C7  UNL     1     -11.663  24.336  -9.764  1.00  0.00     0.240 C 
HETATM   23  O1  UNL     1     -10.675  23.712 -10.196  1.00  0.00    -0.271 OA
ATOM     24  H2  UNL     1     -13.590  24.204  -9.007  1.00  0.00     0.162 HD
BRANCH  22  25
HETATM   25  C6  UNL     1     -11.616  25.810  -9.684  1.00  0.00     0.171 C 
HETATM   26  N1  UNL     1     -10.289  26.292  -9.498  1.00  0.00    -0.404 N 
HETATM   27  C1  UNL     1     -10.181  27.294  -8.460  1.00  0.00     0.144 C 
HETATM   28  C2  UNL     1      -9.527  26.569 -10.663  1.00  0.00     0.117 C 
HETATM   29  C3  UNL     1     -10.285  27.458 -11.657  1.00  0.00     0.019 C 
HETATM   30  C4  UNL     1     -11.510  26.637 -12.058  1.00  0.00     0.004 C 
HETATM   31  C5  UNL     1     -12.352  26.470 -10.823  1.00  0.00     0.035 C 
ENDBRANCH  22  25
ENDBRANCH  16  21
ENDBRANCH  11  14
ENDBRANCH   9  10
ENDBRANCH   1   9
BRANCH   8  32
HETATM   32  C17 UNL     1     -18.070  19.380  -5.457  1.00  0.00     0.274 C 
BRANCH  32  33
HETATM   33  C18 UNL     1     -18.940  20.527  -5.129  1.00  0.00     0.035 C 
BRANCH  33  34
HETATM   34  C19 UNL     1     -18.184  21.867  -5.010  1.00  0.00    -0.007 C 
HETATM   35  C20 UNL     1     -18.225  22.431  -3.657  1.00  0.00     0.049 C 
HETATM   36  C21 UNL     1     -16.895  22.811  -3.051  1.00  0.00     0.064 C 
HETATM   37  N6  UNL     1     -16.031  23.357  -4.008  1.00  0.00    -0.370 N 
HETATM   38  C29 UNL     1     -15.716  22.414  -5.015  1.00  0.00     0.128 C 
HETATM   39  C30 UNL     1     -16.875  21.803  -5.713  1.00  0.00     0.025 C 
BRANCH  37  40
HETATM   40  C22 UNL     1     -15.187  24.411  -3.730  1.00  0.00     0.092 C 
BRANCH  40  41
HETATM   41  C23 UNL     1     -13.731  24.191  -3.445  1.00  0.00    -0.064 C 
HETATM   42  C24 UNL     1     -13.310  24.447  -2.041  1.00  0.00     0.035 C 
HETATM   43  C25 UNL     1     -12.377  25.616  -1.847  1.00  0.00     0.004 C 
HETATM   44  C26 UNL     1     -11.238  25.518  -2.850  1.00  0.00     0.001 C 
HETATM   45  C27 UNL     1     -11.891  25.776  -4.205  1.00  0.00     0.004 C 
HETATM   46  C28 UNL     1     -12.810  24.651  -4.506  1.00  0.00     0.035 C 
ENDBRANCH  40  41
ENDBRANCH  37  40
ENDBRANCH  33  34
ENDBRANCH  32  33
ENDBRANCH   8  32
TORSDOF 10
ENDMDL
MODEL 5
REMARK VINA RESULT: -10.053815146      2.445      8.552
REMARK  10 active torsions:
REMARK  status: ('A' for Active; 'I' for Inactive)
REMARK    1  A    between atoms: C6_7  and  C7_8 
REMARK       I    between atoms: C7_8  and  N2_10 
REMARK    2  A    between atoms: N2_10  and  C8_12 
REMARK    3  A    between atoms: C10_14  and  C11_15 
REMARK       I    between atoms: C11_15  and  N3_17 
REMARK    4  A    between atoms: N3_17  and  C12_19 
REMARK    5  A    between atoms: C12_19  and  C13_20 
REMARK    6  A    between atoms: N5_27  and  C17_28 
REMARK    7  A    between atoms: C17_28  and  C18_29 
REMARK    8  A    between atoms: C18_29  and  C19_30 
REMARK    9  A    between atoms: N6_33  and  C22_34 
REMARK   10  A    between atoms: C22_34  and  C23_35 
ROOT
HETATM    1  C13 UNL     1     -21.450  17.049  -8.188  1.00  0.00     0.259 C 
HETATM    2  C14 UNL     1     -22.673  16.953  -7.320  1.00  0.00     0.160 C 
HETATM    3  N4  UNL     1     -22.396  16.642  -5.938  1.00  0.00    -0.357 N 
ATOM      4  H4  UNL     1     -22.880  17.112  -5.173  1.00  0.00     0.162 HD
HETATM    5  C15 UNL     1     -21.399  15.633  -5.699  1.00  0.00     0.246 C 
HETATM    6  O3  UNL     1     -21.067  15.238  -4.596  1.00  0.00    -0.272 OA
HETATM    7  C16 UNL     1     -20.800  15.109  -6.953  1.00  0.00     0.375 C 
HETATM    8  N5  UNL     1     -20.438  16.135  -7.896  1.00  0.00     0.105 N 
ENDROOT
BRANCH   1   9
HETATM    9  C12 UNL     1     -21.065  18.511  -8.233  1.00  0.00     0.160 C 
BRANCH   9  10
HETATM   10  N3  UNL     1     -20.510  19.040  -7.019  1.00  0.00    -0.359 N 
HETATM   11  C11 UNL     1     -19.484  20.004  -7.123  1.00  0.00     0.222 C 
HETATM   12  O2  UNL     1     -19.081  20.380  -8.235  1.00  0.00    -0.273 OA
ATOM     13  H3  UNL     1     -20.847  18.729  -6.109  1.00  0.00     0.162 HD
BRANCH  11  14
HETATM   14  C10 UNL     1     -18.896  20.565  -5.895  1.00  0.00     0.080 C 
HETATM   15  C9  UNL     1     -17.405  20.512  -5.829  1.00  0.00     0.040 C 
HETATM   16  C8  UNL     1     -17.083  20.258  -4.397  1.00  0.00     0.093 C 
HETATM   17  C32 UNL     1     -18.360  20.043  -3.677  1.00  0.00    -0.026 C 
HETATM   18  C31 UNL     1     -19.365  19.678  -4.731  1.00  0.00     0.025 C 
HETATM   19  C33 UNL     1     -18.297  18.868  -2.719  1.00  0.00     0.017 C 
HETATM   20  C34 UNL     1     -18.864  21.291  -2.978  1.00  0.00     0.017 C 
BRANCH  16  21
HETATM   21  N2  UNL     1     -16.275  21.316  -3.815  1.00  0.00    -0.354 N 
HETATM   22  C7  UNL     1     -14.880  21.371  -3.849  1.00  0.00     0.240 C 
HETATM   23  O1  UNL     1     -14.227  20.466  -4.404  1.00  0.00    -0.271 OA
ATOM     24  H2  UNL     1     -16.765  22.079  -3.347  1.00  0.00     0.162 HD
BRANCH  22  25
HETATM   25  C6  UNL     1     -14.169  22.504  -3.223  1.00  0.00     0.171 C 
HETATM   26  N1  UNL     1     -13.903  23.547  -4.156  1.00  0.00    -0.404 N 
HETATM   27  C1  UNL     1     -12.545  24.041  -4.095  1.00  0.00     0.144 C 
HETATM   28  C2  UNL     1     -14.890  24.557  -4.301  1.00  0.00     0.117 C 
HETATM   29  C3  UNL     1     -15.328  25.143  -2.953  1.00  0.00     0.019 C 
HETATM   30  C4  UNL     1     -15.943  23.965  -2.199  1.00  0.00     0.004 C 
HETATM   31  C5  UNL     1     -14.839  22.972  -1.956  1.00  0.00     0.035 C 
ENDBRANCH  22  25
ENDBRANCH  16  21
ENDBRANCH  11  14
ENDBRANCH   9  10
ENDBRANCH   1   9
BRANCH   8  32
HETATM   32  C17 UNL     1     -19.867  15.412  -9.032  1.00  0.00     0.274 C 
BRANCH  32  33
HETATM   33  C18 UNL     1     -18.416  15.667  -9.111  1.00  0.00     0.035 C 
BRANCH  33  34
HETATM   34  C19 UNL     1     -18.034  17.151  -8.933  1.00  0.00    -0.007 C 
HETATM   35  C20 UNL     1     -17.051  17.366  -7.866  1.00  0.00     0.049 C 
HETATM   36  C21 UNL     1     -15.824  18.164  -8.239  1.00  0.00     0.064 C 
HETATM   37  N6  UNL     1     -16.137  19.208  -9.120  1.00  0.00    -0.370 N 
HETATM   38  C29 UNL     1     -16.638  18.712 -10.347  1.00  0.00     0.128 C 
HETATM   39  C30 UNL     1     -17.807  17.804 -10.250  1.00  0.00     0.025 C 
BRANCH  37  40
HETATM   40  C22 UNL     1     -15.542  20.448  -9.041  1.00  0.00     0.092 C 
BRANCH  40  41
HETATM   41  C23 UNL     1     -14.562  20.776  -7.954  1.00  0.00    -0.064 C 
HETATM   42  C24 UNL     1     -14.543  22.199  -7.520  1.00  0.00     0.035 C 
HETATM   43  C25 UNL     1     -13.275  22.955  -7.827  1.00  0.00     0.004 C 
HETATM   44  C26 UNL     1     -12.080  22.130  -7.374  1.00  0.00     0.001 C 
HETATM   45  C27 UNL     1     -12.050  20.936  -8.324  1.00  0.00     0.004 C 
HETATM   46  C28 UNL     1     -13.251  20.103  -8.071  1.00  0.00     0.035 C 
ENDBRANCH  40  41
ENDBRANCH  37  40
ENDBRANCH  33  34
ENDBRANCH  32  33
ENDBRANCH   8  32
TORSDOF 10
ENDMDL
