MODEL 1
REMARK VINA RESULT: -3.960914907      0.000      0.000
REMARK  6 active torsions:
REMARK  status: ('A' for Active; 'I' for Inactive)
REMARK    1  A    between atoms: N2_4  and  C1_6 
REMARK    2  A    between atoms: C1_6  and  C2_7 
REMARK    3  A    between atoms: C2_7  and  C3_8 
REMARK    4  A    between atoms: C3_8  and  N3_9 
REMARK    5  A    between atoms: N3_9  and  C4_11 
REMARK    6  A    between atoms: C6_14  and  C7_15 
ROOT
HETATM    1  C2  UNL     1     -29.080 -12.479 -13.072  1.00  0.00     0.004 A 
HETATM    2  C5  UNL     1     -27.584 -12.304 -13.263  1.00  0.00     0.026 A 
HETATM    3  C6  UNL     1     -28.506 -11.139 -13.019  1.00  0.00     0.060 A 
ENDROOT
BRANCH   1   4
HETATM    4  C1  UNL     1     -29.941 -12.741 -14.336  1.00  0.00     0.150 C 
BRANCH   4   5
HETATM    5  N2  UNL     1     -29.840 -14.104 -14.723  1.00  0.00    -0.342 N 
HETATM    6  N1  UNL     1     -30.845 -14.758 -15.111  1.00  0.00    -0.349 N 
ATOM      7  H12 UNL     1     -31.747 -14.282 -15.142  1.00  0.00     0.176 HD
ATOM      8  H11 UNL     1     -30.773 -15.737 -15.388  1.00  0.00     0.176 HD
ATOM      9  H2  UNL     1     -28.931 -14.565 -14.686  1.00  0.00     0.179 HD
ENDBRANCH   4   5
ENDBRANCH   1   4
BRANCH   1  10
HETATM   10  C3  UNL     1     -29.469 -13.379 -11.980  1.00  0.00     0.134 C 
BRANCH  10  11
HETATM   11  N3  UNL     1     -30.599 -13.097 -11.176  1.00  0.00    -0.367 N 
ATOM     12  H3  UNL     1     -31.540 -13.099 -11.569  1.00  0.00     0.161 HD
BRANCH  11  13
HETATM   13  C4  UNL     1     -30.378 -12.810  -9.800  1.00  0.00     0.348 C 
HETATM   14  O1  UNL     1     -29.255 -12.416  -9.423  1.00  0.00    -0.284 OA
ENDBRANCH  11  13
ENDBRANCH  10  11
ENDBRANCH   1  10
BRANCH   3  15
HETATM   15  C7  UNL     1     -28.358 -10.252 -11.894  1.00  0.00     0.236 C 
HETATM   16  O2  UNL     1     -27.335 -10.235 -11.198  1.00  0.00    -0.306 OA
ENDBRANCH   3  15
TORSDOF 6
ENDMDL
MODEL 2
REMARK VINA RESULT: -3.878446354      2.521      3.124
REMARK  6 active torsions:
REMARK  status: ('A' for Active; 'I' for Inactive)
REMARK    1  A    between atoms: N2_4  and  C1_6 
REMARK    2  A    between atoms: C1_6  and  C2_7 
REMARK    3  A    between atoms: C2_7  and  C3_8 
REMARK    4  A    between atoms: C3_8  and  N3_9 
REMARK    5  A    between atoms: N3_9  and  C4_11 
REMARK    6  A    between atoms: C6_14  and  C7_15 
ROOT
HETATM    1  C2  UNL     1     -30.043 -12.264 -12.155  1.00  0.00     0.004 A 
HETATM    2  C5  UNL     1     -29.642 -12.256 -10.690  1.00  0.00     0.026 A 
HETATM    3  C6  UNL     1     -28.648 -12.026 -11.798  1.00  0.00     0.060 A 
ENDROOT
BRANCH   1   4
HETATM    4  C1  UNL     1     -30.290 -13.640 -12.827  1.00  0.00     0.150 C 
BRANCH   4   5
HETATM    5  N2  UNL     1     -29.707 -13.663 -14.123  1.00  0.00    -0.342 N 
HETATM    6  N1  UNL     1     -30.279 -14.221 -15.097  1.00  0.00    -0.349 N 
ATOM      7  H12 UNL     1     -31.184 -14.662 -14.934  1.00  0.00     0.176 HD
ATOM      8  H11 UNL     1     -29.861 -14.237 -16.027  1.00  0.00     0.176 HD
ATOM      9  H2  UNL     1     -28.801 -13.217 -14.268  1.00  0.00     0.179 HD
ENDBRANCH   4   5
ENDBRANCH   1   4
BRANCH   1  10
HETATM   10  C3  UNL     1     -31.095 -11.308 -12.519  1.00  0.00     0.134 C 
BRANCH  10  11
HETATM   11  N3  UNL     1     -30.890 -10.363 -13.553  1.00  0.00    -0.367 N 
ATOM     12  H3  UNL     1     -30.209  -9.611 -13.452  1.00  0.00     0.161 HD
BRANCH  11  13
HETATM   13  C4  UNL     1     -31.667 -10.497 -14.737  1.00  0.00     0.348 C 
HETATM   14  O1  UNL     1     -31.598 -11.549 -15.406  1.00  0.00    -0.284 OA
ENDBRANCH  11  13
ENDBRANCH  10  11
ENDBRANCH   1  10
BRANCH   3  15
HETATM   15  C7  UNL     1     -27.869 -10.820 -11.906  1.00  0.00     0.236 C 
HETATM   16  O2  UNL     1     -27.706 -10.235 -12.985  1.00  0.00    -0.306 OA
ENDBRANCH   3  15
TORSDOF 6
ENDMDL
MODEL 3
REMARK VINA RESULT: -3.869474487      1.540      1.563
REMARK  6 active torsions:
REMARK  status: ('A' for Active; 'I' for Inactive)
REMARK    1  A    between atoms: N2_4  and  C1_6 
REMARK    2  A    between atoms: C1_6  and  C2_7 
REMARK    3  A    between atoms: C2_7  and  C3_8 
REMARK    4  A    between atoms: C3_8  and  N3_9 
REMARK    5  A    between atoms: N3_9  and  C4_11 
REMARK    6  A    between atoms: C6_14  and  C7_15 
ROOT
HETATM    1  C2  UNL     1     -29.064 -12.681 -13.094  1.00  0.00     0.004 A 
HETATM    2  C5  UNL     1     -27.585 -12.396 -13.288  1.00  0.00     0.026 A 
HETATM    3  C6  UNL     1     -28.581 -11.309 -12.982  1.00  0.00     0.060 A 
ENDROOT
BRANCH   1   4
HETATM    4  C1  UNL     1     -29.920 -12.941 -14.362  1.00  0.00     0.150 C 
BRANCH   4   5
HETATM    5  N2  UNL     1     -29.900 -14.324 -14.689  1.00  0.00    -0.342 N 
HETATM    6  N1  UNL     1     -30.883 -14.887 -15.241  1.00  0.00    -0.349 N 
ATOM      7  H12 UNL     1     -31.706 -14.322 -15.451  1.00  0.00     0.176 HD
ATOM      8  H11 UNL     1     -30.869 -15.880 -15.476  1.00  0.00     0.176 HD
ATOM      9  H2  UNL     1     -29.069 -14.874 -14.472  1.00  0.00     0.179 HD
ENDBRANCH   4   5
ENDBRANCH   1   4
BRANCH   1  10
HETATM   10  C3  UNL     1     -29.379 -13.654 -12.042  1.00  0.00     0.134 C 
BRANCH  10  11
HETATM   11  N3  UNL     1     -30.548 -13.518 -11.255  1.00  0.00    -0.367 N 
ATOM     12  H3  UNL     1     -30.654 -12.746 -10.598  1.00  0.00     0.161 HD
BRANCH  11  13
HETATM   13  C4  UNL     1     -31.569 -14.497 -11.410  1.00  0.00     0.348 C 
HETATM   14  O1  UNL     1     -31.472 -15.354 -12.313  1.00  0.00    -0.284 OA
ENDBRANCH  11  13
ENDBRANCH  10  11
ENDBRANCH   1  10
BRANCH   3  15
HETATM   15  C7  UNL     1     -28.481 -10.466 -11.819  1.00  0.00     0.236 C 
HETATM   16  O2  UNL     1     -27.412 -10.296 -11.218  1.00  0.00    -0.306 OA
ENDBRANCH   3  15
TORSDOF 6
ENDMDL
MODEL 4
REMARK VINA RESULT: -3.837887136      1.823      1.932
REMARK  6 active torsions:
REMARK  status: ('A' for Active; 'I' for Inactive)
REMARK    1  A    between atoms: N2_4  and  C1_6 
REMARK    2  A    between atoms: C1_6  and  C2_7 
REMARK    3  A    between atoms: C2_7  and  C3_8 
REMARK    4  A    between atoms: C3_8  and  N3_9 
REMARK    5  A    between atoms: N3_9  and  C4_11 
REMARK    6  A    between atoms: C6_14  and  C7_15 
ROOT
HETATM    1  C2  UNL     1     -28.714 -13.266 -12.269  1.00  0.00     0.004 A 
HETATM    2  C5  UNL     1     -27.338 -13.152 -11.637  1.00  0.00     0.026 A 
HETATM    3  C6  UNL     1     -27.843 -12.159 -12.651  1.00  0.00     0.060 A 
ENDROOT
BRANCH   1   4
HETATM    4  C1  UNL     1     -28.908 -14.323 -13.388  1.00  0.00     0.150 C 
BRANCH   4   5
HETATM    5  N2  UNL     1     -29.412 -13.704 -14.563  1.00  0.00    -0.342 N 
HETATM    6  N1  UNL     1     -30.443 -14.132 -15.147  1.00  0.00    -0.349 N 
ATOM      7  H12 UNL     1     -30.917 -14.945 -14.753  1.00  0.00     0.176 HD
ATOM      8  H11 UNL     1     -30.805 -13.688 -15.991  1.00  0.00     0.176 HD
ATOM      9  H2  UNL     1     -28.926 -12.892 -14.944  1.00  0.00     0.179 HD
ENDBRANCH   4   5
ENDBRANCH   1   4
BRANCH   1  10
HETATM   10  C3  UNL     1     -29.835 -13.295 -11.322  1.00  0.00     0.134 C 
BRANCH  10  11
HETATM   11  N3  UNL     1     -31.170 -13.176 -11.775  1.00  0.00    -0.367 N 
ATOM     12  H3  UNL     1     -31.813 -13.967 -11.734  1.00  0.00     0.161 HD
BRANCH  11  13
HETATM   13  C4  UNL     1     -31.586 -11.916 -12.289  1.00  0.00     0.348 C 
HETATM   14  O1  UNL     1     -31.558 -11.711 -13.520  1.00  0.00    -0.284 OA
ENDBRANCH  11  13
ENDBRANCH  10  11
ENDBRANCH   1  10
BRANCH   3  15
HETATM   15  C7  UNL     1     -27.973 -10.753 -12.366  1.00  0.00     0.236 C 
HETATM   16  O2  UNL     1     -27.470 -10.236 -11.360  1.00  0.00    -0.306 OA
ENDBRANCH   3  15
TORSDOF 6
ENDMDL
MODEL 5
REMARK VINA RESULT: -3.769249295     12.442     13.696
REMARK  6 active torsions:
REMARK  status: ('A' for Active; 'I' for Inactive)
REMARK    1  A    between atoms: N2_4  and  C1_6 
REMARK    2  A    between atoms: C1_6  and  C2_7 
REMARK    3  A    between atoms: C2_7  and  C3_8 
REMARK    4  A    between atoms: C3_8  and  N3_9 
REMARK    5  A    between atoms: N3_9  and  C4_11 
REMARK    6  A    between atoms: C6_14  and  C7_15 
ROOT
HETATM    1  C2  UNL     1     -30.904 -11.589 -25.867  1.00  0.00     0.004 A 
HETATM    2  C5  UNL     1     -29.990 -10.377 -25.830  1.00  0.00     0.026 A 
HETATM    3  C6  UNL     1     -29.794 -11.562 -24.921  1.00  0.00     0.060 A 
ENDROOT
BRANCH   1   4
HETATM    4  C1  UNL     1     -32.299 -11.460 -25.199  1.00  0.00     0.150 C 
BRANCH   4   5
HETATM    5  N2  UNL     1     -32.529 -12.562 -24.332  1.00  0.00    -0.342 N 
HETATM    6  N1  UNL     1     -33.625 -13.183 -24.329  1.00  0.00    -0.349 N 
ATOM      7  H12 UNL     1     -34.355 -12.875 -24.971  1.00  0.00     0.176 HD
ATOM      8  H11 UNL     1     -33.790 -13.974 -23.707  1.00  0.00     0.176 HD
ATOM      9  H2  UNL     1     -31.788 -12.857 -23.697  1.00  0.00     0.179 HD
ENDBRANCH   4   5
ENDBRANCH   1   4
BRANCH   1  10
HETATM   10  C3  UNL     1     -31.010 -12.251 -27.173  1.00  0.00     0.134 C 
BRANCH  10  11
HETATM   11  N3  UNL     1     -30.840 -13.651 -27.292  1.00  0.00    -0.367 N 
ATOM     12  H3  UNL     1     -29.910 -14.066 -27.345  1.00  0.00     0.161 HD
BRANCH  11  13
HETATM   13  C4  UNL     1     -32.010 -14.459 -27.337  1.00  0.00     0.348 C 
HETATM   14  O1  UNL     1     -32.409 -15.027 -26.299  1.00  0.00    -0.284 OA
ENDBRANCH  11  13
ENDBRANCH  10  11
ENDBRANCH   1  10
BRANCH   3  15
HETATM   15  C7  UNL     1     -28.584 -12.342 -24.909  1.00  0.00     0.236 C 
HETATM   16  O2  UNL     1     -27.819 -12.358 -23.935  1.00  0.00    -0.306 OA
ENDBRANCH   3  15
TORSDOF 6
ENDMDL
