MODEL 1
REMARK VINA RESULT: -4.170468690      0.000      0.000
REMARK  5 active torsions:
REMARK  status: ('A' for Active; 'I' for Inactive)
REMARK    1  A    between atoms: C2_2  and  N1_3 
REMARK    2  A    between atoms: N1_3  and  C3_4 
REMARK    3  A    between atoms: N1_3  and  N4_12 
REMARK    4  A    between atoms: N2_5  and  N3_7 
REMARK    5  A    between atoms: N3_7  and  C4_9 
ROOT
HETATM    1  C3  UNL     1     -23.537 -18.226 -18.885  1.00  0.00     0.212 C 
HETATM    2  N2  UNL     1     -24.590 -18.927 -19.120  1.00  0.00    -0.299 N 
ATOM      3  H2  UNL     1     -24.888 -19.095 -20.080  1.00  0.00     0.187 HD
ENDROOT
BRANCH   2   4
HETATM    4  N3  UNL     1     -25.326 -19.461 -18.054  1.00  0.00    -0.331 N 
ATOM      5  H3  UNL     1     -24.998 -19.275 -17.106  1.00  0.00     0.180 HD
BRANCH   4   6
HETATM    6  C4  UNL     1     -26.522 -20.260 -18.213  1.00  0.00     0.099 A 
HETATM    7  C5  UNL     1     -26.470 -21.549 -18.924  1.00  0.00     0.029 A 
HETATM    8  C6  UNL     1     -26.662 -21.531 -17.429  1.00  0.00     0.029 A 
ENDBRANCH   4   6
ENDBRANCH   2   4
BRANCH   1   9
HETATM    9  N1  UNL     1     -22.810 -17.696 -19.989  1.00  0.00    -0.291 N 
BRANCH   9  10
HETATM   10  C2  UNL     1     -23.410 -17.586 -21.303  1.00  0.00     0.141 C 
HETATM   11  C1  UNL     1     -22.644 -16.561 -22.115  1.00  0.00     0.028 C 
ENDBRANCH   9  10
BRANCH   9  12
HETATM   12  N4  UNL     1     -21.485 -17.253 -19.871  1.00  0.00    -0.143 NA
HETATM   13  C7  UNL     1     -20.917 -17.585 -18.580  1.00  0.00     0.159 C 
ENDBRANCH   9  12
ENDBRANCH   1   9
TORSDOF 5
ENDMDL
MODEL 2
REMARK VINA RESULT: -4.088730872      1.529      1.744
REMARK  5 active torsions:
REMARK  status: ('A' for Active; 'I' for Inactive)
REMARK    1  A    between atoms: C2_2  and  N1_3 
REMARK    2  A    between atoms: N1_3  and  C3_4 
REMARK    3  A    between atoms: N1_3  and  N4_12 
REMARK    4  A    between atoms: N2_5  and  N3_7 
REMARK    5  A    between atoms: N3_7  and  C4_9 
ROOT
HETATM    1  C3  UNL     1     -23.505 -18.243 -18.878  1.00  0.00     0.212 C 
HETATM    2  N2  UNL     1     -24.607 -18.877 -19.076  1.00  0.00    -0.299 N 
ATOM      3  H2  UNL     1     -24.962 -19.000 -20.024  1.00  0.00     0.187 HD
ENDROOT
BRANCH   2   4
HETATM    4  N3  UNL     1     -25.319 -19.400 -17.988  1.00  0.00    -0.331 N 
ATOM      5  H3  UNL     1     -26.210 -19.857 -18.175  1.00  0.00     0.180 HD
BRANCH   4   6
HETATM    6  C4  UNL     1     -24.867 -19.331 -16.615  1.00  0.00     0.099 A 
HETATM    7  C5  UNL     1     -25.629 -18.564 -15.615  1.00  0.00     0.029 A 
HETATM    8  C6  UNL     1     -25.631 -20.070 -15.556  1.00  0.00     0.029 A 
ENDBRANCH   4   6
ENDBRANCH   2   4
BRANCH   1   9
HETATM    9  N1  UNL     1     -22.805 -17.723 -20.004  1.00  0.00    -0.291 N 
BRANCH   9  10
HETATM   10  C2  UNL     1     -23.426 -17.652 -21.311  1.00  0.00     0.141 C 
HETATM   11  C1  UNL     1     -22.735 -16.582 -22.131  1.00  0.00     0.028 C 
ENDBRANCH   9  10
BRANCH   9  12
HETATM   12  N4  UNL     1     -21.487 -17.253 -19.915  1.00  0.00    -0.143 NA
HETATM   13  C7  UNL     1     -20.888 -17.562 -18.632  1.00  0.00     0.159 C 
ENDBRANCH   9  12
ENDBRANCH   1   9
TORSDOF 5
ENDMDL
MODEL 3
REMARK VINA RESULT: -4.077362019      1.600      5.469
REMARK  5 active torsions:
REMARK  status: ('A' for Active; 'I' for Inactive)
REMARK    1  A    between atoms: C2_2  and  N1_3 
REMARK    2  A    between atoms: N1_3  and  C3_4 
REMARK    3  A    between atoms: N1_3  and  N4_12 
REMARK    4  A    between atoms: N2_5  and  N3_7 
REMARK    5  A    between atoms: N3_7  and  C4_9 
ROOT
HETATM    1  C3  UNL     1     -23.941 -18.667 -18.127  1.00  0.00     0.212 C 
HETATM    2  N2  UNL     1     -24.092 -17.951 -19.186  1.00  0.00    -0.299 N 
ATOM      3  H2  UNL     1     -24.951 -18.024 -19.732  1.00  0.00     0.187 HD
ENDROOT
BRANCH   2   4
HETATM    4  N3  UNL     1     -23.077 -17.073 -19.588  1.00  0.00    -0.331 N 
ATOM      5  H3  UNL     1     -22.814 -16.323 -18.949  1.00  0.00     0.180 HD
BRANCH   4   6
HETATM    6  C4  UNL     1     -22.379 -17.164 -20.852  1.00  0.00     0.099 A 
HETATM    7  C5  UNL     1     -23.130 -17.244 -22.116  1.00  0.00     0.029 A 
HETATM    8  C6  UNL     1     -22.380 -15.981 -21.775  1.00  0.00     0.029 A 
ENDBRANCH   4   6
ENDBRANCH   2   4
BRANCH   1   9
HETATM    9  N1  UNL     1     -24.990 -19.551 -17.744  1.00  0.00    -0.291 N 
BRANCH   9  10
HETATM   10  C2  UNL     1     -24.720 -20.762 -16.997  1.00  0.00     0.141 C 
HETATM   11  C1  UNL     1     -23.378 -20.630 -16.305  1.00  0.00     0.028 C 
ENDBRANCH   9  10
BRANCH   9  12
HETATM   12  N4  UNL     1     -26.332 -19.304 -18.065  1.00  0.00    -0.143 NA
HETATM   13  C7  UNL     1     -27.224 -19.680 -16.987  1.00  0.00     0.159 C 
ENDBRANCH   9  12
ENDBRANCH   1   9
TORSDOF 5
ENDMDL
MODEL 4
REMARK VINA RESULT: -4.043500329      3.238      5.274
REMARK  5 active torsions:
REMARK  status: ('A' for Active; 'I' for Inactive)
REMARK    1  A    between atoms: C2_2  and  N1_3 
REMARK    2  A    between atoms: N1_3  and  C3_4 
REMARK    3  A    between atoms: N1_3  and  N4_12 
REMARK    4  A    between atoms: N2_5  and  N3_7 
REMARK    5  A    between atoms: N3_7  and  C4_9 
ROOT
HETATM    1  C3  UNL     1     -20.362 -18.295 -17.891  1.00  0.00     0.212 C 
HETATM    2  N2  UNL     1     -21.492 -17.965 -18.412  1.00  0.00    -0.299 N 
ATOM      3  H2  UNL     1     -22.362 -18.208 -17.940  1.00  0.00     0.187 HD
ENDROOT
BRANCH   2   4
HETATM    4  N3  UNL     1     -21.525 -17.271 -19.629  1.00  0.00    -0.331 N 
ATOM      5  H3  UNL     1     -20.635 -17.012 -20.056  1.00  0.00     0.180 HD
BRANCH   4   6
HETATM    6  C4  UNL     1     -22.741 -16.899 -20.318  1.00  0.00     0.099 A 
HETATM    7  C5  UNL     1     -22.849 -17.052 -21.779  1.00  0.00     0.029 A 
HETATM    8  C6  UNL     1     -23.624 -17.977 -20.876  1.00  0.00     0.029 A 
ENDBRANCH   4   6
ENDBRANCH   2   4
BRANCH   1   9
HETATM    9  N1  UNL     1     -20.361 -19.000 -16.654  1.00  0.00    -0.291 N 
BRANCH   9  10
HETATM   10  C2  UNL     1     -21.542 -19.055 -15.817  1.00  0.00     0.141 C 
HETATM   11  C1  UNL     1     -21.247 -18.368 -14.498  1.00  0.00     0.028 C 
ENDBRANCH   9  10
BRANCH   9  12
HETATM   12  N4  UNL     1     -19.229 -19.677 -16.178  1.00  0.00    -0.143 NA
HETATM   13  C7  UNL     1     -18.319 -20.027 -17.250  1.00  0.00     0.159 C 
ENDBRANCH   9  12
ENDBRANCH   1   9
TORSDOF 5
ENDMDL
MODEL 5
REMARK VINA RESULT: -4.043181096      2.067      5.213
REMARK  5 active torsions:
REMARK  status: ('A' for Active; 'I' for Inactive)
REMARK    1  A    between atoms: C2_2  and  N1_3 
REMARK    2  A    between atoms: N1_3  and  C3_4 
REMARK    3  A    between atoms: N1_3  and  N4_12 
REMARK    4  A    between atoms: N2_5  and  N3_7 
REMARK    5  A    between atoms: N3_7  and  C4_9 
ROOT
HETATM    1  C3  UNL     1     -24.608 -18.985 -18.568  1.00  0.00     0.212 C 
HETATM    2  N2  UNL     1     -24.134 -17.927 -19.127  1.00  0.00    -0.299 N 
ATOM      3  H2  UNL     1     -23.674 -17.213 -18.562  1.00  0.00     0.187 HD
ENDROOT
BRANCH   2   4
HETATM    4  N3  UNL     1     -24.250 -17.757 -20.513  1.00  0.00    -0.331 N 
ATOM      5  H3  UNL     1     -25.187 -17.730 -20.915  1.00  0.00     0.180 HD
BRANCH   4   6
HETATM    6  C4  UNL     1     -23.123 -17.616 -21.410  1.00  0.00     0.099 A 
HETATM    7  C5  UNL     1     -22.918 -16.367 -22.163  1.00  0.00     0.029 A 
HETATM    8  C6  UNL     1     -21.991 -16.710 -21.025  1.00  0.00     0.029 A 
ENDBRANCH   4   6
ENDBRANCH   2   4
BRANCH   1   9
HETATM    9  N1  UNL     1     -24.476 -19.129 -17.157  1.00  0.00    -0.291 N 
BRANCH   9  10
HETATM   10  C2  UNL     1     -23.501 -20.031 -16.580  1.00  0.00     0.141 C 
HETATM   11  C1  UNL     1     -22.142 -19.361 -16.585  1.00  0.00     0.028 C 
ENDBRANCH   9  10
BRANCH   9  12
HETATM   12  N4  UNL     1     -25.274 -18.413 -16.253  1.00  0.00    -0.143 NA
HETATM   13  C7  UNL     1     -26.381 -19.209 -15.762  1.00  0.00     0.159 C 
ENDBRANCH   9  12
ENDBRANCH   1   9
TORSDOF 5
ENDMDL
