MODEL 1
REMARK VINA RESULT: -4.977404702      0.000      0.000
REMARK  5 active torsions:
REMARK  status: ('A' for Active; 'I' for Inactive)
REMARK    1  A    between atoms: N2_4  and  C1_6 
REMARK    2  A    between atoms: C1_6  and  C2_7 
REMARK    3  A    between atoms: C3_8  and  N3_9 
REMARK    4  A    between atoms: N3_9  and  C4_11 
REMARK    5  A    between atoms: C4_11  and  C5_12 
ROOT
HETATM    1  N3  UNL     1     -21.041 -18.176 -17.632  1.00  0.00    -0.398 N 
ATOM      2  H3  UNL     1     -21.821 -18.061 -16.984  1.00  0.00     0.158 HD
ENDROOT
BRANCH   1   3
HETATM    3  C3  UNL     1     -19.939 -18.999 -17.281  1.00  0.00     0.080 C 
HETATM    4  C2  UNL     1     -18.869 -19.057 -18.033  1.00  0.00     0.011 C 
BRANCH   4   5
HETATM    5  C1  UNL     1     -17.702 -19.920 -17.670  1.00  0.00     0.167 C 
BRANCH   5   6
HETATM    6  N2  UNL     1     -17.449 -20.793 -18.811  1.00  0.00    -0.339 N 
HETATM    7  N1  UNL     1     -17.088 -21.951 -18.635  1.00  0.00    -0.349 N 
ATOM      8  H12 UNL     1     -16.969 -22.290 -17.681  1.00  0.00     0.176 HD
ATOM      9  H11 UNL     1     -16.911 -22.562 -19.434  1.00  0.00     0.176 HD
ATOM     10  H2  UNL     1     -17.573 -20.438 -19.759  1.00  0.00     0.179 HD
ENDBRANCH   5   6
ENDBRANCH   4   5
ENDBRANCH   1   3
BRANCH   1  11
HETATM   11  C4  UNL     1     -21.057 -17.511 -18.895  1.00  0.00     0.134 C 
BRANCH  11  12
HETATM   12  C5  UNL     1     -22.404 -17.124 -19.402  1.00  0.00     0.113 C 
HETATM   13  C6  UNL     1     -23.442 -18.173 -19.595  1.00  0.00     0.138 C 
HETATM   14  N4  UNL     1     -23.741 -17.570 -20.910  1.00  0.00    -0.360 N 
HETATM   15  C7  UNL     1     -22.406 -17.084 -20.905  1.00  0.00     0.225 C 
ATOM     16  H4  UNL     1     -24.543 -17.523 -21.538  1.00  0.00     0.162 HD
HETATM   17  O1  UNL     1     -21.560 -16.753 -21.763  1.00  0.00    -0.273 OA
ENDBRANCH  11  12
ENDBRANCH   1  11
TORSDOF 5
ENDMDL
MODEL 2
REMARK VINA RESULT: -4.325990255      2.567      5.931
REMARK  5 active torsions:
REMARK  status: ('A' for Active; 'I' for Inactive)
REMARK    1  A    between atoms: N2_4  and  C1_6 
REMARK    2  A    between atoms: C1_6  and  C2_7 
REMARK    3  A    between atoms: C3_8  and  N3_9 
REMARK    4  A    between atoms: N3_9  and  C4_11 
REMARK    5  A    between atoms: C4_11  and  C5_12 
ROOT
HETATM    1  N3  UNL     1     -20.378 -18.292 -17.109  1.00  0.00    -0.398 N 
ATOM      2  H3  UNL     1     -20.117 -17.481 -16.548  1.00  0.00     0.158 HD
ENDROOT
BRANCH   1   3
HETATM    3  C3  UNL     1     -21.501 -18.227 -17.975  1.00  0.00     0.080 C 
HETATM    4  C2  UNL     1     -21.485 -17.482 -19.053  1.00  0.00     0.011 C 
BRANCH   4   5
HETATM    5  C1  UNL     1     -22.663 -17.407 -19.972  1.00  0.00     0.167 C 
BRANCH   5   6
HETATM    6  N2  UNL     1     -22.198 -16.787 -21.207  1.00  0.00    -0.339 N 
HETATM    7  N1  UNL     1     -23.000 -16.468 -22.078  1.00  0.00    -0.349 N 
ATOM      8  H12 UNL     1     -23.992 -16.645 -21.923  1.00  0.00     0.176 HD
ATOM      9  H11 UNL     1     -22.674 -16.034 -22.943  1.00  0.00     0.176 HD
ATOM     10  H2  UNL     1     -21.203 -16.617 -21.347  1.00  0.00     0.179 HD
ENDBRANCH   5   6
ENDBRANCH   4   5
ENDBRANCH   1   3
BRANCH   1  11
HETATM   11  C4  UNL     1     -19.615 -19.495 -17.025  1.00  0.00     0.134 C 
BRANCH  11  12
HETATM   12  C5  UNL     1     -18.418 -19.561 -17.911  1.00  0.00     0.113 C 
HETATM   13  C6  UNL     1     -18.169 -20.789 -18.715  1.00  0.00     0.138 C 
HETATM   14  N4  UNL     1     -16.757 -20.729 -18.281  1.00  0.00    -0.360 N 
HETATM   15  C7  UNL     1     -17.218 -20.029 -17.135  1.00  0.00     0.225 C 
ATOM     16  H4  UNL     1     -15.858 -21.047 -18.643  1.00  0.00     0.162 HD
HETATM   17  O1  UNL     1     -16.823 -19.853 -15.962  1.00  0.00    -0.273 OA
ENDBRANCH  11  12
ENDBRANCH   1  11
TORSDOF 5
ENDMDL
MODEL 3
REMARK VINA RESULT: -4.322586562      3.161      5.416
REMARK  5 active torsions:
REMARK  status: ('A' for Active; 'I' for Inactive)
REMARK    1  A    between atoms: N2_4  and  C1_6 
REMARK    2  A    between atoms: C1_6  and  C2_7 
REMARK    3  A    between atoms: C3_8  and  N3_9 
REMARK    4  A    between atoms: N3_9  and  C4_11 
REMARK    5  A    between atoms: C4_11  and  C5_12 
ROOT
HETATM    1  N3  UNL     1     -20.507 -17.848 -17.495  1.00  0.00    -0.398 N 
ATOM      2  H3  UNL     1     -20.502 -17.113 -16.787  1.00  0.00     0.158 HD
ENDROOT
BRANCH   1   3
HETATM    3  C3  UNL     1     -20.768 -17.526 -18.853  1.00  0.00     0.080 C 
HETATM    4  C2  UNL     1     -21.991 -17.358 -19.288  1.00  0.00     0.011 C 
BRANCH   4   5
HETATM    5  C1  UNL     1     -22.276 -17.017 -20.716  1.00  0.00     0.167 C 
BRANCH   5   6
HETATM    6  N2  UNL     1     -23.561 -17.622 -21.049  1.00  0.00    -0.339 N 
HETATM    7  N1  UNL     1     -24.179 -18.264 -20.207  1.00  0.00    -0.349 N 
ATOM      8  H12 UNL     1     -23.778 -18.367 -19.274  1.00  0.00     0.176 HD
ATOM      9  H11 UNL     1     -25.078 -18.687 -20.439  1.00  0.00     0.176 HD
ATOM     10  H2  UNL     1     -23.948 -17.509 -21.985  1.00  0.00     0.179 HD
ENDBRANCH   5   6
ENDBRANCH   4   5
ENDBRANCH   1   3
BRANCH   1  11
HETATM   11  C4  UNL     1     -20.251 -19.202 -17.123  1.00  0.00     0.134 C 
BRANCH  11  12
HETATM   12  C5  UNL     1     -21.190 -19.781 -16.120  1.00  0.00     0.113 C 
HETATM   13  C6  UNL     1     -22.657 -19.631 -16.319  1.00  0.00     0.138 C 
HETATM   14  N4  UNL     1     -22.763 -19.245 -14.896  1.00  0.00    -0.360 N 
HETATM   15  C7  UNL     1     -21.414 -18.812 -14.992  1.00  0.00     0.225 C 
ATOM     16  H4  UNL     1     -23.481 -19.276 -14.173  1.00  0.00     0.162 HD
HETATM   17  O1  UNL     1     -20.685 -17.982 -14.407  1.00  0.00    -0.273 OA
ENDBRANCH  11  12
ENDBRANCH   1  11
TORSDOF 5
ENDMDL
MODEL 4
REMARK VINA RESULT: -4.287420757      4.789      6.197
REMARK  5 active torsions:
REMARK  status: ('A' for Active; 'I' for Inactive)
REMARK    1  A    between atoms: N2_4  and  C1_6 
REMARK    2  A    between atoms: C1_6  and  C2_7 
REMARK    3  A    between atoms: C3_8  and  N3_9 
REMARK    4  A    between atoms: N3_9  and  C4_11 
REMARK    5  A    between atoms: C4_11  and  C5_12 
ROOT
HETATM    1  N3  UNL     1     -25.088 -19.347 -18.684  1.00  0.00    -0.398 N 
ATOM      2  H3  UNL     1     -25.692 -20.105 -19.004  1.00  0.00     0.158 HD
ENDROOT
BRANCH   1   3
HETATM    3  C3  UNL     1     -24.282 -18.639 -19.614  1.00  0.00     0.080 C 
HETATM    4  C2  UNL     1     -23.232 -17.961 -19.223  1.00  0.00     0.011 C 
BRANCH   4   5
HETATM    5  C1  UNL     1     -22.376 -17.212 -20.195  1.00  0.00     0.167 C 
BRANCH   5   6
HETATM    6  N2  UNL     1     -23.120 -17.139 -21.447  1.00  0.00    -0.339 N 
HETATM    7  N1  UNL     1     -23.026 -16.150 -22.165  1.00  0.00    -0.349 N 
ATOM      8  H12 UNL     1     -22.420 -15.384 -21.872  1.00  0.00     0.176 HD
ATOM      9  H11 UNL     1     -23.547 -16.099 -23.042  1.00  0.00     0.176 HD
ATOM     10  H2  UNL     1     -23.722 -17.913 -21.727  1.00  0.00     0.179 HD
ENDBRANCH   5   6
ENDBRANCH   4   5
ENDBRANCH   1   3
BRANCH   1  11
HETATM   11  C4  UNL     1     -25.051 -18.997 -17.301  1.00  0.00     0.134 C 
BRANCH  11  12
HETATM   12  C5  UNL     1     -26.124 -19.597 -16.458  1.00  0.00     0.113 C 
HETATM   13  C6  UNL     1     -26.203 -21.077 -16.316  1.00  0.00     0.138 C 
HETATM   14  N4  UNL     1     -27.658 -20.975 -16.550  1.00  0.00    -0.360 N 
HETATM   15  C7  UNL     1     -27.383 -19.776 -17.260  1.00  0.00     0.225 C 
ATOM     16  H4  UNL     1     -28.486 -21.519 -16.310  1.00  0.00     0.162 HD
HETATM   17  O1  UNL     1     -27.929 -19.117 -18.171  1.00  0.00    -0.273 OA
ENDBRANCH  11  12
ENDBRANCH   1  11
TORSDOF 5
ENDMDL
MODEL 5
REMARK VINA RESULT: -4.275179995      1.175      1.203
REMARK  5 active torsions:
REMARK  status: ('A' for Active; 'I' for Inactive)
REMARK    1  A    between atoms: N2_4  and  C1_6 
REMARK    2  A    between atoms: C1_6  and  C2_7 
REMARK    3  A    between atoms: C3_8  and  N3_9 
REMARK    4  A    between atoms: N3_9  and  C4_11 
REMARK    5  A    between atoms: C4_11  and  C5_12 
ROOT
HETATM    1  N3  UNL     1     -20.779 -18.010 -17.624  1.00  0.00    -0.398 N 
ATOM      2  H3  UNL     1     -21.358 -17.639 -16.870  1.00  0.00     0.158 HD
ENDROOT
BRANCH   1   3
HETATM    3  C3  UNL     1     -19.822 -19.023 -17.354  1.00  0.00     0.080 C 
HETATM    4  C2  UNL     1     -18.756 -19.166 -18.100  1.00  0.00     0.011 C 
BRANCH   4   5
HETATM    5  C1  UNL     1     -17.742 -20.230 -17.823  1.00  0.00     0.167 C 
BRANCH   5   6
HETATM    6  N2  UNL     1     -17.718 -20.428 -16.379  1.00  0.00    -0.339 N 
HETATM    7  N1  UNL     1     -16.657 -20.384 -15.766  1.00  0.00    -0.349 N 
ATOM      8  H12 UNL     1     -15.796 -20.206 -16.283  1.00  0.00     0.176 HD
ATOM      9  H11 UNL     1     -16.641 -20.522 -14.755  1.00  0.00     0.176 HD
ATOM     10  H2  UNL     1     -18.588 -20.605 -15.876  1.00  0.00     0.179 HD
ENDBRANCH   5   6
ENDBRANCH   4   5
ENDBRANCH   1   3
BRANCH   1  11
HETATM   11  C4  UNL     1     -20.929 -17.511 -18.952  1.00  0.00     0.134 C 
BRANCH  11  12
HETATM   12  C5  UNL     1     -22.316 -17.130 -19.343  1.00  0.00     0.113 C 
HETATM   13  C6  UNL     1     -23.365 -18.182 -19.438  1.00  0.00     0.138 C 
HETATM   14  N4  UNL     1     -23.777 -17.588 -20.727  1.00  0.00    -0.360 N 
HETATM   15  C7  UNL     1     -22.449 -17.101 -20.842  1.00  0.00     0.225 C 
ATOM     16  H4  UNL     1     -24.631 -17.547 -21.283  1.00  0.00     0.162 HD
HETATM   17  O1  UNL     1     -21.680 -16.775 -21.771  1.00  0.00    -0.273 OA
ENDBRANCH  11  12
ENDBRANCH   1  11
TORSDOF 5
ENDMDL
