MODEL 1
REMARK VINA RESULT: -4.311105553      0.000      0.000
REMARK  12 active torsions:
REMARK  status: ('A' for Active; 'I' for Inactive)
REMARK    1  A    between atoms: C2_2  and  C3_3 
REMARK       I    between atoms: N1_5  and  C5_6 
REMARK    2  A    between atoms: C9_14  and  C10_15 
REMARK    3  A    between atoms: C10_15  and  N4_16 
REMARK    4  A    between atoms: C17_26  and  N6_27 
REMARK    5  A    between atoms: N6_27  and  C18_28 
REMARK    6  A    between atoms: C18_28  and  C19_29 
REMARK    7  A    between atoms: C19_29  and  O2_30 
REMARK    8  A    between atoms: C26_41  and  C27_42 
REMARK    9  A    between atoms: C27_42  and  C28_43 
REMARK   10  A    between atoms: C28_43  and  C29_44 
REMARK   11  A    between atoms: C29_44  and  C30_45 
REMARK   12  A    between atoms: C30_45  and  N8_46 
ROOT
HETATM    1  C3  UNL     1      26.258  -0.918   0.984  1.00  0.00     0.128 C 
HETATM    2  C4  UNL     1      25.430  -1.480   2.125  1.00  0.00     0.155 C 
HETATM    3  N1  UNL     1      24.056  -1.219   1.822  1.00  0.00    -0.352 N 
HETATM    4  C5  UNL     1      23.135  -1.276   2.903  1.00  0.00     0.184 C 
HETATM    5  N2  UNL     1      23.499  -0.851   4.058  1.00  0.00    -0.374 N 
ATOM      6  H21 UNL     1      22.838  -0.892   4.834  1.00  0.00     0.158 HD
ATOM      7  H22 UNL     1      24.444  -0.482   4.162  1.00  0.00     0.158 HD
HETATM    8  N3  UNL     1      21.823  -1.788   2.758  1.00  0.00    -0.064 NA
HETATM    9  C6  UNL     1      23.530  -0.901   0.513  1.00  0.00     0.150 C 
HETATM   10  C7  UNL     1      24.405  -1.277  -0.635  1.00  0.00     0.107 C 
HETATM   11  C8  UNL     1      24.402  -0.129  -1.619  1.00  0.00     0.042 C 
HETATM   12  C9  UNL     1      23.588  -0.408  -2.872  1.00  0.00     0.106 C 
HETATM   13  C14 UNL     1      24.156   0.445  -3.942  1.00  0.00     0.223 C 
HETATM   14  O1  UNL     1      24.121   1.685  -3.745  1.00  0.00    -0.273 OA
HETATM   15  N5  UNL     1      24.727  -0.007  -5.149  1.00  0.00    -0.361 N 
ATOM     16  H5  UNL     1      24.813   0.679  -5.899  1.00  0.00     0.162 HD
HETATM   17  C15 UNL     1      25.198  -1.329  -5.430  1.00  0.00     0.125 C 
HETATM   18  C16 UNL     1      26.709  -1.276  -5.736  1.00  0.00     0.063 C 
HETATM   19  C17 UNL     1      27.476  -1.449  -4.479  1.00  0.00     0.283 C 
HETATM   20  C25 UNL     1      27.492  -2.933  -4.231  1.00  0.00     0.249 C 
HETATM   21  O3  UNL     1      27.651  -3.689  -5.262  1.00  0.00    -0.271 OA
HETATM   22  N7  UNL     1      27.346  -3.543  -2.981  1.00  0.00    -0.346 N 
ATOM     23  H7  UNL     1      28.076  -4.205  -2.719  1.00  0.00     0.163 HD
HETATM   24  C26 UNL     1      26.289  -3.349  -2.014  1.00  0.00     0.176 C 
HETATM   25  C31 UNL     1      26.664  -2.396  -0.941  1.00  0.00     0.243 C 
HETATM   26  O4  UNL     1      27.886  -2.336  -0.633  1.00  0.00    -0.271 OA
HETATM   27  N9  UNL     1      25.763  -1.559  -0.246  1.00  0.00    -0.334 N 
ENDROOT
BRANCH  19  28
HETATM   28  N6  UNL     1      28.748  -0.793  -4.353  1.00  0.00    -0.052 N 
HETATM   29  C20 UNL     1      29.728  -1.835  -3.979  1.00  0.00     0.238 C 
HETATM   30  C21 UNL     1      31.133  -1.276  -3.892  1.00  0.00     0.028 C 
HETATM   31  C22 UNL     1      31.605  -1.055  -5.302  1.00  0.00     0.003 C 
HETATM   32  C23 UNL     1      30.420  -1.005  -6.199  1.00  0.00     0.028 C 
HETATM   33  C24 UNL     1      29.196  -0.344  -5.663  1.00  0.00     0.238 C 
BRANCH  28  34
HETATM   34  C18 UNL     1      28.846   0.204  -3.341  1.00  0.00     0.264 C 
BRANCH  34  35
HETATM   35  C19 UNL     1      27.575   0.742  -2.762  1.00  0.00     0.192 C 
BRANCH  35  36
HETATM   36  O2  UNL     1      27.165   1.776  -3.638  1.00  0.00    -0.399 OA
ATOM     37  H2  UNL     1      26.353   1.474  -4.027  1.00  0.00     0.209 HD
ENDBRANCH  35  36
ENDBRANCH  34  35
ENDBRANCH  28  34
ENDBRANCH  19  28
BRANCH  24  38
HETATM   38  C27 UNL     1      25.990  -4.725  -1.396  1.00  0.00     0.035 C 
BRANCH  38  39
HETATM   39  C28 UNL     1      25.508  -5.642  -2.504  1.00  0.00     0.004 C 
BRANCH  39  40
HETATM   40  C29 UNL     1      26.158  -6.985  -2.466  1.00  0.00     0.027 C 
BRANCH  40  41
HETATM   41  C30 UNL     1      26.456  -7.398  -3.892  1.00  0.00     0.229 C 
BRANCH  41  42
HETATM   42  N8  UNL     1      27.629  -6.713  -4.409  1.00  0.00    -0.079 N 
ATOM     43  H83 UNL     1      27.781  -5.823  -3.936  1.00  0.00     0.274 HD
ATOM     44  H82 UNL     1      28.489  -7.187  -4.134  1.00  0.00     0.274 HD
ATOM     45  H81 UNL     1      27.576  -6.594  -5.420  1.00  0.00     0.274 HD
ENDBRANCH  41  42
ENDBRANCH  40  41
ENDBRANCH  39  40
ENDBRANCH  38  39
ENDBRANCH  24  38
BRANCH  12  46
HETATM   46  C10 UNL     1      22.153  -0.083  -2.566  1.00  0.00     0.250 C 
BRANCH  46  47
HETATM   47  N4  UNL     1      21.233  -1.155  -2.736  1.00  0.00    -0.078 N 
HETATM   48  C11 UNL     1      20.451  -1.474  -1.568  1.00  0.00     0.271 C 
HETATM   49  C12 UNL     1      21.837  -2.363  -3.283  1.00  0.00     0.271 C 
HETATM   50  C13 UNL     1      20.261  -0.718  -3.757  1.00  0.00     0.271 C 
ENDBRANCH  46  47
ENDBRANCH  12  46
BRANCH   1  51
HETATM   51  C2  UNL     1      26.191   0.550   0.913  1.00  0.00    -0.010 C 
HETATM   52  C1  UNL     1      26.633   1.250   1.950  1.00  0.00     0.009 C 
ENDBRANCH   1  51
TORSDOF 12
ENDMDL
MODEL 2
REMARK VINA RESULT: -4.280952780      1.732      2.710
REMARK  12 active torsions:
REMARK  status: ('A' for Active; 'I' for Inactive)
REMARK    1  A    between atoms: C2_2  and  C3_3 
REMARK       I    between atoms: N1_5  and  C5_6 
REMARK    2  A    between atoms: C9_14  and  C10_15 
REMARK    3  A    between atoms: C10_15  and  N4_16 
REMARK    4  A    between atoms: C17_26  and  N6_27 
REMARK    5  A    between atoms: N6_27  and  C18_28 
REMARK    6  A    between atoms: C18_28  and  C19_29 
REMARK    7  A    between atoms: C19_29  and  O2_30 
REMARK    8  A    between atoms: C26_41  and  C27_42 
REMARK    9  A    between atoms: C27_42  and  C28_43 
REMARK   10  A    between atoms: C28_43  and  C29_44 
REMARK   11  A    between atoms: C29_44  and  C30_45 
REMARK   12  A    between atoms: C30_45  and  N8_46 
ROOT
HETATM    1  C3  UNL     1      24.630  -0.799  -0.256  1.00  0.00     0.128 C 
HETATM    2  C4  UNL     1      23.355  -1.277   0.415  1.00  0.00     0.155 C 
HETATM    3  N1  UNL     1      22.263  -0.897  -0.428  1.00  0.00    -0.352 N 
HETATM    4  C5  UNL     1      20.972  -0.864   0.167  1.00  0.00     0.184 C 
HETATM    5  N2  UNL     1      20.852  -0.465   1.380  1.00  0.00    -0.374 N 
ATOM      6  H21 UNL     1      19.925  -0.441   1.807  1.00  0.00     0.158 HD
ATOM      7  H22 UNL     1      21.694  -0.181   1.882  1.00  0.00     0.158 HD
HETATM    8  N3  UNL     1      19.804  -1.257  -0.530  1.00  0.00    -0.064 NA
HETATM    9  C6  UNL     1      22.364  -0.543  -1.826  1.00  0.00     0.150 C 
HETATM   10  C7  UNL     1      23.605  -1.003  -2.513  1.00  0.00     0.107 C 
HETATM   11  C8  UNL     1      24.111   0.134  -3.372  1.00  0.00     0.042 C 
HETATM   12  C9  UNL     1      23.878  -0.080  -4.858  1.00  0.00     0.106 C 
HETATM   13  C14 UNL     1      24.912   0.711  -5.565  1.00  0.00     0.223 C 
HETATM   14  O1  UNL     1      24.902   1.951  -5.362  1.00  0.00    -0.273 OA
HETATM   15  N5  UNL     1      25.897   0.201  -6.436  1.00  0.00    -0.361 N 
ATOM     16  H5  UNL     1      26.347   0.871  -7.059  1.00  0.00     0.162 HD
HETATM   17  C15 UNL     1      26.329  -1.159  -6.535  1.00  0.00     0.125 C 
HETATM   18  C16 UNL     1      27.827  -1.244  -6.179  1.00  0.00     0.063 C 
HETATM   19  C17 UNL     1      27.979  -1.476  -4.722  1.00  0.00     0.283 C 
HETATM   20  C25 UNL     1      27.764  -2.954  -4.536  1.00  0.00     0.249 C 
HETATM   21  O3  UNL     1      28.277  -3.728  -5.430  1.00  0.00    -0.271 OA
HETATM   22  N7  UNL     1      27.056  -3.539  -3.482  1.00  0.00    -0.346 N 
ATOM     23  H7  UNL     1      27.550  -4.262  -2.959  1.00  0.00     0.163 HD
HETATM   24  C26 UNL     1      25.712  -3.245  -3.041  1.00  0.00     0.176 C 
HETATM   25  C31 UNL     1      25.680  -2.322  -1.880  1.00  0.00     0.243 C 
HETATM   26  O4  UNL     1      26.661  -2.369  -1.087  1.00  0.00    -0.271 OA
HETATM   27  N9  UNL     1      24.645  -1.402  -1.601  1.00  0.00    -0.334 N 
ENDROOT
BRANCH  19  28
HETATM   28  N6  UNL     1      29.130  -0.935  -4.054  1.00  0.00    -0.052 N 
HETATM   29  C20 UNL     1      29.802  -0.042  -5.024  1.00  0.00     0.238 C 
HETATM   30  C21 UNL     1      30.996   0.655  -4.407  1.00  0.00     0.028 C 
HETATM   31  C22 UNL     1      30.458   1.722  -3.494  1.00  0.00     0.003 C 
HETATM   32  C23 UNL     1      29.042   1.403  -3.171  1.00  0.00     0.028 C 
HETATM   33  C24 UNL     1      28.699  -0.037  -2.993  1.00  0.00     0.238 C 
BRANCH  28  34
HETATM   34  C18 UNL     1      30.122  -1.871  -3.646  1.00  0.00     0.264 C 
BRANCH  34  35
HETATM   35  C19 UNL     1      31.108  -2.338  -4.670  1.00  0.00     0.192 C 
BRANCH  35  36
HETATM   36  O2  UNL     1      31.210  -3.738  -4.489  1.00  0.00    -0.399 OA
ATOM     37  H2  UNL     1      30.730  -4.125  -5.213  1.00  0.00     0.209 HD
ENDBRANCH  35  36
ENDBRANCH  34  35
ENDBRANCH  28  34
ENDBRANCH  19  28
BRANCH  24  38
HETATM   38  C27 UNL     1      25.066  -4.584  -2.648  1.00  0.00     0.035 C 
BRANCH  38  39
HETATM   39  C28 UNL     1      26.176  -5.599  -2.452  1.00  0.00     0.004 C 
BRANCH  39  40
HETATM   40  C29 UNL     1      25.826  -6.651  -1.452  1.00  0.00     0.027 C 
BRANCH  40  41
HETATM   41  C30 UNL     1      26.905  -6.659  -0.389  1.00  0.00     0.229 C 
BRANCH  41  42
HETATM   42  N8  UNL     1      27.381  -5.316  -0.106  1.00  0.00    -0.079 N 
ATOM     43  H83 UNL     1      26.607  -4.664   0.025  1.00  0.00     0.274 HD
ATOM     44  H82 UNL     1      27.797  -5.255   0.823  1.00  0.00     0.274 HD
ATOM     45  H81 UNL     1      28.025  -4.989  -0.825  1.00  0.00     0.274 HD
ENDBRANCH  41  42
ENDBRANCH  40  41
ENDBRANCH  39  40
ENDBRANCH  38  39
ENDBRANCH  24  38
BRANCH  12  46
HETATM   46  C10 UNL     1      22.480   0.374  -5.171  1.00  0.00     0.250 C 
BRANCH  46  47
HETATM   47  N4  UNL     1      21.624  -0.618  -5.726  1.00  0.00    -0.078 N 
HETATM   48  C11 UNL     1      20.385  -0.815  -5.018  1.00  0.00     0.271 C 
HETATM   49  C12 UNL     1      22.282  -1.898  -5.955  1.00  0.00     0.271 C 
HETATM   50  C13 UNL     1      21.242  -0.141  -7.069  1.00  0.00     0.271 C 
ENDBRANCH  46  47
ENDBRANCH  12  46
BRANCH   1  51
HETATM   51  C2  UNL     1      24.722   0.668  -0.304  1.00  0.00    -0.010 C 
HETATM   52  C1  UNL     1      25.928   1.221  -0.315  1.00  0.00     0.009 C 
ENDBRANCH   1  51
TORSDOF 12
ENDMDL
MODEL 3
REMARK VINA RESULT: -4.207005264      1.068      1.874
REMARK  12 active torsions:
REMARK  status: ('A' for Active; 'I' for Inactive)
REMARK    1  A    between atoms: C2_2  and  C3_3 
REMARK       I    between atoms: N1_5  and  C5_6 
REMARK    2  A    between atoms: C9_14  and  C10_15 
REMARK    3  A    between atoms: C10_15  and  N4_16 
REMARK    4  A    between atoms: C17_26  and  N6_27 
REMARK    5  A    between atoms: N6_27  and  C18_28 
REMARK    6  A    between atoms: C18_28  and  C19_29 
REMARK    7  A    between atoms: C19_29  and  O2_30 
REMARK    8  A    between atoms: C26_41  and  C27_42 
REMARK    9  A    between atoms: C27_42  and  C28_43 
REMARK   10  A    between atoms: C28_43  and  C29_44 
REMARK   11  A    between atoms: C29_44  and  C30_45 
REMARK   12  A    between atoms: C30_45  and  N8_46 
ROOT
HETATM    1  C3  UNL     1      25.883  -0.607   0.674  1.00  0.00     0.128 C 
HETATM    2  C4  UNL     1      25.024  -1.195   1.778  1.00  0.00     0.155 C 
HETATM    3  N1  UNL     1      23.657  -1.019   1.393  1.00  0.00    -0.352 N 
HETATM    4  C5  UNL     1      22.681  -1.110   2.422  1.00  0.00     0.184 C 
HETATM    5  N2  UNL     1      22.953  -0.644   3.587  1.00  0.00    -0.374 N 
ATOM      6  H21 UNL     1      22.253  -0.710   4.325  1.00  0.00     0.158 HD
ATOM      7  H22 UNL     1      23.869  -0.220   3.736  1.00  0.00     0.158 HD
HETATM    8  N3  UNL     1      21.410  -1.698   2.215  1.00  0.00    -0.064 NA
HETATM    9  C6  UNL     1      23.190  -0.755   0.050  1.00  0.00     0.150 C 
HETATM   10  C7  UNL     1      24.149  -1.100  -1.039  1.00  0.00     0.107 C 
HETATM   11  C8  UNL     1      24.138   0.029  -2.045  1.00  0.00     0.042 C 
HETATM   12  C9  UNL     1      23.413  -0.318  -3.335  1.00  0.00     0.106 C 
HETATM   13  C14 UNL     1      23.993   0.548  -4.389  1.00  0.00     0.223 C 
HETATM   14  O1  UNL     1      23.877   1.787  -4.220  1.00  0.00    -0.273 OA
HETATM   15  N5  UNL     1      24.656   0.108  -5.553  1.00  0.00    -0.361 N 
ATOM     16  H5  UNL     1      24.746   0.785  -6.311  1.00  0.00     0.162 HD
HETATM   17  C15 UNL     1      25.216  -1.189  -5.780  1.00  0.00     0.125 C 
HETATM   18  C16 UNL     1      26.736  -1.055  -6.002  1.00  0.00     0.063 C 
HETATM   19  C17 UNL     1      27.439  -1.163  -4.700  1.00  0.00     0.283 C 
HETATM   20  C25 UNL     1      27.523  -2.639  -4.421  1.00  0.00     0.249 C 
HETATM   21  O3  UNL     1      27.784  -3.402  -5.426  1.00  0.00    -0.271 OA
HETATM   22  N7  UNL     1      27.341  -3.234  -3.169  1.00  0.00    -0.346 N 
ATOM     23  H7  UNL     1      28.091  -3.849  -2.853  1.00  0.00     0.163 HD
HETATM   24  C26 UNL     1      26.221  -3.084  -2.267  1.00  0.00     0.176 C 
HETATM   25  C31 UNL     1      26.481  -2.093  -1.194  1.00  0.00     0.243 C 
HETATM   26  O4  UNL     1      27.678  -1.958  -0.820  1.00  0.00    -0.271 OA
HETATM   27  N9  UNL     1      25.496  -1.296  -0.569  1.00  0.00    -0.334 N 
ENDROOT
BRANCH  19  28
HETATM   28  N6  UNL     1      28.663  -0.433  -4.516  1.00  0.00    -0.052 N 
HETATM   29  C20 UNL     1      28.556   0.790  -5.342  1.00  0.00     0.238 C 
HETATM   30  C21 UNL     1      29.762   1.689  -5.169  1.00  0.00     0.028 C 
HETATM   31  C22 UNL     1      29.631   2.346  -3.824  1.00  0.00     0.003 C 
HETATM   32  C23 UNL     1      28.682   1.554  -2.997  1.00  0.00     0.028 C 
HETATM   33  C24 UNL     1      28.727   0.072  -3.152  1.00  0.00     0.238 C 
BRANCH  28  34
HETATM   34  C18 UNL     1      29.855  -1.080  -4.945  1.00  0.00     0.264 C 
BRANCH  34  35
HETATM   35  C19 UNL     1      30.784  -1.604  -3.895  1.00  0.00     0.192 C 
BRANCH  35  36
HETATM   36  O2  UNL     1      30.612  -3.009  -3.901  1.00  0.00    -0.399 OA
ATOM     37  H2  UNL     1      29.681  -3.153  -3.780  1.00  0.00     0.209 HD
ENDBRANCH  35  36
ENDBRANCH  34  35
ENDBRANCH  28  34
ENDBRANCH  19  28
BRANCH  24  38
HETATM   38  C27 UNL     1      25.965  -4.464  -1.639  1.00  0.00     0.035 C 
BRANCH  38  39
HETATM   39  C28 UNL     1      25.550  -5.414  -2.746  1.00  0.00     0.004 C 
BRANCH  39  40
HETATM   40  C29 UNL     1      25.778  -6.846  -2.394  1.00  0.00     0.027 C 
BRANCH  40  41
HETATM   41  C30 UNL     1      26.576  -6.887  -1.106  1.00  0.00     0.229 C 
BRANCH  41  42
HETATM   42  N8  UNL     1      27.800  -7.655  -1.264  1.00  0.00    -0.079 N 
ATOM     43  H83 UNL     1      28.364  -7.639  -0.414  1.00  0.00     0.274 HD
ATOM     44  H82 UNL     1      27.610  -8.655  -1.309  1.00  0.00     0.274 HD
ATOM     45  H81 UNL     1      28.336  -7.340  -2.073  1.00  0.00     0.274 HD
ENDBRANCH  41  42
ENDBRANCH  40  41
ENDBRANCH  39  40
ENDBRANCH  38  39
ENDBRANCH  24  38
BRANCH  12  46
HETATM   46  C10 UNL     1      21.947  -0.070  -3.117  1.00  0.00     0.250 C 
BRANCH  46  47
HETATM   47  N4  UNL     1      21.103  -1.202  -3.292  1.00  0.00    -0.078 N 
HETATM   48  C11 UNL     1      20.307  -1.548  -2.141  1.00  0.00     0.271 C 
HETATM   49  C12 UNL     1      21.798  -2.379  -3.796  1.00  0.00     0.271 C 
HETATM   50  C13 UNL     1      20.137  -0.847  -4.350  1.00  0.00     0.271 C 
ENDBRANCH  46  47
ENDBRANCH  12  46
BRANCH   1  51
HETATM   51  C2  UNL     1      25.738   0.853   0.569  1.00  0.00    -0.010 C 
HETATM   52  C1  UNL     1      26.790   1.562   0.181  1.00  0.00     0.009 C 
ENDBRANCH   1  51
TORSDOF 12
ENDMDL
MODEL 4
REMARK VINA RESULT: -4.205412198      2.389      7.652
REMARK  12 active torsions:
REMARK  status: ('A' for Active; 'I' for Inactive)
REMARK    1  A    between atoms: C2_2  and  C3_3 
REMARK       I    between atoms: N1_5  and  C5_6 
REMARK    2  A    between atoms: C9_14  and  C10_15 
REMARK    3  A    between atoms: C10_15  and  N4_16 
REMARK    4  A    between atoms: C17_26  and  N6_27 
REMARK    5  A    between atoms: N6_27  and  C18_28 
REMARK    6  A    between atoms: C18_28  and  C19_29 
REMARK    7  A    between atoms: C19_29  and  O2_30 
REMARK    8  A    between atoms: C26_41  and  C27_42 
REMARK    9  A    between atoms: C27_42  and  C28_43 
REMARK   10  A    between atoms: C28_43  and  C29_44 
REMARK   11  A    between atoms: C29_44  and  C30_45 
REMARK   12  A    between atoms: C30_45  and  N8_46 
ROOT
HETATM    1  C3  UNL     1      28.043   1.556  -4.842  1.00  0.00     0.128 C 
HETATM    2  C4  UNL     1      28.975   1.884  -5.994  1.00  0.00     0.155 C 
HETATM    3  N1  UNL     1      30.003   0.889  -6.005  1.00  0.00    -0.352 N 
HETATM    4  C5  UNL     1      31.196   1.204  -6.711  1.00  0.00     0.184 C 
HETATM    5  N2  UNL     1      31.642   2.407  -6.683  1.00  0.00    -0.374 N 
ATOM      6  H21 UNL     1      32.497   2.633  -7.189  1.00  0.00     0.158 HD
ATOM      7  H22 UNL     1      31.121   3.103  -6.149  1.00  0.00     0.158 HD
HETATM    8  N3  UNL     1      31.919   0.238  -7.452  1.00  0.00    -0.064 NA
HETATM    9  C6  UNL     1      29.930  -0.402  -5.359  1.00  0.00     0.150 C 
HETATM   10  C7  UNL     1      28.555  -0.871  -5.022  1.00  0.00     0.107 C 
HETATM   11  C8  UNL     1      28.590  -1.456  -3.628  1.00  0.00     0.042 C 
HETATM   12  C9  UNL     1      28.508  -2.974  -3.608  1.00  0.00     0.106 C 
HETATM   13  C14 UNL     1      27.935  -3.347  -2.293  1.00  0.00     0.223 C 
HETATM   14  O1  UNL     1      28.589  -2.996  -1.280  1.00  0.00    -0.273 OA
HETATM   15  N5  UNL     1      26.734  -4.053  -2.081  1.00  0.00    -0.361 N 
ATOM     16  H5  UNL     1      26.611  -4.481  -1.164  1.00  0.00     0.162 HD
HETATM   17  C15 UNL     1      25.670  -4.232  -3.021  1.00  0.00     0.125 C 
HETATM   18  C16 UNL     1      24.385  -3.588  -2.462  1.00  0.00     0.063 C 
HETATM   19  C17 UNL     1      24.309  -2.172  -2.898  1.00  0.00     0.283 C 
HETATM   20  C25 UNL     1      23.775  -2.222  -4.304  1.00  0.00     0.249 C 
HETATM   21  O3  UNL     1      22.842  -3.081  -4.535  1.00  0.00    -0.271 OA
HETATM   22  N7  UNL     1      24.211  -1.419  -5.361  1.00  0.00    -0.346 N 
ATOM     23  H7  UNL     1      23.487  -0.901  -5.858  1.00  0.00     0.163 HD
HETATM   24  C26 UNL     1      25.563  -1.231  -5.837  1.00  0.00     0.176 C 
HETATM   25  C31 UNL     1      26.189   0.005  -5.306  1.00  0.00     0.243 C 
HETATM   26  O4  UNL     1      25.417   0.971  -5.052  1.00  0.00    -0.271 OA
HETATM   27  N9  UNL     1      27.570   0.179  -5.066  1.00  0.00    -0.334 N 
ENDROOT
BRANCH  19  28
HETATM   28  N6  UNL     1      23.671  -1.218  -2.033  1.00  0.00    -0.052 N 
HETATM   29  C20 UNL     1      23.206  -1.968  -0.845  1.00  0.00     0.238 C 
HETATM   30  C21 UNL     1      22.582  -1.050   0.185  1.00  0.00     0.028 C 
HETATM   31  C22 UNL     1      23.706  -0.305   0.848  1.00  0.00     0.003 C 
HETATM   32  C23 UNL     1      24.905  -0.372  -0.029  1.00  0.00     0.028 C 
HETATM   33  C24 UNL     1      24.669  -0.302  -1.499  1.00  0.00     0.238 C 
BRANCH  28  34
HETATM   34  C18 UNL     1      22.516  -0.569  -2.551  1.00  0.00     0.264 C 
BRANCH  34  35
HETATM   35  C19 UNL     1      22.603   0.899  -2.830  1.00  0.00     0.192 C 
BRANCH  35  36
HETATM   36  O2  UNL     1      22.651   1.017  -4.240  1.00  0.00    -0.399 OA
ATOM     37  H2  UNL     1      23.251   1.733  -4.416  1.00  0.00     0.209 HD
ENDBRANCH  35  36
ENDBRANCH  34  35
ENDBRANCH  28  34
ENDBRANCH  19  28
BRANCH  24  38
HETATM   38  C27 UNL     1      25.491  -1.152  -7.371  1.00  0.00     0.035 C 
BRANCH  38  39
HETATM   39  C28 UNL     1      26.696  -1.880  -7.934  1.00  0.00     0.004 C 
BRANCH  39  40
HETATM   40  C29 UNL     1      27.670  -0.960  -8.593  1.00  0.00     0.027 C 
BRANCH  40  41
HETATM   41  C30 UNL     1      28.947  -1.737  -8.844  1.00  0.00     0.229 C 
BRANCH  41  42
HETATM   42  N8  UNL     1      28.665  -3.095  -9.278  1.00  0.00    -0.079 N 
ATOM     43  H83 UNL     1      27.784  -3.149  -9.791  1.00  0.00     0.274 HD
ATOM     44  H82 UNL     1      29.298  -3.389 -10.021  1.00  0.00     0.274 HD
ATOM     45  H81 UNL     1      28.680  -3.748  -8.495  1.00  0.00     0.274 HD
ENDBRANCH  41  42
ENDBRANCH  40  41
ENDBRANCH  39  40
ENDBRANCH  38  39
ENDBRANCH  24  38
BRANCH  12  46
HETATM   46  C10 UNL     1      29.898  -3.509  -3.812  1.00  0.00     0.250 C 
BRANCH  46  47
HETATM   47  N4  UNL     1      30.019  -4.545  -4.779  1.00  0.00    -0.078 N 
HETATM   48  C11 UNL     1      30.193  -4.091  -6.136  1.00  0.00     0.271 C 
HETATM   49  C12 UNL     1      28.952  -5.535  -4.713  1.00  0.00     0.271 C 
HETATM   50  C13 UNL     1      31.251  -5.288  -4.449  1.00  0.00     0.271 C 
ENDBRANCH  46  47
ENDBRANCH  12  46
BRANCH   1  51
HETATM   51  C2  UNL     1      28.693   1.714  -3.532  1.00  0.00    -0.010 C 
HETATM   52  C1  UNL     1      27.927   1.950  -2.475  1.00  0.00     0.009 C 
ENDBRANCH   1  51
TORSDOF 12
ENDMDL
MODEL 5
REMARK VINA RESULT: -4.203093519      0.896      1.823
REMARK  12 active torsions:
REMARK  status: ('A' for Active; 'I' for Inactive)
REMARK    1  A    between atoms: C2_2  and  C3_3 
REMARK       I    between atoms: N1_5  and  C5_6 
REMARK    2  A    between atoms: C9_14  and  C10_15 
REMARK    3  A    between atoms: C10_15  and  N4_16 
REMARK    4  A    between atoms: C17_26  and  N6_27 
REMARK    5  A    between atoms: N6_27  and  C18_28 
REMARK    6  A    between atoms: C18_28  and  C19_29 
REMARK    7  A    between atoms: C19_29  and  O2_30 
REMARK    8  A    between atoms: C26_41  and  C27_42 
REMARK    9  A    between atoms: C27_42  and  C28_43 
REMARK   10  A    between atoms: C28_43  and  C29_44 
REMARK   11  A    between atoms: C29_44  and  C30_45 
REMARK   12  A    between atoms: C30_45  and  N8_46 
ROOT
HETATM    1  C3  UNL     1      26.208  -0.723   0.732  1.00  0.00     0.128 C 
HETATM    2  C4  UNL     1      25.371  -1.326   1.845  1.00  0.00     0.155 C 
HETATM    3  N1  UNL     1      23.998  -1.081   1.525  1.00  0.00    -0.352 N 
HETATM    4  C5  UNL     1      23.061  -1.179   2.589  1.00  0.00     0.184 C 
HETATM    5  N2  UNL     1      23.398  -0.775   3.760  1.00  0.00    -0.374 N 
ATOM      6  H21 UNL     1      22.726  -0.846   4.523  1.00  0.00     0.158 HD
ATOM      7  H22 UNL     1      24.336  -0.393   3.888  1.00  0.00     0.158 HD
HETATM    8  N3  UNL     1      21.761  -1.710   2.411  1.00  0.00    -0.064 NA
HETATM    9  C6  UNL     1      23.488  -0.742   0.215  1.00  0.00     0.150 C 
HETATM   10  C7  UNL     1      24.388  -1.075  -0.926  1.00  0.00     0.107 C 
HETATM   11  C8  UNL     1      24.381   0.096  -1.883  1.00  0.00     0.042 C 
HETATM   12  C9  UNL     1      23.592  -0.167  -3.155  1.00  0.00     0.106 C 
HETATM   13  C14 UNL     1      24.163   0.720  -4.196  1.00  0.00     0.223 C 
HETATM   14  O1  UNL     1      24.102   1.955  -3.970  1.00  0.00    -0.273 OA
HETATM   15  N5  UNL     1      24.760   0.307  -5.403  1.00  0.00    -0.361 N 
ATOM     16  H5  UNL     1      24.846   1.012  -6.136  1.00  0.00     0.162 HD
HETATM   17  C15 UNL     1      25.259  -0.999  -5.707  1.00  0.00     0.125 C 
HETATM   18  C16 UNL     1      26.773  -0.914  -5.987  1.00  0.00     0.063 C 
HETATM   19  C17 UNL     1      27.523  -1.104  -4.722  1.00  0.00     0.283 C 
HETATM   20  C25 UNL     1      27.560  -2.593  -4.508  1.00  0.00     0.249 C 
HETATM   21  O3  UNL     1      27.749  -3.321  -5.554  1.00  0.00    -0.271 OA
HETATM   22  N7  UNL     1      27.405  -3.235  -3.275  1.00  0.00    -0.346 N 
ATOM     23  H7  UNL     1      28.141  -3.891  -3.017  1.00  0.00     0.163 HD
HETATM   24  C26 UNL     1      26.329  -3.082  -2.322  1.00  0.00     0.176 C 
HETATM   25  C31 UNL     1      26.670  -2.148  -1.221  1.00  0.00     0.243 C 
HETATM   26  O4  UNL     1      27.886  -2.075  -0.892  1.00  0.00    -0.271 OA
HETATM   27  N9  UNL     1      25.744  -1.343  -0.522  1.00  0.00    -0.334 N 
ENDROOT
BRANCH  19  28
HETATM   28  N6  UNL     1      28.781  -0.429  -4.559  1.00  0.00    -0.052 N 
HETATM   29  C20 UNL     1      28.734   0.770  -5.423  1.00  0.00     0.238 C 
HETATM   30  C21 UNL     1      29.982   1.614  -5.277  1.00  0.00     0.028 C 
HETATM   31  C22 UNL     1      29.884   2.319  -3.952  1.00  0.00     0.003 C 
HETATM   32  C23 UNL     1      28.897   1.600  -3.103  1.00  0.00     0.028 C 
HETATM   33  C24 UNL     1      28.870   0.114  -3.211  1.00  0.00     0.238 C 
BRANCH  28  34
HETATM   34  C18 UNL     1      29.940  -1.147  -4.965  1.00  0.00     0.264 C 
BRANCH  34  35
HETATM   35  C19 UNL     1      30.850  -1.671  -3.898  1.00  0.00     0.192 C 
BRANCH  35  36
HETATM   36  O2  UNL     1      30.607  -3.065  -3.841  1.00  0.00    -0.399 OA
ATOM     37  H2  UNL     1      31.462  -3.476  -3.886  1.00  0.00     0.209 HD
ENDBRANCH  35  36
ENDBRANCH  34  35
ENDBRANCH  28  34
ENDBRANCH  19  28
BRANCH  24  38
HETATM   38  C27 UNL     1      26.044  -4.477  -1.742  1.00  0.00     0.035 C 
BRANCH  38  39
HETATM   39  C28 UNL     1      25.508  -5.349  -2.860  1.00  0.00     0.004 C 
BRANCH  39  40
HETATM   40  C29 UNL     1      26.066  -6.734  -2.830  1.00  0.00     0.027 C 
BRANCH  40  41
HETATM   41  C30 UNL     1      27.076  -6.852  -3.953  1.00  0.00     0.229 C 
BRANCH  41  42
HETATM   42  N8  UNL     1      26.689  -7.876  -4.909  1.00  0.00    -0.079 N 
ATOM     43  H83 UNL     1      26.111  -8.595  -4.473  1.00  0.00     0.274 HD
ATOM     44  H82 UNL     1      26.015  -7.519  -5.585  1.00  0.00     0.274 HD
ATOM     45  H81 UNL     1      27.503  -8.281  -5.371  1.00  0.00     0.274 HD
ENDBRANCH  41  42
ENDBRANCH  40  41
ENDBRANCH  39  40
ENDBRANCH  38  39
ENDBRANCH  24  38
BRANCH  12  46
HETATM   46  C10 UNL     1      22.146   0.126  -2.865  1.00  0.00     0.250 C 
BRANCH  46  47
HETATM   47  N4  UNL     1      21.235  -0.919  -3.184  1.00  0.00    -0.078 N 
HETATM   48  C11 UNL     1      21.850  -2.158  -3.588  1.00  0.00     0.271 C 
HETATM   49  C12 UNL     1      20.209  -0.529  -4.142  1.00  0.00     0.271 C 
HETATM   50  C13 UNL     1      20.499  -1.229  -1.942  1.00  0.00     0.271 C 
ENDBRANCH  46  47
ENDBRANCH  12  46
BRANCH   1  51
HETATM   51  C2  UNL     1      26.116   0.745   0.694  1.00  0.00    -0.010 C 
HETATM   52  C1  UNL     1      26.573   1.429   1.735  1.00  0.00     0.009 C 
ENDBRANCH   1  51
TORSDOF 12
ENDMDL
