MODEL 1
REMARK VINA RESULT: -9.206939806      0.000      0.000
REMARK  13 active torsions:
REMARK  status: ('A' for Active; 'I' for Inactive)
REMARK    1  A    between atoms: C2_2  and  C3_3 
REMARK    2  A    between atoms: C3_3  and  C5_5 
REMARK    3  A    between atoms: C5_5  and  N1_6 
REMARK    4  A    between atoms: C5_5  and  C13_26 
REMARK       I    between atoms: N1_6  and  C6_8 
REMARK       I    between atoms: C6_8  and  N2_10 
REMARK    5  A    between atoms: N2_10  and  C8_12 
REMARK    6  A    between atoms: C8_12  and  C9_13 
REMARK    7  A    between atoms: C9_13  and  C10_14 
REMARK    8  A    between atoms: C10_14  and  N3_15 
REMARK       I    between atoms: N3_15  and  C11_17 
REMARK       I    between atoms: N5_19  and  C12_21 
REMARK    9  A    between atoms: C13_26  and  O2_27 
REMARK   10  A    between atoms: C13_26  and  N8_29 
REMARK   11  A    between atoms: C16_32  and  N9_33 
REMARK       I    between atoms: N9_33  and  C17_35 
REMARK   12  A    between atoms: C17_35  and  C18_37 
REMARK   13  A    between atoms: C18_37  and  C19_38 
REMARK       I    between atoms: C19_38  and  N10_40 
ROOT
HETATM    1  C13 UNL     1      30.727 -11.335  -1.550  1.00  0.00     0.137 C 
ENDROOT
BRANCH   1   2
HETATM    2  C5  UNL     1      30.218 -12.708  -1.346  1.00  0.00     0.164 C 
BRANCH   2   3
HETATM    3  C3  UNL     1      28.878 -12.754  -0.626  1.00  0.00     0.012 C 
HETATM    4  C4  UNL     1      28.151 -14.060  -0.934  1.00  0.00     0.012 C 
BRANCH   3   5
HETATM    5  C2  UNL     1      28.882 -12.428   0.809  1.00  0.00     0.002 C 
HETATM    6  C1  UNL     1      28.089 -13.417   1.650  1.00  0.00     0.005 C 
ENDBRANCH   3   5
ENDBRANCH   2   3
BRANCH   2   7
HETATM    7  N1  UNL     1      31.115 -13.348  -0.336  1.00  0.00    -0.331 N 
HETATM    8  C6  UNL     1      31.583 -14.654  -0.441  1.00  0.00     0.318 C 
HETATM    9  O1  UNL     1      31.256 -15.359  -1.423  1.00  0.00    -0.247 OA
HETATM   10  N2  UNL     1      32.428 -15.216   0.548  1.00  0.00    -0.339 N 
HETATM   11  C7  UNL     1      32.871 -14.460   1.706  1.00  0.00     0.154 C 
ATOM     12  H1  UNL     1      31.400 -12.797   0.473  1.00  0.00     0.165 HD
BRANCH  10  13
HETATM   13  C8  UNL     1      32.870 -16.586   0.452  1.00  0.00     0.128 C 
BRANCH  13  14
HETATM   14  C9  UNL     1      32.669 -17.176   1.849  1.00  0.00     0.039 C 
BRANCH  14  15
HETATM   15  C10 UNL     1      31.331 -17.820   1.962  1.00  0.00     0.124 C 
BRANCH  15  16
HETATM   16  N3  UNL     1      30.727 -17.711   3.260  1.00  0.00    -0.364 N 
HETATM   17  C11 UNL     1      29.378 -17.291   3.386  1.00  0.00     0.190 C 
HETATM   18  N4  UNL     1      28.575 -17.026   2.234  1.00  0.00    -0.063 NA
HETATM   19  N5  UNL     1      28.843 -17.144   4.555  1.00  0.00    -0.305 N 
HETATM   20  C12 UNL     1      27.497 -16.724   4.668  1.00  0.00     0.188 C 
ATOM     21  H5  UNL     1      29.391 -17.331   5.395  1.00  0.00     0.171 HD
HETATM   22  N6  UNL     1      27.228 -15.595   5.216  1.00  0.00    -0.373 N 
HETATM   23  N7  UNL     1      26.426 -17.519   4.185  1.00  0.00    -0.064 NA
ATOM     24  H62 UNL     1      27.998 -15.023   5.563  1.00  0.00     0.158 HD
ATOM     25  H61 UNL     1      26.258 -15.292   5.298  1.00  0.00     0.158 HD
ATOM     26  H3  UNL     1      31.269 -17.936   4.094  1.00  0.00     0.162 HD
ENDBRANCH  15  16
ENDBRANCH  14  15
ENDBRANCH  13  14
ENDBRANCH  10  13
ENDBRANCH   2   7
ENDBRANCH   1   2
BRANCH   1  27
HETATM   27  O2  UNL     1      31.955 -11.110  -1.185  1.00  0.00    -0.348 OA
ATOM     28  H2  UNL     1      32.199 -11.403  -0.314  1.00  0.00     0.219 HD
ENDBRANCH   1  27
BRANCH   1  29
HETATM   29  N8  UNL     1      30.080 -10.234  -2.084  1.00  0.00    -0.363 N 
HETATM   30  C14 UNL     1      29.989  -9.741  -3.446  1.00  0.00     0.131 C 
HETATM   31  C15 UNL     1      28.531  -9.248  -3.561  1.00  0.00     0.033 C 
HETATM   32  C16 UNL     1      28.573  -8.019  -4.347  1.00  0.00     0.090 C 
HETATM   33  C29 UNL     1      28.029  -9.367  -2.216  1.00  0.00     0.019 C 
HETATM   34  C22 UNL     1      27.190  -7.455  -4.731  1.00  0.00     0.030 C 
HETATM   35  C23 UNL     1      26.561  -7.019  -3.468  1.00  0.00    -0.007 A 
HETATM   36  C24 UNL     1      25.176  -7.128  -3.088  1.00  0.00     0.011 A 
HETATM   37  C25 UNL     1      25.958  -8.319  -2.873  1.00  0.00    -0.002 A 
HETATM   38  C26 UNL     1      26.837  -8.653  -1.727  1.00  0.00    -0.038 C 
HETATM   39  C27 UNL     1      27.140  -7.472  -0.829  1.00  0.00     0.015 C 
HETATM   40  C28 UNL     1      25.958  -9.560  -0.827  1.00  0.00     0.015 C 
HETATM   41  C30 UNL     1      29.239  -9.275  -1.290  1.00  0.00     0.130 C 
BRANCH  32  42
HETATM   42  N9  UNL     1      29.458  -6.981  -3.938  1.00  0.00    -0.356 N 
HETATM   43  C17 UNL     1      30.334  -6.355  -4.841  1.00  0.00     0.226 C 
HETATM   44  O3  UNL     1      30.325  -6.732  -6.041  1.00  0.00    -0.273 OA
ATOM     45  H9  UNL     1      29.455  -6.683  -2.962  1.00  0.00     0.162 HD
BRANCH  43  46
HETATM   46  C18 UNL     1      31.279  -5.268  -4.475  1.00  0.00     0.205 C 
BRANCH  46  47
HETATM   47  C19 UNL     1      30.580  -3.984  -4.258  1.00  0.00     0.227 C 
HETATM   48  O4  UNL     1      29.674  -3.955  -3.394  1.00  0.00    -0.273 OA
HETATM   49  N10 UNL     1      30.877  -2.800  -4.966  1.00  0.00    -0.360 N 
HETATM   50  C20 UNL     1      31.910  -2.754  -5.988  1.00  0.00     0.152 C 
HETATM   51  C21 UNL     1      30.153  -1.578  -4.692  1.00  0.00     0.152 C 
ENDBRANCH  46  47
ENDBRANCH  43  46
ENDBRANCH  32  42
ENDBRANCH   1  29
TORSDOF 13
ENDMDL
MODEL 2
REMARK VINA RESULT: -8.923478226      2.343      3.940
REMARK  13 active torsions:
REMARK  status: ('A' for Active; 'I' for Inactive)
REMARK    1  A    between atoms: C2_2  and  C3_3 
REMARK    2  A    between atoms: C3_3  and  C5_5 
REMARK    3  A    between atoms: C5_5  and  N1_6 
REMARK    4  A    between atoms: C5_5  and  C13_26 
REMARK       I    between atoms: N1_6  and  C6_8 
REMARK       I    between atoms: C6_8  and  N2_10 
REMARK    5  A    between atoms: N2_10  and  C8_12 
REMARK    6  A    between atoms: C8_12  and  C9_13 
REMARK    7  A    between atoms: C9_13  and  C10_14 
REMARK    8  A    between atoms: C10_14  and  N3_15 
REMARK       I    between atoms: N3_15  and  C11_17 
REMARK       I    between atoms: N5_19  and  C12_21 
REMARK    9  A    between atoms: C13_26  and  O2_27 
REMARK   10  A    between atoms: C13_26  and  N8_29 
REMARK   11  A    between atoms: C16_32  and  N9_33 
REMARK       I    between atoms: N9_33  and  C17_35 
REMARK   12  A    between atoms: C17_35  and  C18_37 
REMARK   13  A    between atoms: C18_37  and  C19_38 
REMARK       I    between atoms: C19_38  and  N10_40 
ROOT
HETATM    1  C13 UNL     1      28.647 -11.889  -1.081  1.00  0.00     0.137 C 
ENDROOT
BRANCH   1   2
HETATM    2  C5  UNL     1      29.634 -12.403  -0.107  1.00  0.00     0.164 C 
BRANCH   2   3
HETATM    3  C3  UNL     1      30.780 -13.165  -0.756  1.00  0.00     0.012 C 
HETATM    4  C4  UNL     1      31.512 -12.277  -1.760  1.00  0.00     0.012 C 
BRANCH   3   5
HETATM    5  C2  UNL     1      31.697 -13.882   0.144  1.00  0.00     0.002 C 
HETATM    6  C1  UNL     1      31.988 -15.305  -0.305  1.00  0.00     0.005 C 
ENDBRANCH   3   5
ENDBRANCH   2   3
BRANCH   2   7
HETATM    7  N1  UNL     1      28.952 -13.493   0.654  1.00  0.00    -0.331 N 
HETATM    8  C6  UNL     1      27.739 -13.326   1.316  1.00  0.00     0.318 C 
HETATM    9  O1  UNL     1      27.159 -12.216   1.290  1.00  0.00    -0.247 OA
HETATM   10  N2  UNL     1      27.136 -14.391   2.030  1.00  0.00    -0.339 N 
HETATM   11  C7  UNL     1      27.731 -15.715   2.092  1.00  0.00     0.154 C 
ATOM     12  H1  UNL     1      29.399 -14.408   0.691  1.00  0.00     0.165 HD
BRANCH  10  13
HETATM   13  C8  UNL     1      25.901 -14.194   2.750  1.00  0.00     0.128 C 
BRANCH  13  14
HETATM   14  C9  UNL     1      25.343 -15.598   2.989  1.00  0.00     0.039 C 
BRANCH  14  15
HETATM   15  C10 UNL     1      25.232 -15.881   4.447  1.00  0.00     0.124 C 
BRANCH  15  16
HETATM   16  N3  UNL     1      25.844 -17.111   4.862  1.00  0.00    -0.364 N 
HETATM   17  C11 UNL     1      27.137 -17.104   5.443  1.00  0.00     0.190 C 
HETATM   18  N4  UNL     1      27.834 -15.879   5.684  1.00  0.00    -0.063 NA
HETATM   19  N5  UNL     1      27.714 -18.214   5.775  1.00  0.00    -0.305 N 
HETATM   20  C12 UNL     1      29.005 -18.194   6.354  1.00  0.00     0.188 C 
ATOM     21  H5  UNL     1      27.239 -19.103   5.619  1.00  0.00     0.171 HD
HETATM   22  N6  UNL     1      29.990 -18.725   5.726  1.00  0.00    -0.373 N 
HETATM   23  N7  UNL     1      29.245 -17.594   7.616  1.00  0.00    -0.064 NA
ATOM     24  H62 UNL     1      29.817 -19.157   4.818  1.00  0.00     0.158 HD
ATOM     25  H61 UNL     1      30.920 -18.711   6.143  1.00  0.00     0.158 HD
ATOM     26  H3  UNL     1      25.347 -17.993   4.738  1.00  0.00     0.162 HD
ENDBRANCH  15  16
ENDBRANCH  14  15
ENDBRANCH  13  14
ENDBRANCH  10  13
ENDBRANCH   2   7
ENDBRANCH   1   2
BRANCH   1  27
HETATM   27  O2  UNL     1      27.783 -12.746  -1.540  1.00  0.00    -0.348 OA
ATOM     28  H2  UNL     1      27.941 -13.660  -1.333  1.00  0.00     0.219 HD
ENDBRANCH   1  27
BRANCH   1  29
HETATM   29  N8  UNL     1      28.501 -10.607  -1.584  1.00  0.00    -0.363 N 
HETATM   30  C14 UNL     1      28.518 -10.102  -2.944  1.00  0.00     0.131 C 
HETATM   31  C15 UNL     1      27.415  -9.022  -2.948  1.00  0.00     0.033 C 
HETATM   32  C16 UNL     1      27.921  -7.921  -3.762  1.00  0.00     0.090 C 
HETATM   33  C29 UNL     1      27.028  -8.932  -1.563  1.00  0.00     0.019 C 
HETATM   34  C22 UNL     1      26.893  -6.805  -4.042  1.00  0.00     0.030 C 
HETATM   35  C23 UNL     1      26.626  -6.160  -2.741  1.00  0.00    -0.007 A 
HETATM   36  C24 UNL     1      25.369  -5.662  -2.243  1.00  0.00     0.011 A 
HETATM   37  C25 UNL     1      25.571  -7.077  -2.068  1.00  0.00    -0.002 A 
HETATM   38  C26 UNL     1      26.312  -7.779  -0.992  1.00  0.00    -0.038 C 
HETATM   39  C27 UNL     1      27.173  -6.862  -0.150  1.00  0.00     0.015 C 
HETATM   40  C28 UNL     1      25.206  -8.227  -0.002  1.00  0.00     0.015 C 
HETATM   41  C30 UNL     1      28.232  -9.391  -0.744  1.00  0.00     0.130 C 
BRANCH  32  42
HETATM   42  N9  UNL     1      29.200  -7.378  -3.452  1.00  0.00    -0.356 N 
HETATM   43  C17 UNL     1      30.161  -7.128  -4.447  1.00  0.00     0.226 C 
HETATM   44  O3  UNL     1      29.867  -7.395  -5.641  1.00  0.00    -0.273 OA
ATOM     45  H9  UNL     1      29.426  -7.165  -2.480  1.00  0.00     0.162 HD
BRANCH  43  46
HETATM   46  C18 UNL     1      31.510  -6.563  -4.187  1.00  0.00     0.205 C 
BRANCH  46  47
HETATM   47  C19 UNL     1      32.342  -7.482  -3.382  1.00  0.00     0.227 C 
HETATM   48  O4  UNL     1      32.533  -7.191  -2.179  1.00  0.00    -0.273 OA
HETATM   49  N10 UNL     1      32.928  -8.660  -3.893  1.00  0.00    -0.360 N 
HETATM   50  C20 UNL     1      32.760  -9.064  -5.279  1.00  0.00     0.152 C 
HETATM   51  C21 UNL     1      33.726  -9.514  -3.041  1.00  0.00     0.152 C 
ENDBRANCH  46  47
ENDBRANCH  43  46
ENDBRANCH  32  42
ENDBRANCH   1  29
TORSDOF 13
ENDMDL
MODEL 3
REMARK VINA RESULT: -8.792180756      1.921      2.557
REMARK  13 active torsions:
REMARK  status: ('A' for Active; 'I' for Inactive)
REMARK    1  A    between atoms: C2_2  and  C3_3 
REMARK    2  A    between atoms: C3_3  and  C5_5 
REMARK    3  A    between atoms: C5_5  and  N1_6 
REMARK    4  A    between atoms: C5_5  and  C13_26 
REMARK       I    between atoms: N1_6  and  C6_8 
REMARK       I    between atoms: C6_8  and  N2_10 
REMARK    5  A    between atoms: N2_10  and  C8_12 
REMARK    6  A    between atoms: C8_12  and  C9_13 
REMARK    7  A    between atoms: C9_13  and  C10_14 
REMARK    8  A    between atoms: C10_14  and  N3_15 
REMARK       I    between atoms: N3_15  and  C11_17 
REMARK       I    between atoms: N5_19  and  C12_21 
REMARK    9  A    between atoms: C13_26  and  O2_27 
REMARK   10  A    between atoms: C13_26  and  N8_29 
REMARK   11  A    between atoms: C16_32  and  N9_33 
REMARK       I    between atoms: N9_33  and  C17_35 
REMARK   12  A    between atoms: C17_35  and  C18_37 
REMARK   13  A    between atoms: C18_37  and  C19_38 
REMARK       I    between atoms: C19_38  and  N10_40 
ROOT
HETATM    1  C13 UNL     1      29.355 -11.453   0.081  1.00  0.00     0.137 C 
ENDROOT
BRANCH   1   2
HETATM    2  C5  UNL     1      29.304 -12.905  -0.190  1.00  0.00     0.164 C 
BRANCH   2   3
HETATM    3  C3  UNL     1      28.229 -13.629   0.608  1.00  0.00     0.012 C 
HETATM    4  C4  UNL     1      28.733 -13.955   2.011  1.00  0.00     0.012 C 
BRANCH   3   5
HETATM    5  C2  UNL     1      26.885 -13.030   0.611  1.00  0.00     0.002 C 
HETATM    6  C1  UNL     1      25.963 -13.629   1.662  1.00  0.00     0.005 C 
ENDBRANCH   3   5
ENDBRANCH   2   3
BRANCH   2   7
HETATM    7  N1  UNL     1      30.548 -13.492   0.394  1.00  0.00    -0.331 N 
HETATM    8  C6  UNL     1      31.143 -14.658  -0.076  1.00  0.00     0.318 C 
HETATM    9  O1  UNL     1      30.637 -15.274  -1.042  1.00  0.00    -0.247 OA
HETATM   10  N2  UNL     1      32.321 -15.176   0.518  1.00  0.00    -0.339 N 
HETATM   11  C7  UNL     1      32.983 -14.512   1.627  1.00  0.00     0.154 C 
ATOM     12  H1  UNL     1      30.984 -13.010   1.180  1.00  0.00     0.165 HD
BRANCH  10  13
HETATM   13  C8  UNL     1      32.904 -16.410   0.050  1.00  0.00     0.128 C 
BRANCH  13  14
HETATM   14  C9  UNL     1      32.927 -17.334   1.269  1.00  0.00     0.039 C 
BRANCH  14  15
HETATM   15  C10 UNL     1      31.565 -17.866   1.555  1.00  0.00     0.124 C 
BRANCH  15  16
HETATM   16  N3  UNL     1      31.137 -17.704   2.915  1.00  0.00    -0.364 N 
HETATM   17  C11 UNL     1      29.781 -17.409   3.206  1.00  0.00     0.190 C 
HETATM   18  N4  UNL     1      28.802 -17.325   2.168  1.00  0.00    -0.063 NA
HETATM   19  N5  UNL     1      29.399 -17.214   4.428  1.00  0.00    -0.305 N 
HETATM   20  C12 UNL     1      28.044 -16.920   4.706  1.00  0.00     0.188 C 
ATOM     21  H5  UNL     1      30.075 -17.273   5.189  1.00  0.00     0.171 HD
HETATM   22  N6  UNL     1      27.731 -15.779   5.204  1.00  0.00    -0.373 N 
HETATM   23  N7  UNL     1      27.010 -17.855   4.443  1.00  0.00    -0.064 NA
ATOM     24  H62 UNL     1      28.474 -15.107   5.393  1.00  0.00     0.158 HD
ATOM     25  H61 UNL     1      26.754 -15.567   5.405  1.00  0.00     0.158 HD
ATOM     26  H3  UNL     1      31.810 -17.801   3.675  1.00  0.00     0.162 HD
ENDBRANCH  15  16
ENDBRANCH  14  15
ENDBRANCH  13  14
ENDBRANCH  10  13
ENDBRANCH   2   7
ENDBRANCH   1   2
BRANCH   1  27
HETATM   27  O2  UNL     1      29.764 -11.097   1.264  1.00  0.00    -0.348 OA
ATOM     28  H2  UNL     1      29.341 -10.337   1.648  1.00  0.00     0.219 HD
ENDBRANCH   1  27
BRANCH   1  29
HETATM   29  N8  UNL     1      29.031 -10.396  -0.752  1.00  0.00    -0.363 N 
HETATM   30  C14 UNL     1      29.025 -10.280  -2.198  1.00  0.00     0.131 C 
HETATM   31  C15 UNL     1      27.766  -9.435  -2.493  1.00  0.00     0.033 C 
HETATM   32  C16 UNL     1      28.126  -8.527  -3.578  1.00  0.00     0.090 C 
HETATM   33  C29 UNL     1      27.313  -9.040  -1.184  1.00  0.00     0.019 C 
HETATM   34  C22 UNL     1      26.949  -7.710  -4.148  1.00  0.00     0.030 C 
HETATM   35  C23 UNL     1      26.530  -6.790  -3.071  1.00  0.00    -0.007 A 
HETATM   36  C24 UNL     1      25.191  -6.388  -2.725  1.00  0.00     0.011 A 
HETATM   37  C25 UNL     1      25.605  -7.652  -2.171  1.00  0.00    -0.002 A 
HETATM   38  C26 UNL     1      26.402  -7.908  -0.947  1.00  0.00    -0.038 C 
HETATM   39  C27 UNL     1      27.072  -6.670  -0.389  1.00  0.00     0.015 C 
HETATM   40  C28 UNL     1      25.339  -8.246   0.131  1.00  0.00     0.015 C 
HETATM   41  C30 UNL     1      28.539  -9.059  -0.274  1.00  0.00     0.130 C 
BRANCH  32  42
HETATM   42  N9  UNL     1      29.291  -7.720  -3.431  1.00  0.00    -0.356 N 
HETATM   43  C17 UNL     1      30.286  -7.667  -4.422  1.00  0.00     0.226 C 
HETATM   44  O3  UNL     1      30.130  -8.357  -5.462  1.00  0.00    -0.273 OA
ATOM     45  H9  UNL     1      29.405  -7.165  -2.583  1.00  0.00     0.162 HD
BRANCH  43  46
HETATM   46  C18 UNL     1      31.521  -6.846  -4.327  1.00  0.00     0.205 C 
BRANCH  46  47
HETATM   47  C19 UNL     1      32.727  -7.686  -4.177  1.00  0.00     0.227 C 
HETATM   48  O4  UNL     1      33.497  -7.779  -5.161  1.00  0.00    -0.273 OA
HETATM   49  N10 UNL     1      33.054  -8.384  -2.995  1.00  0.00    -0.360 N 
HETATM   50  C20 UNL     1      32.210  -8.333  -1.813  1.00  0.00     0.152 C 
HETATM   51  C21 UNL     1      34.259  -9.183  -2.922  1.00  0.00     0.152 C 
ENDBRANCH  46  47
ENDBRANCH  43  46
ENDBRANCH  32  42
ENDBRANCH   1  29
TORSDOF 13
ENDMDL
MODEL 4
REMARK VINA RESULT: -8.783144354      2.731     11.736
REMARK  13 active torsions:
REMARK  status: ('A' for Active; 'I' for Inactive)
REMARK    1  A    between atoms: C2_2  and  C3_3 
REMARK    2  A    between atoms: C3_3  and  C5_5 
REMARK    3  A    between atoms: C5_5  and  N1_6 
REMARK    4  A    between atoms: C5_5  and  C13_26 
REMARK       I    between atoms: N1_6  and  C6_8 
REMARK       I    between atoms: C6_8  and  N2_10 
REMARK    5  A    between atoms: N2_10  and  C8_12 
REMARK    6  A    between atoms: C8_12  and  C9_13 
REMARK    7  A    between atoms: C9_13  and  C10_14 
REMARK    8  A    between atoms: C10_14  and  N3_15 
REMARK       I    between atoms: N3_15  and  C11_17 
REMARK       I    between atoms: N5_19  and  C12_21 
REMARK    9  A    between atoms: C13_26  and  O2_27 
REMARK   10  A    between atoms: C13_26  and  N8_29 
REMARK   11  A    between atoms: C16_32  and  N9_33 
REMARK       I    between atoms: N9_33  and  C17_35 
REMARK   12  A    between atoms: C17_35  and  C18_37 
REMARK   13  A    between atoms: C18_37  and  C19_38 
REMARK       I    between atoms: C19_38  and  N10_40 
ROOT
HETATM    1  C13 UNL     1      29.505 -11.948   0.626  1.00  0.00     0.137 C 
ENDROOT
BRANCH   1   2
HETATM    2  C5  UNL     1      29.426 -11.552  -0.797  1.00  0.00     0.164 C 
BRANCH   2   3
HETATM    3  C3  UNL     1      30.772 -11.161  -1.390  1.00  0.00     0.012 C 
HETATM    4  C4  UNL     1      30.914 -11.716  -2.804  1.00  0.00     0.012 C 
BRANCH   3   5
HETATM    5  C2  UNL     1      31.155  -9.743  -1.293  1.00  0.00     0.002 C 
HETATM    6  C1  UNL     1      32.236  -9.345  -2.286  1.00  0.00     0.005 C 
ENDBRANCH   3   5
ENDBRANCH   2   3
BRANCH   2   7
HETATM    7  N1  UNL     1      28.698 -10.248  -0.836  1.00  0.00    -0.331 N 
HETATM    8  C6  UNL     1      27.494 -10.058  -1.508  1.00  0.00     0.318 C 
HETATM    9  O1  UNL     1      26.963 -11.012  -2.121  1.00  0.00    -0.247 OA
HETATM   10  N2  UNL     1      26.847  -8.798  -1.518  1.00  0.00    -0.339 N 
HETATM   11  C7  UNL     1      27.384  -7.647  -0.815  1.00  0.00     0.154 C 
ATOM     12  H1  UNL     1      29.105  -9.454  -0.342  1.00  0.00     0.165 HD
BRANCH  10  13
HETATM   13  C8  UNL     1      25.622  -8.602  -2.256  1.00  0.00     0.128 C 
BRANCH  13  14
HETATM   14  C9  UNL     1      25.915  -7.460  -3.231  1.00  0.00     0.039 C 
BRANCH  14  15
HETATM   15  C10 UNL     1      26.445  -7.988  -4.519  1.00  0.00     0.124 C 
BRANCH  15  16
HETATM   16  N3  UNL     1      27.462  -7.175  -5.121  1.00  0.00    -0.364 N 
HETATM   17  C11 UNL     1      28.829  -7.532  -4.997  1.00  0.00     0.190 C 
HETATM   18  N4  UNL     1      29.222  -8.732  -4.327  1.00  0.00    -0.063 NA
HETATM   19  N5  UNL     1      29.753  -6.777  -5.496  1.00  0.00    -0.305 N 
HETATM   20  C12 UNL     1      31.113  -7.144  -5.365  1.00  0.00     0.188 C 
ATOM     21  H5  UNL     1      29.502  -5.917  -5.984  1.00  0.00     0.171 HD
HETATM   22  N6  UNL     1      31.907  -6.404  -4.679  1.00  0.00    -0.373 N 
HETATM   23  N7  UNL     1      31.629  -8.319  -5.970  1.00  0.00    -0.064 NA
ATOM     24  H62 UNL     1      31.536  -5.560  -4.244  1.00  0.00     0.158 HD
ATOM     25  H61 UNL     1      32.887  -6.669  -4.585  1.00  0.00     0.158 HD
ATOM     26  H3  UNL     1      27.202  -6.336  -5.640  1.00  0.00     0.162 HD
ENDBRANCH  15  16
ENDBRANCH  14  15
ENDBRANCH  13  14
ENDBRANCH  10  13
ENDBRANCH   2   7
ENDBRANCH   1   2
BRANCH   1  27
HETATM   27  O2  UNL     1      29.350 -10.999   1.502  1.00  0.00    -0.348 OA
ATOM     28  H2  UNL     1      30.134 -10.531   1.766  1.00  0.00     0.219 HD
ENDBRANCH   1  27
BRANCH   1  29
HETATM   29  N8  UNL     1      29.722 -13.200   1.175  1.00  0.00    -0.363 N 
HETATM   30  C14 UNL     1      28.845 -14.346   1.329  1.00  0.00     0.131 C 
HETATM   31  C15 UNL     1      29.763 -15.552   1.033  1.00  0.00     0.033 C 
HETATM   32  C16 UNL     1      29.386 -16.596   1.981  1.00  0.00     0.090 C 
HETATM   33  C29 UNL     1      31.069 -14.958   0.913  1.00  0.00     0.019 C 
HETATM   34  C22 UNL     1      30.067 -17.959   1.738  1.00  0.00     0.030 C 
HETATM   35  C23 UNL     1      31.502 -17.755   2.021  1.00  0.00    -0.007 A 
HETATM   36  C24 UNL     1      32.629 -18.322   1.325  1.00  0.00     0.011 A 
HETATM   37  C25 UNL     1      32.068 -17.145   0.711  1.00  0.00    -0.002 A 
HETATM   38  C26 UNL     1      32.323 -15.721   1.036  1.00  0.00    -0.038 C 
HETATM   39  C27 UNL     1      33.052 -15.520   2.348  1.00  0.00     0.015 C 
HETATM   40  C28 UNL     1      33.370 -15.275  -0.017  1.00  0.00     0.015 C 
HETATM   41  C30 UNL     1      31.038 -13.668   1.728  1.00  0.00     0.130 C 
BRANCH  32  42
HETATM   42  N9  UNL     1      29.355 -16.275   3.368  1.00  0.00    -0.356 N 
HETATM   43  C17 UNL     1      28.453 -16.892   4.252  1.00  0.00     0.226 C 
HETATM   44  O3  UNL     1      27.657 -17.750   3.790  1.00  0.00    -0.273 OA
ATOM     45  H9  UNL     1      30.006 -15.578   3.731  1.00  0.00     0.162 HD
BRANCH  43  46
HETATM   46  C18 UNL     1      28.371 -16.600   5.706  1.00  0.00     0.205 C 
BRANCH  46  47
HETATM   47  C19 UNL     1      28.544 -17.821   6.520  1.00  0.00     0.227 C 
HETATM   48  O4  UNL     1      27.522 -18.319   7.046  1.00  0.00    -0.273 OA
HETATM   49  N10 UNL     1      29.789 -18.451   6.734  1.00  0.00    -0.360 N 
HETATM   50  C20 UNL     1      31.021 -17.933   6.164  1.00  0.00     0.152 C 
HETATM   51  C21 UNL     1      29.877 -19.650   7.539  1.00  0.00     0.152 C 
ENDBRANCH  46  47
ENDBRANCH  43  46
ENDBRANCH  32  42
ENDBRANCH   1  29
TORSDOF 13
ENDMDL
MODEL 5
REMARK VINA RESULT: -8.527100774      1.743      2.345
REMARK  13 active torsions:
REMARK  status: ('A' for Active; 'I' for Inactive)
REMARK    1  A    between atoms: C2_2  and  C3_3 
REMARK    2  A    between atoms: C3_3  and  C5_5 
REMARK    3  A    between atoms: C5_5  and  N1_6 
REMARK    4  A    between atoms: C5_5  and  C13_26 
REMARK       I    between atoms: N1_6  and  C6_8 
REMARK       I    between atoms: C6_8  and  N2_10 
REMARK    5  A    between atoms: N2_10  and  C8_12 
REMARK    6  A    between atoms: C8_12  and  C9_13 
REMARK    7  A    between atoms: C9_13  and  C10_14 
REMARK    8  A    between atoms: C10_14  and  N3_15 
REMARK       I    between atoms: N3_15  and  C11_17 
REMARK       I    between atoms: N5_19  and  C12_21 
REMARK    9  A    between atoms: C13_26  and  O2_27 
REMARK   10  A    between atoms: C13_26  and  N8_29 
REMARK   11  A    between atoms: C16_32  and  N9_33 
REMARK       I    between atoms: N9_33  and  C17_35 
REMARK   12  A    between atoms: C17_35  and  C18_37 
REMARK   13  A    between atoms: C18_37  and  C19_38 
REMARK       I    between atoms: C19_38  and  N10_40 
ROOT
HETATM    1  C13 UNL     1      30.578 -11.173  -1.386  1.00  0.00     0.137 C 
ENDROOT
BRANCH   1   2
HETATM    2  C5  UNL     1      29.978 -12.421  -0.869  1.00  0.00     0.164 C 
BRANCH   2   3
HETATM    3  C3  UNL     1      28.920 -12.185   0.199  1.00  0.00     0.012 C 
HETATM    4  C4  UNL     1      27.522 -12.382  -0.380  1.00  0.00     0.012 C 
BRANCH   3   5
HETATM    5  C2  UNL     1      29.107 -12.875   1.485  1.00  0.00     0.002 C 
HETATM    6  C1  UNL     1      28.053 -13.939   1.753  1.00  0.00     0.005 C 
ENDBRANCH   3   5
ENDBRANCH   2   3
BRANCH   2   7
HETATM    7  N1  UNL     1      31.043 -13.110  -0.079  1.00  0.00    -0.331 N 
HETATM    8  C6  UNL     1      31.407 -14.439  -0.273  1.00  0.00     0.318 C 
HETATM    9  O1  UNL     1      30.834 -15.123  -1.151  1.00  0.00    -0.247 OA
HETATM   10  N2  UNL     1      32.422 -15.047   0.508  1.00  0.00    -0.339 N 
HETATM   11  C7  UNL     1      33.151 -14.318   1.531  1.00  0.00     0.154 C 
ATOM     12  H1  UNL     1      31.530 -12.577   0.641  1.00  0.00     0.165 HD
BRANCH  10  13
HETATM   13  C8  UNL     1      32.759 -16.438   0.328  1.00  0.00     0.128 C 
BRANCH  13  14
HETATM   14  C9  UNL     1      31.845 -17.204   1.286  1.00  0.00     0.039 C 
BRANCH  14  15
HETATM   15  C10 UNL     1      32.618 -17.728   2.447  1.00  0.00     0.124 C 
BRANCH  15  16
HETATM   16  N3  UNL     1      32.291 -17.116   3.703  1.00  0.00    -0.364 N 
HETATM   17  C11 UNL     1      32.909 -17.565   4.898  1.00  0.00     0.190 C 
HETATM   18  N4  UNL     1      33.907 -18.588   4.875  1.00  0.00    -0.063 NA
HETATM   19  N5  UNL     1      32.583 -17.050   6.040  1.00  0.00    -0.305 N 
HETATM   20  C12 UNL     1      33.206 -17.507   7.225  1.00  0.00     0.188 C 
ATOM     21  H5  UNL     1      31.877 -16.315   6.085  1.00  0.00     0.171 HD
HETATM   22  N6  UNL     1      32.505 -18.097   8.123  1.00  0.00    -0.373 N 
HETATM   23  N7  UNL     1      34.596 -17.335   7.448  1.00  0.00    -0.064 NA
ATOM     24  H62 UNL     1      31.506 -18.221   7.962  1.00  0.00     0.158 HD
ATOM     25  H61 UNL     1      32.955 -18.427   8.977  1.00  0.00     0.158 HD
ATOM     26  H3  UNL     1      31.612 -16.355   3.738  1.00  0.00     0.162 HD
ENDBRANCH  15  16
ENDBRANCH  14  15
ENDBRANCH  13  14
ENDBRANCH  10  13
ENDBRANCH   2   7
ENDBRANCH   1   2
BRANCH   1  27
HETATM   27  O2  UNL     1      31.872 -11.070  -1.295  1.00  0.00    -0.348 OA
ATOM     28  H2  UNL     1      32.311 -10.611  -2.002  1.00  0.00     0.219 HD
ENDBRANCH   1  27
BRANCH   1  29
HETATM   29  N8  UNL     1      29.958 -10.079  -1.964  1.00  0.00    -0.363 N 
HETATM   30  C14 UNL     1      29.881  -9.637  -3.344  1.00  0.00     0.131 C 
HETATM   31  C15 UNL     1      28.434  -9.116  -3.482  1.00  0.00     0.033 C 
HETATM   32  C16 UNL     1      28.506  -7.919  -4.315  1.00  0.00     0.090 C 
HETATM   33  C29 UNL     1      27.927  -9.172  -2.136  1.00  0.00     0.019 C 
HETATM   34  C22 UNL     1      27.137  -7.339  -4.725  1.00  0.00     0.030 C 
HETATM   35  C23 UNL     1      26.515  -6.841  -3.482  1.00  0.00    -0.007 A 
HETATM   36  C24 UNL     1      25.127  -6.905  -3.102  1.00  0.00     0.011 A 
HETATM   37  C25 UNL     1      25.882  -8.104  -2.839  1.00  0.00    -0.002 A 
HETATM   38  C26 UNL     1      26.751  -8.413  -1.678  1.00  0.00    -0.038 C 
HETATM   39  C27 UNL     1      27.077  -7.205  -0.825  1.00  0.00     0.015 C 
HETATM   40  C28 UNL     1      25.849  -9.264  -0.747  1.00  0.00     0.015 C 
HETATM   41  C30 UNL     1      29.137  -9.071  -1.210  1.00  0.00     0.130 C 
BRANCH  32  42
HETATM   42  N9  UNL     1      29.414  -6.886  -3.943  1.00  0.00    -0.356 N 
HETATM   43  C17 UNL     1      30.316  -6.326  -4.863  1.00  0.00     0.226 C 
HETATM   44  O3  UNL     1      30.311  -6.758  -6.044  1.00  0.00    -0.273 OA
ATOM     45  H9  UNL     1      29.408  -6.544  -2.982  1.00  0.00     0.162 HD
BRANCH  43  46
HETATM   46  C18 UNL     1      31.285  -5.248  -4.536  1.00  0.00     0.205 C 
BRANCH  46  47
HETATM   47  C19 UNL     1      30.605  -3.966  -4.255  1.00  0.00     0.227 C 
HETATM   48  O4  UNL     1      29.676  -3.973  -3.416  1.00  0.00    -0.273 OA
HETATM   49  N10 UNL     1      30.944  -2.746  -4.878  1.00  0.00    -0.360 N 
HETATM   50  C20 UNL     1      32.006  -2.656  -5.867  1.00  0.00     0.152 C 
HETATM   51  C21 UNL     1      30.236  -1.529  -4.546  1.00  0.00     0.152 C 
ENDBRANCH  46  47
ENDBRANCH  43  46
ENDBRANCH  32  42
ENDBRANCH   1  29
TORSDOF 13
ENDMDL
