MODEL 1
REMARK VINA RESULT: -7.281899818      0.000      0.000
REMARK  20 active torsions:
REMARK  status: ('A' for Active; 'I' for Inactive)
REMARK    1  A    between atoms: S1_2  and  C2_3 
REMARK    2  A    between atoms: C3_5  and  C4_6 
REMARK    3  A    between atoms: C4_6  and  O2_7 
REMARK    4  A    between atoms: C4_6  and  C5_9 
REMARK    5  A    between atoms: C5_9  and  O3_10 
REMARK    6  A    between atoms: C5_9  and  C6_12 
REMARK    7  A    between atoms: C6_12  and  O4_13 
REMARK    8  A    between atoms: C7_15  and  O5_16 
REMARK    9  A    between atoms: C8_18  and  O6_19 
REMARK   10  A    between atoms: O6_19  and  C9_20 
REMARK   11  A    between atoms: C12_24  and  O8_25 
REMARK   12  A    between atoms: C13_27  and  O9_28 
REMARK   13  A    between atoms: C14_30  and  O10_31 
REMARK   14  A    between atoms: C15_33  and  O11_34 
REMARK   15  A    between atoms: O11_34  and  C16_35 
REMARK   16  A    between atoms: C17_37  and  C18_38 
REMARK   17  A    between atoms: C18_38  and  O13_39 
REMARK   18  A    between atoms: C19_41  and  O14_42 
REMARK   19  A    between atoms: C20_44  and  O15_45 
REMARK   20  A    between atoms: C21_47  and  S2_48 
ROOT
HETATM    1  C2  UNL     1      -9.638  -2.719  11.136  1.00  0.00     0.214 C 
HETATM    2  O1  UNL     1      -9.302  -3.313   9.934  1.00  0.00    -0.362 OA
HETATM    3  C3  UNL     1      -7.919  -3.101   9.812  1.00  0.00     0.185 C 
HETATM    4  C7  UNL     1      -7.232  -3.963  10.801  1.00  0.00     0.181 C 
HETATM    5  C8  UNL     1      -7.534  -3.368  12.237  1.00  0.00     0.188 C 
HETATM    6  C15 UNL     1      -9.068  -3.458  12.318  1.00  0.00     0.195 C 
ENDROOT
BRANCH   6   7
HETATM    7  O11 UNL     1      -9.566  -2.870  13.492  1.00  0.00    -0.349 OA
BRANCH   7   8
HETATM    8  C16 UNL     1      -9.924  -3.742  14.491  1.00  0.00     0.278 C 
HETATM    9  O12 UNL     1     -11.327  -3.478  14.681  1.00  0.00    -0.350 OA
HETATM   10  C17 UNL     1     -11.942  -4.364  15.510  1.00  0.00     0.179 C 
HETATM   11  C19 UNL     1     -11.077  -4.687  16.728  1.00  0.00     0.179 C 
HETATM   12  C20 UNL     1     -10.127  -3.543  16.938  1.00  0.00     0.168 C 
HETATM   13  C21 UNL     1      -9.174  -3.537  15.728  1.00  0.00     0.146 C 
BRANCH  10  14
HETATM   14  C18 UNL     1     -12.561  -5.578  14.900  1.00  0.00     0.198 C 
BRANCH  14  15
HETATM   15  O13 UNL     1     -12.576  -6.711  15.661  1.00  0.00    -0.398 OA
ATOM     16  H13 UNL     1     -12.530  -6.596  16.603  1.00  0.00     0.209 HD
ENDBRANCH  14  15
ENDBRANCH  10  14
BRANCH  11  17
HETATM   17  O14 UNL     1     -11.820  -4.827  17.888  1.00  0.00    -0.390 OA
ATOM     18  H14 UNL     1     -12.087  -3.993  18.257  1.00  0.00     0.210 HD
ENDBRANCH  11  17
BRANCH  12  19
HETATM   19  O15 UNL     1     -10.828  -2.337  16.869  1.00  0.00    -0.392 OA
ATOM     20  H15 UNL     1     -10.536  -1.843  16.113  1.00  0.00     0.210 HD
ENDBRANCH  12  19
BRANCH  13  21
HETATM   21  S2  UNL     1      -8.342  -1.931  15.820  1.00  0.00    -0.073 SA
HETATM   22  S3  UNL     1      -6.366  -1.996  16.489  1.00  0.00    -0.013 SA
ENDBRANCH  13  21
ENDBRANCH   7   8
ENDBRANCH   6   7
BRANCH   1  23
HETATM   23  S1  UNL     1     -11.404  -2.370  11.247  1.00  0.00    -0.139 SA
HETATM   24  C1  UNL     1     -12.371  -3.871  11.394  1.00  0.00     0.092 C 
ENDBRANCH   1  23
BRANCH   5  25
HETATM   25  O6  UNL     1      -6.876  -4.050  13.040  1.00  0.00    -0.348 OA
BRANCH  25  26
HETATM   26  C9  UNL     1      -6.198  -4.788  13.784  1.00  0.00     0.292 C 
HETATM   27  O7  UNL     1      -4.772  -4.699  13.564  1.00  0.00    -0.351 OA
HETATM   28  C10 UNL     1      -4.149  -4.703  14.785  1.00  0.00     0.152 C 
HETATM   29  C11 UNL     1      -2.648  -4.875  14.664  1.00  0.00     0.042 C 
HETATM   30  C12 UNL     1      -4.734  -5.716  15.738  1.00  0.00     0.178 C 
HETATM   31  C13 UNL     1      -5.543  -6.764  15.054  1.00  0.00     0.183 C 
HETATM   32  C14 UNL     1      -6.406  -6.278  13.916  1.00  0.00     0.204 C 
BRANCH  30  33
HETATM   33  O8  UNL     1      -3.668  -6.361  16.374  1.00  0.00    -0.390 OA
ATOM     34  H8  UNL     1      -3.857  -7.292  16.377  1.00  0.00     0.210 HD
ENDBRANCH  30  33
BRANCH  31  35
HETATM   35  O9  UNL     1      -4.742  -7.860  14.672  1.00  0.00    -0.390 OA
ATOM     36  H9  UNL     1      -5.273  -8.580  14.352  1.00  0.00     0.210 HD
ENDBRANCH  31  35
BRANCH  32  37
HETATM   37  O10 UNL     1      -5.963  -6.971  12.777  1.00  0.00    -0.388 OA
ATOM     38  H10 UNL     1      -6.681  -7.387  12.314  1.00  0.00     0.210 HD
ENDBRANCH  32  37
ENDBRANCH  25  26
ENDBRANCH   5  25
BRANCH   4  39
HETATM   39  O5  UNL     1      -7.794  -5.242  10.908  1.00  0.00    -0.390 OA
ATOM     40  H5  UNL     1      -7.190  -5.891  11.249  1.00  0.00     0.210 HD
ENDBRANCH   4  39
BRANCH   3  41
HETATM   41  C4  UNL     1      -7.362  -3.116   8.458  1.00  0.00     0.180 C 
BRANCH  41  42
HETATM   42  O2  UNL     1      -5.944  -3.307   8.480  1.00  0.00    -0.390 OA
ATOM     43  H2  UNL     1      -5.719  -4.204   8.700  1.00  0.00     0.210 HD
ENDBRANCH  41  42
BRANCH  41  44
HETATM   44  C5  UNL     1      -7.696  -2.024   7.513  1.00  0.00     0.173 C 
BRANCH  44  45
HETATM   45  O3  UNL     1      -7.495  -0.736   7.985  1.00  0.00    -0.391 OA
ATOM     46  H3  UNL     1      -6.831  -0.230   7.532  1.00  0.00     0.210 HD
ENDBRANCH  44  45
BRANCH  44  47
HETATM   47  C6  UNL     1      -9.215  -2.084   7.225  1.00  0.00     0.198 C 
BRANCH  47  48
HETATM   48  O4  UNL     1      -9.385  -2.099   5.834  1.00  0.00    -0.398 OA
ATOM     49  H4  UNL     1      -8.689  -1.578   5.451  1.00  0.00     0.209 HD
ENDBRANCH  47  48
ENDBRANCH  44  47
ENDBRANCH  41  44
ENDBRANCH   3  41
TORSDOF 20
ENDMDL
MODEL 2
REMARK VINA RESULT: -7.271639673      2.091      2.687
REMARK  20 active torsions:
REMARK  status: ('A' for Active; 'I' for Inactive)
REMARK    1  A    between atoms: S1_2  and  C2_3 
REMARK    2  A    between atoms: C3_5  and  C4_6 
REMARK    3  A    between atoms: C4_6  and  O2_7 
REMARK    4  A    between atoms: C4_6  and  C5_9 
REMARK    5  A    between atoms: C5_9  and  O3_10 
REMARK    6  A    between atoms: C5_9  and  C6_12 
REMARK    7  A    between atoms: C6_12  and  O4_13 
REMARK    8  A    between atoms: C7_15  and  O5_16 
REMARK    9  A    between atoms: C8_18  and  O6_19 
REMARK   10  A    between atoms: O6_19  and  C9_20 
REMARK   11  A    between atoms: C12_24  and  O8_25 
REMARK   12  A    between atoms: C13_27  and  O9_28 
REMARK   13  A    between atoms: C14_30  and  O10_31 
REMARK   14  A    between atoms: C15_33  and  O11_34 
REMARK   15  A    between atoms: O11_34  and  C16_35 
REMARK   16  A    between atoms: C17_37  and  C18_38 
REMARK   17  A    between atoms: C18_38  and  O13_39 
REMARK   18  A    between atoms: C19_41  and  O14_42 
REMARK   19  A    between atoms: C20_44  and  O15_45 
REMARK   20  A    between atoms: C21_47  and  S2_48 
ROOT
HETATM    1  C2  UNL     1      -9.055  -0.730  11.148  1.00  0.00     0.214 C 
HETATM    2  O1  UNL     1      -9.729  -1.362  10.120  1.00  0.00    -0.362 OA
HETATM    3  C3  UNL     1      -8.759  -2.173   9.510  1.00  0.00     0.185 C 
HETATM    4  C7  UNL     1      -8.448  -3.293  10.429  1.00  0.00     0.181 C 
HETATM    5  C8  UNL     1      -7.653  -2.689  11.657  1.00  0.00     0.188 C 
HETATM    6  C15 UNL     1      -8.659  -1.684  12.244  1.00  0.00     0.195 C 
ENDROOT
BRANCH   6   7
HETATM    7  O11 UNL     1      -8.105  -0.942  13.300  1.00  0.00    -0.349 OA
BRANCH   7   8
HETATM    8  C16 UNL     1      -8.278  -1.470  14.556  1.00  0.00     0.278 C 
HETATM    9  O12 UNL     1      -9.622  -1.986  14.521  1.00  0.00    -0.350 OA
HETATM   10  C17 UNL     1      -9.952  -2.724  15.614  1.00  0.00     0.179 C 
HETATM   11  C19 UNL     1      -9.439  -2.081  16.902  1.00  0.00     0.179 C 
HETATM   12  C20 UNL     1      -9.259  -0.611  16.646  1.00  0.00     0.168 C 
HETATM   13  C21 UNL     1      -8.116  -0.482  15.620  1.00  0.00     0.146 C 
BRANCH  10  14
HETATM   14  C18 UNL     1      -9.707  -4.196  15.564  1.00  0.00     0.198 C 
BRANCH  14  15
HETATM   15  O13 UNL     1     -10.258  -4.947  16.563  1.00  0.00    -0.398 OA
ATOM     16  H13 UNL     1     -10.317  -5.883  16.412  1.00  0.00     0.209 HD
ENDBRANCH  14  15
ENDBRANCH  10  14
BRANCH  11  17
HETATM   17  O14 UNL     1     -10.327  -2.212  17.956  1.00  0.00    -0.390 OA
ATOM     18  H14 UNL     1     -11.212  -1.951  17.726  1.00  0.00     0.210 HD
ENDBRANCH  11  17
BRANCH  12  19
HETATM   19  O15 UNL     1     -10.395  -0.107  16.009  1.00  0.00    -0.392 OA
ATOM     20  H15 UNL     1     -10.833  -0.808  15.540  1.00  0.00     0.210 HD
ENDBRANCH  12  19
BRANCH  13  21
HETATM   21  S2  UNL     1      -8.220   1.233  15.048  1.00  0.00    -0.073 SA
HETATM   22  S3  UNL     1      -8.220   2.671  16.561  1.00  0.00    -0.013 SA
ENDBRANCH  13  21
ENDBRANCH   7   8
ENDBRANCH   6   7
BRANCH   1  23
HETATM   23  S1  UNL     1      -9.917   0.750  11.711  1.00  0.00    -0.139 SA
HETATM   24  C1  UNL     1      -8.991   2.239  11.343  1.00  0.00     0.092 C 
ENDBRANCH   1  23
BRANCH   5  25
HETATM   25  O6  UNL     1      -7.326  -3.654  12.367  1.00  0.00    -0.348 OA
BRANCH  25  26
HETATM   26  C9  UNL     1      -7.078  -4.647  13.082  1.00  0.00     0.292 C 
HETATM   27  O7  UNL     1      -5.680  -4.802  13.414  1.00  0.00    -0.351 OA
HETATM   28  C10 UNL     1      -5.590  -5.176  14.730  1.00  0.00     0.152 C 
HETATM   29  C11 UNL     1      -4.191  -5.617  15.110  1.00  0.00     0.042 C 
HETATM   30  C12 UNL     1      -6.608  -6.224  15.110  1.00  0.00     0.178 C 
HETATM   31  C13 UNL     1      -7.191  -6.929  13.934  1.00  0.00     0.183 C 
HETATM   32  C14 UNL     1      -7.479  -6.061  12.735  1.00  0.00     0.204 C 
BRANCH  30  33
HETATM   33  O8  UNL     1      -5.954  -7.183  15.890  1.00  0.00    -0.390 OA
ATOM     34  H8  UNL     1      -6.517  -7.384  16.629  1.00  0.00     0.210 HD
ENDBRANCH  30  33
BRANCH  31  35
HETATM   35  O9  UNL     1      -6.426  -8.062  13.588  1.00  0.00    -0.390 OA
ATOM     36  H9  UNL     1      -6.097  -7.998  12.699  1.00  0.00     0.210 HD
ENDBRANCH  31  35
BRANCH  32  37
HETATM   37  O10 UNL     1      -6.701  -6.583  11.688  1.00  0.00    -0.388 OA
ATOM     38  H10 UNL     1      -6.937  -7.482  11.486  1.00  0.00     0.210 HD
ENDBRANCH  32  37
ENDBRANCH  25  26
ENDBRANCH   5  25
BRANCH   4  39
HETATM   39  O5  UNL     1      -9.582  -3.818  11.065  1.00  0.00    -0.390 OA
ATOM     40  H5  UNL     1      -9.408  -4.625  11.535  1.00  0.00     0.210 HD
ENDBRANCH   4  39
BRANCH   3  41
HETATM   41  C4  UNL     1      -8.986  -2.543   8.111  1.00  0.00     0.180 C 
BRANCH  41  42
HETATM   42  O2  UNL     1      -7.927  -2.074   7.270  1.00  0.00    -0.390 OA
ATOM     43  H2  UNL     1      -8.234  -1.912   6.385  1.00  0.00     0.210 HD
ENDBRANCH  41  42
BRANCH  41  44
HETATM   44  C5  UNL     1     -10.290  -2.242   7.474  1.00  0.00     0.173 C 
BRANCH  44  45
HETATM   45  O3  UNL     1     -11.158  -3.314   7.343  1.00  0.00    -0.391 OA
ATOM     46  H3  UNL     1     -10.782  -4.172   7.500  1.00  0.00     0.210 HD
ENDBRANCH  44  45
BRANCH  44  47
HETATM   47  C6  UNL     1     -10.023  -1.796   6.017  1.00  0.00     0.198 C 
BRANCH  47  48
HETATM   48  O4  UNL     1      -9.779  -0.416   6.030  1.00  0.00    -0.398 OA
ATOM     49  H4  UNL     1     -10.314  -0.020   5.352  1.00  0.00     0.209 HD
ENDBRANCH  47  48
ENDBRANCH  44  47
ENDBRANCH  41  44
ENDBRANCH   3  41
TORSDOF 20
ENDMDL
MODEL 3
REMARK VINA RESULT: -7.214865926      1.238      1.476
REMARK  20 active torsions:
REMARK  status: ('A' for Active; 'I' for Inactive)
REMARK    1  A    between atoms: S1_2  and  C2_3 
REMARK    2  A    between atoms: C3_5  and  C4_6 
REMARK    3  A    between atoms: C4_6  and  O2_7 
REMARK    4  A    between atoms: C4_6  and  C5_9 
REMARK    5  A    between atoms: C5_9  and  O3_10 
REMARK    6  A    between atoms: C5_9  and  C6_12 
REMARK    7  A    between atoms: C6_12  and  O4_13 
REMARK    8  A    between atoms: C7_15  and  O5_16 
REMARK    9  A    between atoms: C8_18  and  O6_19 
REMARK   10  A    between atoms: O6_19  and  C9_20 
REMARK   11  A    between atoms: C12_24  and  O8_25 
REMARK   12  A    between atoms: C13_27  and  O9_28 
REMARK   13  A    between atoms: C14_30  and  O10_31 
REMARK   14  A    between atoms: C15_33  and  O11_34 
REMARK   15  A    between atoms: O11_34  and  C16_35 
REMARK   16  A    between atoms: C17_37  and  C18_38 
REMARK   17  A    between atoms: C18_38  and  O13_39 
REMARK   18  A    between atoms: C19_41  and  O14_42 
REMARK   19  A    between atoms: C20_44  and  O15_45 
REMARK   20  A    between atoms: C21_47  and  S2_48 
ROOT
HETATM    1  C2  UNL     1     -10.918  -2.591  11.811  1.00  0.00     0.214 C 
HETATM    2  O1  UNL     1     -10.757  -2.972  10.492  1.00  0.00    -0.362 OA
HETATM    3  C3  UNL     1      -9.397  -2.742  10.225  1.00  0.00     0.185 C 
HETATM    4  C7  UNL     1      -8.605  -3.758  10.954  1.00  0.00     0.181 C 
HETATM    5  C8  UNL     1      -8.703  -3.416  12.497  1.00  0.00     0.188 C 
HETATM    6  C15 UNL     1     -10.214  -3.518  12.765  1.00  0.00     0.195 C 
ENDROOT
BRANCH   6   7
HETATM    7  O11 UNL     1     -10.541  -3.138  14.077  1.00  0.00    -0.349 OA
BRANCH   7   8
HETATM    8  C16 UNL     1     -10.844  -4.165  14.938  1.00  0.00     0.278 C 
HETATM    9  O12 UNL     1     -12.260  -4.013  15.156  1.00  0.00    -0.350 OA
HETATM   10  C17 UNL     1     -12.819  -5.043  15.845  1.00  0.00     0.179 C 
HETATM   11  C19 UNL     1     -11.934  -5.487  17.009  1.00  0.00     0.179 C 
HETATM   12  C20 UNL     1     -11.052  -4.331  17.387  1.00  0.00     0.168 C 
HETATM   13  C21 UNL     1     -10.104  -4.096  16.196  1.00  0.00     0.146 C 
BRANCH  10  14
HETATM   14  C18 UNL     1     -13.368  -6.191  15.063  1.00  0.00     0.198 C 
BRANCH  14  15
HETATM   15  O13 UNL     1     -13.370  -7.411  15.677  1.00  0.00    -0.398 OA
ATOM     16  H13 UNL     1     -13.789  -8.124  15.211  1.00  0.00     0.209 HD
ENDBRANCH  14  15
ENDBRANCH  10  14
BRANCH  11  17
HETATM   17  O14 UNL     1     -12.664  -5.836  18.133  1.00  0.00    -0.390 OA
ATOM     18  H14 UNL     1     -12.576  -5.206  18.838  1.00  0.00     0.210 HD
ENDBRANCH  11  17
BRANCH  12  19
HETATM   19  O15 UNL     1     -11.823  -3.171  17.488  1.00  0.00    -0.392 OA
ATOM     20  H15 UNL     1     -11.716  -2.794  18.353  1.00  0.00     0.210 HD
ENDBRANCH  12  19
BRANCH  13  21
HETATM   21  S2  UNL     1      -9.368  -2.474  16.523  1.00  0.00    -0.073 SA
HETATM   22  S3  UNL     1      -7.289  -2.397  16.358  1.00  0.00    -0.013 SA
ENDBRANCH  13  21
ENDBRANCH   7   8
ENDBRANCH   6   7
BRANCH   1  23
HETATM   23  S1  UNL     1     -12.645  -2.266  12.213  1.00  0.00    -0.139 SA
HETATM   24  C1  UNL     1     -13.674  -3.708  11.942  1.00  0.00     0.092 C 
ENDBRANCH   1  23
BRANCH   5  25
HETATM   25  O6  UNL     1      -7.960  -4.224  13.079  1.00  0.00    -0.348 OA
BRANCH  25  26
HETATM   26  C9  UNL     1      -7.171  -5.043  13.593  1.00  0.00     0.292 C 
HETATM   27  O7  UNL     1      -5.779  -4.665  13.493  1.00  0.00    -0.351 OA
HETATM   28  C10 UNL     1      -5.169  -4.958  14.685  1.00  0.00     0.152 C 
HETATM   29  C11 UNL     1      -3.660  -4.845  14.603  1.00  0.00     0.042 C 
HETATM   30  C12 UNL     1      -5.580  -6.301  15.238  1.00  0.00     0.178 C 
HETATM   31  C13 UNL     1      -6.199  -7.191  14.216  1.00  0.00     0.183 C 
HETATM   32  C14 UNL     1      -7.127  -6.510  13.240  1.00  0.00     0.204 C 
BRANCH  30  33
HETATM   33  O8  UNL     1      -4.424  -6.938  15.701  1.00  0.00    -0.390 OA
ATOM     34  H8  UNL     1      -4.639  -7.852  15.845  1.00  0.00     0.210 HD
ENDBRANCH  30  33
BRANCH  31  35
HETATM   35  O9  UNL     1      -5.225  -7.968  13.558  1.00  0.00    -0.390 OA
ATOM     36  H9  UNL     1      -5.358  -7.963  12.617  1.00  0.00     0.210 HD
ENDBRANCH  31  35
BRANCH  32  37
HETATM   37  O10 UNL     1      -6.569  -6.727  11.969  1.00  0.00    -0.388 OA
ATOM     38  H10 UNL     1      -6.912  -7.514  11.561  1.00  0.00     0.210 HD
ENDBRANCH  32  37
ENDBRANCH  25  26
ENDBRANCH   5  25
BRANCH   4  39
HETATM   39  O5  UNL     1      -9.177  -5.038  10.918  1.00  0.00    -0.390 OA
ATOM     40  H5  UNL     1      -8.614  -5.689  10.516  1.00  0.00     0.210 HD
ENDBRANCH   4  39
BRANCH   3  41
HETATM   41  C4  UNL     1      -9.023  -2.527   8.825  1.00  0.00     0.180 C 
BRANCH  41  42
HETATM   42  O2  UNL     1      -7.939  -1.599   8.711  1.00  0.00    -0.390 OA
ATOM     43  H2  UNL     1      -7.376  -1.814   7.977  1.00  0.00     0.210 HD
ENDBRANCH  41  42
BRANCH  41  44
HETATM   44  C5  UNL     1     -10.067  -2.188   7.829  1.00  0.00     0.173 C 
BRANCH  44  45
HETATM   45  O3  UNL     1     -10.779  -3.259   7.313  1.00  0.00    -0.391 OA
ATOM     46  H3  UNL     1     -11.665  -3.068   7.029  1.00  0.00     0.210 HD
ENDBRANCH  44  45
BRANCH  44  47
HETATM   47  C6  UNL     1      -9.372  -1.570   6.593  1.00  0.00     0.198 C 
BRANCH  47  48
HETATM   48  O4  UNL     1      -9.946  -2.141   5.450  1.00  0.00    -0.398 OA
ATOM     49  H4  UNL     1     -10.578  -1.523   5.102  1.00  0.00     0.209 HD
ENDBRANCH  47  48
ENDBRANCH  44  47
ENDBRANCH  41  44
ENDBRANCH   3  41
TORSDOF 20
ENDMDL
MODEL 4
REMARK VINA RESULT: -7.066746829      2.941      6.655
REMARK  20 active torsions:
REMARK  status: ('A' for Active; 'I' for Inactive)
REMARK    1  A    between atoms: S1_2  and  C2_3 
REMARK    2  A    between atoms: C3_5  and  C4_6 
REMARK    3  A    between atoms: C4_6  and  O2_7 
REMARK    4  A    between atoms: C4_6  and  C5_9 
REMARK    5  A    between atoms: C5_9  and  O3_10 
REMARK    6  A    between atoms: C5_9  and  C6_12 
REMARK    7  A    between atoms: C6_12  and  O4_13 
REMARK    8  A    between atoms: C7_15  and  O5_16 
REMARK    9  A    between atoms: C8_18  and  O6_19 
REMARK   10  A    between atoms: O6_19  and  C9_20 
REMARK   11  A    between atoms: C12_24  and  O8_25 
REMARK   12  A    between atoms: C13_27  and  O9_28 
REMARK   13  A    between atoms: C14_30  and  O10_31 
REMARK   14  A    between atoms: C15_33  and  O11_34 
REMARK   15  A    between atoms: O11_34  and  C16_35 
REMARK   16  A    between atoms: C17_37  and  C18_38 
REMARK   17  A    between atoms: C18_38  and  O13_39 
REMARK   18  A    between atoms: C19_41  and  O14_42 
REMARK   19  A    between atoms: C20_44  and  O15_45 
REMARK   20  A    between atoms: C21_47  and  S2_48 
ROOT
HETATM    1  C2  UNL     1      -9.284  -0.255  13.059  1.00  0.00     0.214 C 
HETATM    2  O1  UNL     1      -8.514   0.558  13.870  1.00  0.00    -0.362 OA
HETATM    3  C3  UNL     1      -8.580  -0.046  15.136  1.00  0.00     0.185 C 
HETATM    4  C7  UNL     1      -7.791  -1.298  15.092  1.00  0.00     0.181 C 
HETATM    5  C8  UNL     1      -8.588  -2.327  14.191  1.00  0.00     0.188 C 
HETATM    6  C15 UNL     1      -8.652  -1.603  12.835  1.00  0.00     0.195 C 
ENDROOT
BRANCH   6   7
HETATM    7  O11 UNL     1      -9.427  -2.308  11.900  1.00  0.00    -0.349 OA
BRANCH   7   8
HETATM    8  C16 UNL     1      -8.725  -2.981  10.929  1.00  0.00     0.278 C 
HETATM    9  O12 UNL     1      -7.653  -2.078  10.603  1.00  0.00    -0.350 OA
HETATM   10  C17 UNL     1      -6.715  -2.619   9.780  1.00  0.00     0.179 C 
HETATM   11  C19 UNL     1      -7.355  -3.443   8.664  1.00  0.00     0.179 C 
HETATM   12  C20 UNL     1      -8.758  -2.946   8.466  1.00  0.00     0.168 C 
HETATM   13  C21 UNL     1      -9.532  -3.295   9.752  1.00  0.00     0.146 C 
BRANCH  10  14
HETATM   14  C18 UNL     1      -5.545  -3.302  10.408  1.00  0.00     0.198 C 
BRANCH  14  15
HETATM   15  O13 UNL     1      -4.305  -2.900  10.000  1.00  0.00    -0.398 OA
ATOM     16  H13 UNL     1      -4.158  -1.964   9.933  1.00  0.00     0.209 HD
ENDBRANCH  14  15
ENDBRANCH  10  14
BRANCH  11  17
HETATM   17  O14 UNL     1      -6.694  -3.310   7.454  1.00  0.00    -0.390 OA
ATOM     18  H14 UNL     1      -6.736  -4.097   6.924  1.00  0.00     0.210 HD
ENDBRANCH  11  17
BRANCH  12  19
HETATM   19  O15 UNL     1      -8.752  -1.550   8.399  1.00  0.00    -0.392 OA
ATOM     20  H15 UNL     1      -9.091  -1.272   7.557  1.00  0.00     0.210 HD
ENDBRANCH  12  19
BRANCH  13  21
HETATM   21  S2  UNL     1     -11.058  -2.329   9.633  1.00  0.00    -0.073 SA
HETATM   22  S3  UNL     1     -12.762  -3.424   9.130  1.00  0.00    -0.013 SA
ENDBRANCH  13  21
ENDBRANCH   7   8
ENDBRANCH   6   7
BRANCH   1  23
HETATM   23  S1  UNL     1      -9.806   0.591  11.555  1.00  0.00    -0.139 SA
HETATM   24  C1  UNL     1      -8.818   2.053  11.238  1.00  0.00     0.092 C 
ENDBRANCH   1  23
BRANCH   5  25
HETATM   25  O6  UNL     1      -7.956  -3.395  14.242  1.00  0.00    -0.348 OA
BRANCH  25  26
HETATM   26  C9  UNL     1      -7.283  -4.440  14.363  1.00  0.00     0.292 C 
HETATM   27  O7  UNL     1      -5.865  -4.258  14.151  1.00  0.00    -0.351 OA
HETATM   28  C10 UNL     1      -5.192  -4.992  15.092  1.00  0.00     0.152 C 
HETATM   29  C11 UNL     1      -3.708  -5.081  14.801  1.00  0.00     0.042 C 
HETATM   30  C12 UNL     1      -5.785  -6.365  15.296  1.00  0.00     0.178 C 
HETATM   31  C13 UNL     1      -6.671  -6.793  14.177  1.00  0.00     0.183 C 
HETATM   32  C14 UNL     1      -7.556  -5.715  13.602  1.00  0.00     0.204 C 
BRANCH  30  33
HETATM   33  O8  UNL     1      -4.726  -7.276  15.362  1.00  0.00    -0.390 OA
ATOM     34  H8  UNL     1      -5.058  -8.122  15.082  1.00  0.00     0.210 HD
ENDBRANCH  30  33
BRANCH  31  35
HETATM   35  O9  UNL     1      -5.940  -7.461  13.174  1.00  0.00    -0.390 OA
ATOM     36  H9  UNL     1      -6.246  -7.220  12.307  1.00  0.00     0.210 HD
ENDBRANCH  31  35
BRANCH  32  37
HETATM   37  O10 UNL     1      -7.194  -5.604  12.249  1.00  0.00    -0.388 OA
ATOM     38  H10 UNL     1      -7.928  -5.780  11.671  1.00  0.00     0.210 HD
ENDBRANCH  32  37
ENDBRANCH  25  26
ENDBRANCH   5  25
BRANCH   4  39
HETATM   39  O5  UNL     1      -6.593  -1.173  14.376  1.00  0.00    -0.390 OA
ATOM     40  H5  UNL     1      -6.270  -2.000  14.037  1.00  0.00     0.210 HD
ENDBRANCH   4  39
BRANCH   3  41
HETATM   41  C4  UNL     1      -8.343   0.817  16.296  1.00  0.00     0.180 C 
BRANCH  41  42
HETATM   42  O2  UNL     1      -9.197   0.466  17.390  1.00  0.00    -0.390 OA
ATOM     43  H2  UNL     1      -8.693   0.200  18.150  1.00  0.00     0.210 HD
ENDBRANCH  41  42
BRANCH  41  44
HETATM   44  C5  UNL     1      -8.338   2.289  16.128  1.00  0.00     0.173 C 
BRANCH  44  45
HETATM   45  O3  UNL     1      -7.340   2.800  15.313  1.00  0.00    -0.391 OA
ATOM     46  H3  UNL     1      -7.635   3.320  14.575  1.00  0.00     0.210 HD
ENDBRANCH  44  45
BRANCH  44  47
HETATM   47  C6  UNL     1      -8.059   2.931  17.508  1.00  0.00     0.198 C 
BRANCH  47  48
HETATM   48  O4  UNL     1      -6.931   2.303  18.051  1.00  0.00    -0.398 OA
ATOM     49  H4  UNL     1      -6.517   2.916  18.648  1.00  0.00     0.209 HD
ENDBRANCH  47  48
ENDBRANCH  44  47
ENDBRANCH  41  44
ENDBRANCH   3  41
TORSDOF 20
ENDMDL
MODEL 5
REMARK VINA RESULT: -7.028443822      2.069      2.594
REMARK  20 active torsions:
REMARK  status: ('A' for Active; 'I' for Inactive)
REMARK    1  A    between atoms: S1_2  and  C2_3 
REMARK    2  A    between atoms: C3_5  and  C4_6 
REMARK    3  A    between atoms: C4_6  and  O2_7 
REMARK    4  A    between atoms: C4_6  and  C5_9 
REMARK    5  A    between atoms: C5_9  and  O3_10 
REMARK    6  A    between atoms: C5_9  and  C6_12 
REMARK    7  A    between atoms: C6_12  and  O4_13 
REMARK    8  A    between atoms: C7_15  and  O5_16 
REMARK    9  A    between atoms: C8_18  and  O6_19 
REMARK   10  A    between atoms: O6_19  and  C9_20 
REMARK   11  A    between atoms: C12_24  and  O8_25 
REMARK   12  A    between atoms: C13_27  and  O9_28 
REMARK   13  A    between atoms: C14_30  and  O10_31 
REMARK   14  A    between atoms: C15_33  and  O11_34 
REMARK   15  A    between atoms: O11_34  and  C16_35 
REMARK   16  A    between atoms: C17_37  and  C18_38 
REMARK   17  A    between atoms: C18_38  and  O13_39 
REMARK   18  A    between atoms: C19_41  and  O14_42 
REMARK   19  A    between atoms: C20_44  and  O15_45 
REMARK   20  A    between atoms: C21_47  and  S2_48 
ROOT
HETATM    1  C2  UNL     1      -9.491  -0.802  11.346  1.00  0.00     0.214 C 
HETATM    2  O1  UNL     1     -10.001  -1.362  10.189  1.00  0.00    -0.362 OA
HETATM    3  C3  UNL     1      -8.912  -2.042   9.620  1.00  0.00     0.185 C 
HETATM    4  C7  UNL     1      -8.624  -3.231  10.454  1.00  0.00     0.181 C 
HETATM    5  C8  UNL     1      -8.014  -2.713  11.820  1.00  0.00     0.188 C 
HETATM    6  C15 UNL     1      -9.150  -1.841  12.381  1.00  0.00     0.195 C 
ENDROOT
BRANCH   6   7
HETATM    7  O11 UNL     1      -8.771  -1.182  13.563  1.00  0.00    -0.349 OA
BRANCH   7   8
HETATM    8  C16 UNL     1      -9.247  -1.728  14.729  1.00  0.00     0.278 C 
HETATM    9  O12 UNL     1     -10.124  -0.708  15.244  1.00  0.00    -0.350 OA
HETATM   10  C17 UNL     1     -10.855  -1.108  16.318  1.00  0.00     0.179 C 
HETATM   11  C19 UNL     1     -10.015  -1.926  17.298  1.00  0.00     0.179 C 
HETATM   12  C20 UNL     1      -8.573  -1.555  17.093  1.00  0.00     0.168 C 
HETATM   13  C21 UNL     1      -8.190  -2.051  15.685  1.00  0.00     0.146 C 
BRANCH  10  14
HETATM   14  C18 UNL     1     -12.198  -1.709  16.064  1.00  0.00     0.198 C 
BRANCH  14  15
HETATM   15  O13 UNL     1     -12.656  -2.608  16.985  1.00  0.00    -0.398 OA
ATOM     16  H13 UNL     1     -13.476  -3.044  16.787  1.00  0.00     0.209 HD
ENDBRANCH  14  15
ENDBRANCH  10  14
BRANCH  11  17
HETATM   17  O14 UNL     1     -10.326  -1.660  18.621  1.00  0.00    -0.390 OA
ATOM     18  H14 UNL     1      -9.929  -0.857  18.938  1.00  0.00     0.210 HD
ENDBRANCH  11  17
BRANCH  12  19
HETATM   19  O15 UNL     1      -8.452  -0.165  17.047  1.00  0.00    -0.392 OA
ATOM     20  H15 UNL     1      -7.783   0.115  17.661  1.00  0.00     0.210 HD
ENDBRANCH  12  19
BRANCH  13  21
HETATM   21  S2  UNL     1      -6.614  -1.231  15.336  1.00  0.00    -0.073 SA
HETATM   22  S3  UNL     1      -5.111  -1.567  16.745  1.00  0.00    -0.013 SA
ENDBRANCH  13  21
ENDBRANCH   7   8
ENDBRANCH   6   7
BRANCH   1  23
HETATM   23  S1  UNL     1     -10.516   0.554  11.948  1.00  0.00    -0.139 SA
HETATM   24  C1  UNL     1      -9.560   2.047  12.205  1.00  0.00     0.092 C 
ENDBRANCH   1  23
BRANCH   5  25
HETATM   25  O6  UNL     1      -7.698  -3.727  12.465  1.00  0.00    -0.348 OA
BRANCH  25  26
HETATM   26  C9  UNL     1      -7.319  -4.700  13.147  1.00  0.00     0.292 C 
HETATM   27  O7  UNL     1      -5.901  -4.708  13.430  1.00  0.00    -0.351 OA
HETATM   28  C10 UNL     1      -5.725  -5.096  14.732  1.00  0.00     0.152 C 
HETATM   29  C11 UNL     1      -4.274  -5.388  15.056  1.00  0.00     0.042 C 
HETATM   30  C12 UNL     1      -6.609  -6.255  15.123  1.00  0.00     0.178 C 
HETATM   31  C13 UNL     1      -7.153  -6.997  13.950  1.00  0.00     0.183 C 
HETATM   32  C14 UNL     1      -7.576  -6.142  12.781  1.00  0.00     0.204 C 
BRANCH  30  33
HETATM   33  O8  UNL     1      -5.827  -7.152  15.858  1.00  0.00    -0.390 OA
ATOM     34  H8  UNL     1      -5.203  -6.642  16.362  1.00  0.00     0.210 HD
ENDBRANCH  30  33
BRANCH  31  35
HETATM   35  O9  UNL     1      -6.283  -8.033  13.554  1.00  0.00    -0.390 OA
ATOM     36  H9  UNL     1      -6.543  -8.865  13.933  1.00  0.00     0.210 HD
ENDBRANCH  31  35
BRANCH  32  37
HETATM   37  O10 UNL     1      -6.783  -6.557  11.698  1.00  0.00    -0.388 OA
ATOM     38  H10 UNL     1      -6.708  -7.503  11.656  1.00  0.00     0.210 HD
ENDBRANCH  32  37
ENDBRANCH  25  26
ENDBRANCH   5  25
BRANCH   4  39
HETATM   39  O5  UNL     1      -9.779  -3.890  10.898  1.00  0.00    -0.390 OA
ATOM     40  H5  UNL     1     -10.583  -3.480  10.603  1.00  0.00     0.210 HD
ENDBRANCH   4  39
BRANCH   3  41
HETATM   41  C4  UNL     1      -8.957  -2.274   8.174  1.00  0.00     0.180 C 
BRANCH  41  42
HETATM   42  O2  UNL     1      -7.948  -1.520   7.494  1.00  0.00    -0.390 OA
ATOM     43  H2  UNL     1      -8.168  -0.596   7.464  1.00  0.00     0.210 HD
ENDBRANCH  41  42
BRANCH  41  44
HETATM   44  C5  UNL     1     -10.242  -2.142   7.447  1.00  0.00     0.173 C 
BRANCH  44  45
HETATM   45  O3  UNL     1     -10.974  -3.310   7.301  1.00  0.00    -0.391 OA
ATOM     46  H3  UNL     1     -10.874  -3.950   7.995  1.00  0.00     0.210 HD
ENDBRANCH  44  45
BRANCH  44  47
HETATM   47  C6  UNL     1      -9.933  -1.709   5.995  1.00  0.00     0.198 C 
BRANCH  47  48
HETATM   48  O4  UNL     1      -9.845  -0.311   5.976  1.00  0.00    -0.398 OA
ATOM     49  H4  UNL     1     -10.730   0.036   5.994  1.00  0.00     0.209 HD
ENDBRANCH  47  48
ENDBRANCH  44  47
ENDBRANCH  41  44
ENDBRANCH   3  41
TORSDOF 20
ENDMDL
