MODEL 1
REMARK VINA RESULT: -9.543812830      0.000      0.000
REMARK  18 active torsions:
REMARK  status: ('A' for Active; 'I' for Inactive)
REMARK    1  A    between atoms: N1_2  and  C2_3 
REMARK    2  A    between atoms: N1_2  and  N10_45 
REMARK    3  A    between atoms: C4_7  and  C5_8 
REMARK    4  A    between atoms: C5_8  and  N3_9 
REMARK    5  A    between atoms: C5_8  and  C11_28 
REMARK       I    between atoms: N3_9  and  C6_11 
REMARK    6  A    between atoms: C6_11  and  C7_13 
REMARK    7  A    between atoms: C7_13  and  O2_14 
REMARK    8  A    between atoms: C7_13  and  C8_16 
REMARK    9  A    between atoms: C7_13  and  O4_19 
REMARK   10  A    between atoms: C8_16  and  O3_17 
REMARK   11  A    between atoms: O4_19  and  C9_20 
REMARK   12  A    between atoms: C9_20  and  N4_21 
REMARK   13  A    between atoms: C9_20  and  O5_24 
REMARK   14  A    between atoms: O5_24  and  C10_25 
REMARK   15  A    between atoms: C14_34  and  N7_35 
REMARK   16  A    between atoms: N9_42  and  O9_43 
REMARK   17  A    between atoms: C16_49  and  C17_50 
REMARK   18  A    between atoms: C19_54  and  N14_55 
ROOT
HETATM    1  C5  UNL     1      -6.439  -3.536  12.890  1.00  0.00     0.175 C 
ENDROOT
BRANCH   1   2
HETATM    2  C4  UNL     1      -6.995  -2.800  14.040  1.00  0.00     0.057 A 
HETATM    3  C3  UNL     1      -6.961  -3.424  15.271  1.00  0.00     0.121 A 
HETATM    4  N2  UNL     1      -7.449  -2.824  16.362  1.00  0.00    -0.197 N 
HETATM    5  C2  UNL     1      -8.008  -1.569  16.331  1.00  0.00     0.730 A 
ATOM      6  H2  UNL     1      -7.405  -3.318  17.253  1.00  0.00     0.183 HD
HETATM    7  N9  UNL     1      -8.038  -0.970  15.137  1.00  0.00    -0.011 N 
HETATM    8  C15 UNL     1      -7.545  -1.560  14.002  1.00  0.00     0.298 A 
HETATM    9  O8  UNL     1      -7.603  -0.951  12.927  1.00  0.00    -0.264 OA
BRANCH   5  10
HETATM   10  N1  UNL     1      -8.508  -0.981  17.497  1.00  0.00    -0.091 N 
HETATM   11  C1  UNL     1      -9.687  -1.454  18.165  1.00  0.00     0.201 C 
BRANCH  10  12
HETATM   12  N10 UNL     1      -7.816   0.137  18.047  1.00  0.00    -0.097 N 
HETATM   13  N11 UNL     1      -8.130   1.416  17.927  1.00  0.00     0.020 NA
HETATM   14  N12 UNL     1      -7.241   2.155  18.582  1.00  0.00    -0.264 N 
HETATM   15  C16 UNL     1      -6.325   1.333  19.142  1.00  0.00     0.148 A 
ATOM     16  H12 UNL     1      -7.248   3.173  18.651  1.00  0.00     0.186 HD
HETATM   17  N16 UNL     1      -6.722   0.101  18.785  1.00  0.00    -0.248 N 
ATOM     18  H16 UNL     1      -6.238  -0.757  19.051  1.00  0.00     0.192 HD
BRANCH  15  19
HETATM   19  C17 UNL     1      -5.178   1.721  19.947  1.00  0.00     0.042 A 
HETATM   20  C18 UNL     1      -4.135   2.462  19.438  1.00  0.00     0.122 A 
HETATM   21  N13 UNL     1      -3.073   2.807  20.228  1.00  0.00    -0.201 N 
HETATM   22  C19 UNL     1      -3.027   2.432  21.512  1.00  0.00     0.675 A 
ATOM     23  H13 UNL     1      -2.309   3.356  19.835  1.00  0.00     0.183 HD
HETATM   24  N15 UNL     1      -4.028   1.712  22.030  1.00  0.00    -0.201 N 
HETATM   25  C20 UNL     1      -5.096   1.354  21.271  1.00  0.00     0.122 A 
ATOM     26  H15 UNL     1      -3.988   1.428  23.009  1.00  0.00     0.183 HD
BRANCH  22  27
HETATM   27  N14 UNL     1      -1.981   2.802  22.193  1.00  0.00    -0.234 N 
ATOM     28 2H14 UNL     1      -1.061   2.949  21.776  1.00  0.00     0.174 HD
ATOM     29 1H14 UNL     1      -2.112   2.946  23.194  1.00  0.00     0.174 HD
ENDBRANCH  22  27
ENDBRANCH  15  19
ENDBRANCH  10  12
ENDBRANCH   5  10
BRANCH   7  30
HETATM   30  O9  UNL     1      -8.571   0.286  14.984  1.00  0.00    -0.266 OA
ATOM     31  H9  UNL     1      -8.426   0.966  15.632  1.00  0.00     0.246 HD
ENDBRANCH   7  30
ENDBRANCH   1   2
BRANCH   1  32
HETATM   32  N3  UNL     1      -7.227  -3.458  11.693  1.00  0.00    -0.342 N 
HETATM   33  C6  UNL     1      -6.712  -3.086  10.424  1.00  0.00     0.284 C 
HETATM   34  O1  UNL     1      -5.504  -2.814  10.361  1.00  0.00    -0.267 OA
ATOM     35  H3  UNL     1      -8.219  -3.684  11.759  1.00  0.00     0.163 HD
BRANCH  33  36
HETATM   36  C7  UNL     1      -7.576  -3.032   9.259  1.00  0.00     0.275 C 
BRANCH  36  37
HETATM   37  O2  UNL     1      -7.687  -1.638   8.832  1.00  0.00    -0.356 OA
ATOM     38  H2  UNL     1      -8.423  -1.244   9.286  1.00  0.00     0.213 HD
ENDBRANCH  36  37
BRANCH  36  39
HETATM   39  C8  UNL     1      -6.893  -3.651   8.022  1.00  0.00     0.243 C 
BRANCH  39  40
HETATM   40  O3  UNL     1      -6.210  -4.800   8.333  1.00  0.00    -0.395 OA
ATOM     41  H3  UNL     1      -5.345  -4.816   7.941  1.00  0.00     0.209 HD
ENDBRANCH  39  40
ENDBRANCH  36  39
BRANCH  36  42
HETATM   42  O4  UNL     1      -8.861  -3.456   9.293  1.00  0.00    -0.267 OA
BRANCH  42  43
HETATM   43  C9  UNL     1      -9.977  -2.826   8.779  1.00  0.00     0.269 C 
BRANCH  43  44
HETATM   44  N4  UNL     1     -10.653  -2.171   9.582  1.00  0.00    -0.359 N 
ATOM     45  H42 UNL     1     -10.558  -1.164   9.711  1.00  0.00     0.160 HD
ATOM     46  H41 UNL     1     -11.332  -2.696  10.133  1.00  0.00     0.160 HD
ENDBRANCH  43  44
BRANCH  43  47
HETATM   47  O5  UNL     1     -10.289  -2.947   7.412  1.00  0.00    -0.225 OA
BRANCH  47  48
HETATM   48  C10 UNL     1     -10.382  -1.875   6.569  1.00  0.00     0.380 C 
HETATM   49  N5  UNL     1      -9.284  -0.968   6.376  1.00  0.00    -0.032 NA
HETATM   50  O6  UNL     1     -11.432  -1.638   5.929  1.00  0.00    -0.242 OA
ENDBRANCH  47  48
ENDBRANCH  43  47
ENDBRANCH  42  43
ENDBRANCH  36  42
ENDBRANCH  33  36
ENDBRANCH   1  32
BRANCH   1  51
HETATM   51  C11 UNL     1      -6.408  -4.984  13.285  1.00  0.00     0.059 A 
HETATM   52  C12 UNL     1      -5.425  -5.470  14.107  1.00  0.00     0.103 A 
HETATM   53  C13 UNL     1      -5.413  -6.797  14.460  1.00  0.00     0.261 A 
HETATM   54  O7  UNL     1      -4.516  -7.288  15.223  1.00  0.00    -0.268 OA
HETATM   55  N6  UNL     1      -6.376  -7.611  13.989  1.00  0.00    -0.156 N 
HETATM   56  C14 UNL     1      -7.361  -7.151  13.171  1.00  0.00     0.679 A 
ATOM     57  H6  UNL     1      -6.367  -8.597  14.253  1.00  0.00     0.187 HD
HETATM   58  N8  UNL     1      -7.342  -5.846  12.846  1.00  0.00    -0.193 N 
ATOM     59  H8  UNL     1      -8.075  -5.491  12.234  1.00  0.00     0.184 HD
BRANCH  56  60
HETATM   60  N7  UNL     1      -8.242  -7.972  12.761  1.00  0.00    -0.234 N 
ATOM     61  H72 UNL     1      -8.122  -8.984  12.763  1.00  0.00     0.174 HD
ATOM     62  H71 UNL     1      -9.124  -7.602  12.405  1.00  0.00     0.174 HD
ENDBRANCH  56  60
ENDBRANCH   1  51
TORSDOF 18
ENDMDL
MODEL 2
REMARK VINA RESULT: -9.454764528      1.222      1.731
REMARK  18 active torsions:
REMARK  status: ('A' for Active; 'I' for Inactive)
REMARK    1  A    between atoms: N1_2  and  C2_3 
REMARK    2  A    between atoms: N1_2  and  N10_45 
REMARK    3  A    between atoms: C4_7  and  C5_8 
REMARK    4  A    between atoms: C5_8  and  N3_9 
REMARK    5  A    between atoms: C5_8  and  C11_28 
REMARK       I    between atoms: N3_9  and  C6_11 
REMARK    6  A    between atoms: C6_11  and  C7_13 
REMARK    7  A    between atoms: C7_13  and  O2_14 
REMARK    8  A    between atoms: C7_13  and  C8_16 
REMARK    9  A    between atoms: C7_13  and  O4_19 
REMARK   10  A    between atoms: C8_16  and  O3_17 
REMARK   11  A    between atoms: O4_19  and  C9_20 
REMARK   12  A    between atoms: C9_20  and  N4_21 
REMARK   13  A    between atoms: C9_20  and  O5_24 
REMARK   14  A    between atoms: O5_24  and  C10_25 
REMARK   15  A    between atoms: C14_34  and  N7_35 
REMARK   16  A    between atoms: N9_42  and  O9_43 
REMARK   17  A    between atoms: C16_49  and  C17_50 
REMARK   18  A    between atoms: C19_54  and  N14_55 
ROOT
HETATM    1  C5  UNL     1      -6.706  -3.202  13.240  1.00  0.00     0.175 C 
ENDROOT
BRANCH   1   2
HETATM    2  C4  UNL     1      -7.103  -2.425  14.429  1.00  0.00     0.057 A 
HETATM    3  C3  UNL     1      -7.116  -3.083  15.643  1.00  0.00     0.121 A 
HETATM    4  N2  UNL     1      -7.469  -2.449  16.766  1.00  0.00    -0.197 N 
HETATM    5  C2  UNL     1      -7.836  -1.125  16.787  1.00  0.00     0.730 A 
ATOM      6  H2  UNL     1      -7.465  -2.969  17.644  1.00  0.00     0.183 HD
HETATM    7  N9  UNL     1      -7.821  -0.494  15.609  1.00  0.00    -0.011 N 
HETATM    8  C15 UNL     1      -7.464  -1.117  14.441  1.00  0.00     0.298 A 
HETATM    9  O8  UNL     1      -7.471  -0.476  13.385  1.00  0.00    -0.264 OA
BRANCH   5  10
HETATM   10  N1  UNL     1      -8.199  -0.503  17.985  1.00  0.00    -0.091 N 
HETATM   11  C1  UNL     1      -9.317  -0.931  18.778  1.00  0.00     0.201 C 
BRANCH  10  12
HETATM   12  N10 UNL     1      -7.426   0.604  18.440  1.00  0.00    -0.097 N 
HETATM   13  N11 UNL     1      -7.729   1.889  18.352  1.00  0.00     0.020 NA
HETATM   14  N12 UNL     1      -6.754   2.614  18.890  1.00  0.00    -0.264 N 
HETATM   15  C16 UNL     1      -5.792   1.777  19.340  1.00  0.00     0.148 A 
ATOM     16  H12 UNL     1      -6.734   3.632  18.953  1.00  0.00     0.186 HD
HETATM   17  N16 UNL     1      -6.251   0.550  19.041  1.00  0.00    -0.248 N 
ATOM     18  H16 UNL     1      -5.754  -0.315  19.251  1.00  0.00     0.192 HD
BRANCH  15  19
HETATM   19  C17 UNL     1      -4.548   2.147  19.996  1.00  0.00     0.042 A 
HETATM   20  C18 UNL     1      -4.133   1.567  21.174  1.00  0.00     0.122 A 
HETATM   21  N13 UNL     1      -2.956   1.943  21.760  1.00  0.00    -0.201 N 
HETATM   22  C19 UNL     1      -2.184   2.882  21.200  1.00  0.00     0.675 A 
ATOM     23  H13 UNL     1      -2.664   1.504  22.633  1.00  0.00     0.183 HD
HETATM   24  N15 UNL     1      -2.564   3.460  20.056  1.00  0.00    -0.201 N 
HETATM   25  C20 UNL     1      -3.728   3.108  19.450  1.00  0.00     0.122 A 
ATOM     26  H15 UNL     1      -1.973   4.175  19.633  1.00  0.00     0.183 HD
BRANCH  22  27
HETATM   27  N14 UNL     1      -1.081   3.181  21.824  1.00  0.00    -0.234 N 
ATOM     28 2H14 UNL     1      -0.916   2.971  22.808  1.00  0.00     0.174 HD
ATOM     29 1H14 UNL     1      -0.357   3.649  21.278  1.00  0.00     0.174 HD
ENDBRANCH  22  27
ENDBRANCH  15  19
ENDBRANCH  10  12
ENDBRANCH   5  10
BRANCH   7  30
HETATM   30  O9  UNL     1      -8.168   0.831  15.507  1.00  0.00    -0.266 OA
ATOM     31  H9  UNL     1      -8.450   1.204  14.680  1.00  0.00     0.246 HD
ENDBRANCH   7  30
ENDBRANCH   1   2
BRANCH   1  32
HETATM   32  N3  UNL     1      -7.726  -3.328  12.240  1.00  0.00    -0.342 N 
HETATM   33  C6  UNL     1      -7.581  -2.895  10.896  1.00  0.00     0.284 C 
HETATM   34  O1  UNL     1      -6.498  -2.378  10.582  1.00  0.00    -0.267 OA
ATOM     35  H3  UNL     1      -8.611  -3.755  12.511  1.00  0.00     0.163 HD
BRANCH  33  36
HETATM   36  C7  UNL     1      -8.662  -3.059   9.942  1.00  0.00     0.275 C 
BRANCH  36  37
HETATM   37  O2  UNL     1      -9.486  -4.189  10.370  1.00  0.00    -0.356 OA
ATOM     38  H2  UNL     1      -9.676  -4.726   9.610  1.00  0.00     0.213 HD
ENDBRANCH  36  37
BRANCH  36  39
HETATM   39  C8  UNL     1      -9.686  -1.910  10.047  1.00  0.00     0.243 C 
BRANCH  39  40
HETATM   40  O3  UNL     1      -9.203  -0.858  10.785  1.00  0.00    -0.395 OA
ATOM     41  H3  UNL     1      -8.399  -1.082  11.239  1.00  0.00     0.209 HD
ENDBRANCH  39  40
ENDBRANCH  36  39
BRANCH  36  42
HETATM   42  O4  UNL     1      -8.437  -3.311   8.632  1.00  0.00    -0.267 OA
BRANCH  42  43
HETATM   43  C9  UNL     1      -8.304  -2.401   7.602  1.00  0.00     0.269 C 
BRANCH  43  44
HETATM   44  N4  UNL     1      -7.384  -1.582   7.711  1.00  0.00    -0.359 N 
ATOM     45  H42 UNL     1      -7.010  -1.267   8.607  1.00  0.00     0.160 HD
ATOM     46  H41 UNL     1      -6.999  -1.217   6.840  1.00  0.00     0.160 HD
ENDBRANCH  43  44
BRANCH  43  47
HETATM   47  O5  UNL     1      -9.187  -2.442   6.506  1.00  0.00    -0.225 OA
BRANCH  47  48
HETATM   48  C10 UNL     1     -10.049  -1.425   6.204  1.00  0.00     0.380 C 
HETATM   49  N5  UNL     1     -11.470  -1.633   6.139  1.00  0.00    -0.032 NA
HETATM   50  O6  UNL     1      -9.635  -0.266   5.969  1.00  0.00    -0.242 OA
ENDBRANCH  47  48
ENDBRANCH  43  47
ENDBRANCH  42  43
ENDBRANCH  36  42
ENDBRANCH  33  36
ENDBRANCH   1  32
BRANCH   1  51
HETATM   51  C11 UNL     1      -6.408  -4.594  13.721  1.00  0.00     0.059 A 
HETATM   52  C12 UNL     1      -5.327  -4.845  14.525  1.00  0.00     0.103 A 
HETATM   53  C13 UNL     1      -5.070  -6.123  14.956  1.00  0.00     0.261 A 
HETATM   54  O7  UNL     1      -4.076  -6.400  15.706  1.00  0.00    -0.268 OA
HETATM   55  N6  UNL     1      -5.891  -7.122  14.580  1.00  0.00    -0.156 N 
HETATM   56  C14 UNL     1      -6.969  -6.895  13.782  1.00  0.00     0.679 A 
ATOM     57  H6  UNL     1      -5.700  -8.071  14.902  1.00  0.00     0.187 HD
HETATM   58  N8  UNL     1      -7.190  -5.631  13.378  1.00  0.00    -0.193 N 
ATOM     59  H8  UNL     1      -7.995  -5.450  12.779  1.00  0.00     0.184 HD
BRANCH  56  60
HETATM   60  N7  UNL     1      -7.706  -7.881  13.462  1.00  0.00    -0.234 N 
ATOM     61  H72 UNL     1      -7.648  -8.801  13.899  1.00  0.00     0.174 HD
ATOM     62  H71 UNL     1      -8.399  -7.753  12.725  1.00  0.00     0.174 HD
ENDBRANCH  56  60
ENDBRANCH   1  51
TORSDOF 18
ENDMDL
MODEL 3
REMARK VINA RESULT: -9.186543845      0.887      1.206
REMARK  18 active torsions:
REMARK  status: ('A' for Active; 'I' for Inactive)
REMARK    1  A    between atoms: N1_2  and  C2_3 
REMARK    2  A    between atoms: N1_2  and  N10_45 
REMARK    3  A    between atoms: C4_7  and  C5_8 
REMARK    4  A    between atoms: C5_8  and  N3_9 
REMARK    5  A    between atoms: C5_8  and  C11_28 
REMARK       I    between atoms: N3_9  and  C6_11 
REMARK    6  A    between atoms: C6_11  and  C7_13 
REMARK    7  A    between atoms: C7_13  and  O2_14 
REMARK    8  A    between atoms: C7_13  and  C8_16 
REMARK    9  A    between atoms: C7_13  and  O4_19 
REMARK   10  A    between atoms: C8_16  and  O3_17 
REMARK   11  A    between atoms: O4_19  and  C9_20 
REMARK   12  A    between atoms: C9_20  and  N4_21 
REMARK   13  A    between atoms: C9_20  and  O5_24 
REMARK   14  A    between atoms: O5_24  and  C10_25 
REMARK   15  A    between atoms: C14_34  and  N7_35 
REMARK   16  A    between atoms: N9_42  and  O9_43 
REMARK   17  A    between atoms: C16_49  and  C17_50 
REMARK   18  A    between atoms: C19_54  and  N14_55 
ROOT
HETATM    1  C5  UNL     1      -6.494  -3.558  12.807  1.00  0.00     0.175 C 
ENDROOT
BRANCH   1   2
HETATM    2  C4  UNL     1      -7.060  -2.837  13.962  1.00  0.00     0.057 A 
HETATM    3  C3  UNL     1      -7.064  -3.489  15.178  1.00  0.00     0.121 A 
HETATM    4  N2  UNL     1      -7.563  -2.904  16.273  1.00  0.00    -0.197 N 
HETATM    5  C2  UNL     1      -8.096  -1.637  16.259  1.00  0.00     0.730 A 
ATOM      6  H2  UNL     1      -7.547  -3.419  17.153  1.00  0.00     0.183 HD
HETATM    7  N9  UNL     1      -8.088  -1.011  15.079  1.00  0.00    -0.011 N 
HETATM    8  C15 UNL     1      -7.583  -1.585  13.940  1.00  0.00     0.298 A 
HETATM    9  O8  UNL     1      -7.607  -0.951  12.880  1.00  0.00    -0.264 OA
BRANCH   5  10
HETATM   10  N1  UNL     1      -8.608  -1.066  17.427  1.00  0.00    -0.091 N 
HETATM   11  C1  UNL     1      -9.789  -1.555  18.081  1.00  0.00     0.201 C 
BRANCH  10  12
HETATM   12  N10 UNL     1      -7.929   0.051  17.994  1.00  0.00    -0.097 N 
HETATM   13  N11 UNL     1      -8.273   1.326  17.920  1.00  0.00     0.020 NA
HETATM   14  N12 UNL     1      -7.387   2.066  18.576  1.00  0.00    -0.264 N 
HETATM   15  C16 UNL     1      -6.440   1.248  19.091  1.00  0.00     0.148 A 
ATOM     16  H12 UNL     1      -7.414   3.081  18.675  1.00  0.00     0.186 HD
HETATM   17  N16 UNL     1      -6.818   0.018  18.707  1.00  0.00    -0.248 N 
ATOM     18  H16 UNL     1      -6.309  -0.835  18.937  1.00  0.00     0.192 HD
BRANCH  15  19
HETATM   19  C17 UNL     1      -5.283   1.639  19.881  1.00  0.00     0.042 A 
HETATM   20  C18 UNL     1      -4.266   2.412  19.369  1.00  0.00     0.122 A 
HETATM   21  N13 UNL     1      -3.194   2.758  20.146  1.00  0.00    -0.201 N 
HETATM   22  C19 UNL     1      -3.113   2.353  21.418  1.00  0.00     0.675 A 
ATOM     23  H13 UNL     1      -2.449   3.332  19.750  1.00  0.00     0.183 HD
HETATM   24  N15 UNL     1      -4.089   1.601  21.939  1.00  0.00    -0.201 N 
HETATM   25  C20 UNL     1      -5.166   1.241  21.194  1.00  0.00     0.122 A 
ATOM     26  H15 UNL     1      -4.023   1.294  22.910  1.00  0.00     0.183 HD
BRANCH  22  27
HETATM   27  N14 UNL     1      -2.060   2.726  22.086  1.00  0.00    -0.234 N 
ATOM     28 2H14 UNL     1      -1.144   2.289  21.982  1.00  0.00     0.174 HD
ATOM     29 1H14 UNL     1      -2.181   3.498  22.742  1.00  0.00     0.174 HD
ENDBRANCH  22  27
ENDBRANCH  15  19
ENDBRANCH  10  12
ENDBRANCH   5  10
BRANCH   7  30
HETATM   30  O9  UNL     1      -8.593   0.259  14.944  1.00  0.00    -0.266 OA
ATOM     31  H9  UNL     1      -9.151   0.492  14.211  1.00  0.00     0.246 HD
ENDBRANCH   7  30
ENDBRANCH   1   2
BRANCH   1  32
HETATM   32  N3  UNL     1      -7.248  -3.427  11.593  1.00  0.00    -0.342 N 
HETATM   33  C6  UNL     1      -6.692  -3.035  10.348  1.00  0.00     0.284 C 
HETATM   34  O1  UNL     1      -5.476  -2.793  10.323  1.00  0.00    -0.267 OA
ATOM     35  H3  UNL     1      -8.247  -3.630  11.627  1.00  0.00     0.163 HD
BRANCH  33  36
HETATM   36  C7  UNL     1      -7.523  -2.928   9.164  1.00  0.00     0.275 C 
BRANCH  36  37
HETATM   37  O2  UNL     1      -7.561  -1.524   8.753  1.00  0.00    -0.356 OA
ATOM     38  H2  UNL     1      -6.738  -1.119   8.999  1.00  0.00     0.213 HD
ENDBRANCH  36  37
BRANCH  36  39
HETATM   39  C8  UNL     1      -6.839  -3.561   7.935  1.00  0.00     0.243 C 
BRANCH  39  40
HETATM   40  O3  UNL     1      -6.253  -4.765   8.238  1.00  0.00    -0.395 OA
ATOM     41  H3  UNL     1      -6.895  -5.457   8.341  1.00  0.00     0.209 HD
ENDBRANCH  39  40
ENDBRANCH  36  39
BRANCH  36  42
HETATM   42  O4  UNL     1      -8.827  -3.292   9.162  1.00  0.00    -0.267 OA
BRANCH  42  43
HETATM   43  C9  UNL     1      -9.870  -2.712   8.469  1.00  0.00     0.269 C 
BRANCH  43  44
HETATM   44  N4  UNL     1     -10.826  -2.319   9.149  1.00  0.00    -0.359 N 
ATOM     45  H42 UNL     1     -11.369  -2.925   9.764  1.00  0.00     0.160 HD
ATOM     46  H41 UNL     1     -11.061  -1.330   9.066  1.00  0.00     0.160 HD
ENDBRANCH  43  44
BRANCH  43  47
HETATM   47  O5  UNL     1      -9.807  -2.592   7.068  1.00  0.00    -0.225 OA
BRANCH  47  48
HETATM   48  C10 UNL     1     -10.405  -1.575   6.378  1.00  0.00     0.380 C 
HETATM   49  N5  UNL     1      -9.666  -0.422   5.940  1.00  0.00    -0.032 NA
HETATM   50  O6  UNL     1     -11.626  -1.606   6.098  1.00  0.00    -0.242 OA
ENDBRANCH  47  48
ENDBRANCH  43  47
ENDBRANCH  42  43
ENDBRANCH  36  42
ENDBRANCH  33  36
ENDBRANCH   1  32
BRANCH   1  51
HETATM   51  C11 UNL     1      -6.512  -5.016  13.164  1.00  0.00     0.059 A 
HETATM   52  C12 UNL     1      -7.501  -5.844  12.698  1.00  0.00     0.103 A 
HETATM   53  C13 UNL     1      -7.502  -7.175  13.033  1.00  0.00     0.261 A 
HETATM   54  O7  UNL     1      -8.402  -7.978  12.620  1.00  0.00    -0.268 OA
HETATM   55  N6  UNL     1      -6.522  -7.656  13.822  1.00  0.00    -0.156 N 
HETATM   56  C14 UNL     1      -5.531  -6.852  14.297  1.00  0.00     0.679 A 
ATOM     57  H6  UNL     1      -6.522  -8.645  14.070  1.00  0.00     0.187 HD
HETATM   58  N8  UNL     1      -5.562  -5.553  13.948  1.00  0.00    -0.193 N 
ATOM     59  H8  UNL     1      -4.825  -4.943  14.298  1.00  0.00     0.184 HD
BRANCH  56  60
HETATM   60  N7  UNL     1      -4.634  -7.367  15.037  1.00  0.00    -0.234 N 
ATOM     61  H72 UNL     1      -4.100  -8.200  14.789  1.00  0.00     0.174 HD
ATOM     62  H71 UNL     1      -4.433  -6.928  15.935  1.00  0.00     0.174 HD
ENDBRANCH  56  60
ENDBRANCH   1  51
TORSDOF 18
ENDMDL
MODEL 4
REMARK VINA RESULT: -8.986565821      4.180      7.280
REMARK  18 active torsions:
REMARK  status: ('A' for Active; 'I' for Inactive)
REMARK    1  A    between atoms: N1_2  and  C2_3 
REMARK    2  A    between atoms: N1_2  and  N10_45 
REMARK    3  A    between atoms: C4_7  and  C5_8 
REMARK    4  A    between atoms: C5_8  and  N3_9 
REMARK    5  A    between atoms: C5_8  and  C11_28 
REMARK       I    between atoms: N3_9  and  C6_11 
REMARK    6  A    between atoms: C6_11  and  C7_13 
REMARK    7  A    between atoms: C7_13  and  O2_14 
REMARK    8  A    between atoms: C7_13  and  C8_16 
REMARK    9  A    between atoms: C7_13  and  O4_19 
REMARK   10  A    between atoms: C8_16  and  O3_17 
REMARK   11  A    between atoms: O4_19  and  C9_20 
REMARK   12  A    between atoms: C9_20  and  N4_21 
REMARK   13  A    between atoms: C9_20  and  O5_24 
REMARK   14  A    between atoms: O5_24  and  C10_25 
REMARK   15  A    between atoms: C14_34  and  N7_35 
REMARK   16  A    between atoms: N9_42  and  O9_43 
REMARK   17  A    between atoms: C16_49  and  C17_50 
REMARK   18  A    between atoms: C19_54  and  N14_55 
ROOT
HETATM    1  C5  UNL     1      -7.059  -3.525  13.432  1.00  0.00     0.175 C 
ENDROOT
BRANCH   1   2
HETATM    2  C4  UNL     1      -8.308  -3.271  14.173  1.00  0.00     0.057 A 
HETATM    3  C3  UNL     1      -9.497  -3.526  13.520  1.00  0.00     0.121 A 
HETATM    4  N2  UNL     1     -10.673  -3.317  14.123  1.00  0.00    -0.197 N 
HETATM    5  C2  UNL     1     -10.774  -2.843  15.409  1.00  0.00     0.730 A 
ATOM      6  H2  UNL     1     -11.530  -3.518  13.607  1.00  0.00     0.183 HD
HETATM    7  N9  UNL     1      -9.619  -2.600  16.036  1.00  0.00    -0.011 N 
HETATM    8  C15 UNL     1      -8.399  -2.804  15.444  1.00  0.00     0.298 A 
HETATM    9  O8  UNL     1      -7.368  -2.558  16.079  1.00  0.00    -0.264 OA
BRANCH   5  10
HETATM   10  N1  UNL     1     -12.024  -2.639  15.999  1.00  0.00    -0.091 N 
HETATM   11  C1  UNL     1     -12.740  -1.398  15.898  1.00  0.00     0.201 C 
BRANCH  10  12
HETATM   12  N10 UNL     1     -12.616  -3.708  16.732  1.00  0.00    -0.097 N 
HETATM   13  N11 UNL     1     -12.558  -3.919  18.037  1.00  0.00     0.020 NA
HETATM   14  N12 UNL     1     -13.235  -5.021  18.339  1.00  0.00    -0.264 N 
HETATM   15  C16 UNL     1     -13.745  -5.541  17.200  1.00  0.00     0.148 A 
ATOM     16  H12 UNL     1     -13.350  -5.411  19.275  1.00  0.00     0.186 HD
HETATM   17  N16 UNL     1     -13.338  -4.697  16.238  1.00  0.00    -0.248 N 
ATOM     18  H16 UNL     1     -13.558  -4.807  15.248  1.00  0.00     0.192 HD
BRANCH  15  19
HETATM   19  C17 UNL     1     -14.552  -6.744  17.072  1.00  0.00     0.042 A 
HETATM   20  C18 UNL     1     -15.198  -7.318  18.144  1.00  0.00     0.122 A 
HETATM   21  N13 UNL     1     -15.947  -8.451  17.982  1.00  0.00    -0.201 N 
HETATM   22  C19 UNL     1     -16.068  -9.023  16.778  1.00  0.00     0.675 A 
ATOM     23  H13 UNL     1     -16.418  -8.864  18.787  1.00  0.00     0.183 HD
HETATM   24  N15 UNL     1     -15.451  -8.485  15.721  1.00  0.00    -0.201 N 
HETATM   25  C20 UNL     1     -14.700  -7.360  15.850  1.00  0.00     0.122 A 
ATOM     26  H15 UNL     1     -15.546  -8.924  14.806  1.00  0.00     0.183 HD
BRANCH  22  27
HETATM   27  N14 UNL     1     -16.799 -10.099  16.712  1.00  0.00    -0.234 N 
ATOM     28 2H14 UNL     1     -16.650 -10.918  17.301  1.00  0.00     0.174 HD
ATOM     29 1H14 UNL     1     -17.555 -10.098  16.027  1.00  0.00     0.174 HD
ENDBRANCH  22  27
ENDBRANCH  15  19
ENDBRANCH  10  12
ENDBRANCH   5  10
BRANCH   7  30
HETATM   30  O9  UNL     1      -9.595  -2.125  17.324  1.00  0.00    -0.266 OA
ATOM     31  H9  UNL     1      -9.767  -2.697  18.063  1.00  0.00     0.246 HD
ENDBRANCH   7  30
ENDBRANCH   1   2
BRANCH   1  32
HETATM   32  N3  UNL     1      -7.211  -3.583  12.006  1.00  0.00    -0.342 N 
HETATM   33  C6  UNL     1      -7.306  -2.441  11.169  1.00  0.00     0.284 C 
HETATM   34  O1  UNL     1      -7.253  -1.331  11.718  1.00  0.00    -0.267 OA
ATOM     35  H3  UNL     1      -7.253  -4.503  11.567  1.00  0.00     0.163 HD
BRANCH  33  36
HETATM   36  C7  UNL     1      -7.457  -2.585   9.733  1.00  0.00     0.275 C 
BRANCH  36  37
HETATM   37  O2  UNL     1      -7.551  -1.249   9.144  1.00  0.00    -0.356 OA
ATOM     38  H2  UNL     1      -7.199  -1.285   8.263  1.00  0.00     0.213 HD
ENDBRANCH  36  37
BRANCH  36  39
HETATM   39  C8  UNL     1      -6.156  -3.089   9.076  1.00  0.00     0.243 C 
BRANCH  39  40
HETATM   40  O3  UNL     1      -5.066  -2.904   9.889  1.00  0.00    -0.395 OA
ATOM     41  H3  UNL     1      -4.300  -3.365   9.566  1.00  0.00     0.209 HD
ENDBRANCH  39  40
ENDBRANCH  36  39
BRANCH  36  42
HETATM   42  O4  UNL     1      -8.499  -3.248   9.179  1.00  0.00    -0.267 OA
BRANCH  42  43
HETATM   43  C9  UNL     1      -9.496  -2.741   8.371  1.00  0.00     0.269 C 
BRANCH  43  44
HETATM   44  N4  UNL     1     -10.575  -2.493   8.924  1.00  0.00    -0.359 N 
ATOM     45  H42 UNL     1     -10.926  -3.005   9.733  1.00  0.00     0.160 HD
ATOM     46  H41 UNL     1     -11.121  -1.730   8.524  1.00  0.00     0.160 HD
ENDBRANCH  43  44
BRANCH  43  47
HETATM   47  O5  UNL     1      -9.255  -2.530   7.000  1.00  0.00    -0.225 OA
BRANCH  47  48
HETATM   48  C10 UNL     1     -10.026  -1.710   6.223  1.00  0.00     0.380 C 
HETATM   49  N5  UNL     1      -9.641  -0.354   5.942  1.00  0.00    -0.032 NA
HETATM   50  O6  UNL     1     -11.103  -2.109   5.724  1.00  0.00    -0.242 OA
ENDBRANCH  47  48
ENDBRANCH  43  47
ENDBRANCH  42  43
ENDBRANCH  36  42
ENDBRANCH  33  36
ENDBRANCH   1  32
BRANCH   1  51
HETATM   51  C11 UNL     1      -6.576  -4.880  13.863  1.00  0.00     0.059 A 
HETATM   52  C12 UNL     1      -5.455  -5.014  14.641  1.00  0.00     0.103 A 
HETATM   53  C13 UNL     1      -5.027  -6.260  15.028  1.00  0.00     0.261 A 
HETATM   54  O7  UNL     1      -3.991  -6.428  15.751  1.00  0.00    -0.268 OA
HETATM   55  N6  UNL     1      -5.722  -7.345  14.635  1.00  0.00    -0.156 N 
HETATM   56  C14 UNL     1      -6.837  -7.235  13.862  1.00  0.00     0.679 A 
ATOM     57  H6  UNL     1      -5.404  -8.270  14.923  1.00  0.00     0.187 HD
HETATM   58  N8  UNL     1      -7.226  -5.999  13.502  1.00  0.00    -0.193 N 
ATOM     59  H8  UNL     1      -8.060  -5.906  12.923  1.00  0.00     0.184 HD
BRANCH  56  60
HETATM   60  N7  UNL     1      -7.448  -8.298  13.525  1.00  0.00    -0.234 N 
ATOM     61  H72 UNL     1      -6.988  -9.195  13.368  1.00  0.00     0.174 HD
ATOM     62  H71 UNL     1      -8.460  -8.260  13.400  1.00  0.00     0.174 HD
ENDBRANCH  56  60
ENDBRANCH   1  51
TORSDOF 18
ENDMDL
MODEL 5
REMARK VINA RESULT: -8.916815116      3.003      6.494
REMARK  18 active torsions:
REMARK  status: ('A' for Active; 'I' for Inactive)
REMARK    1  A    between atoms: N1_2  and  C2_3 
REMARK    2  A    between atoms: N1_2  and  N10_45 
REMARK    3  A    between atoms: C4_7  and  C5_8 
REMARK    4  A    between atoms: C5_8  and  N3_9 
REMARK    5  A    between atoms: C5_8  and  C11_28 
REMARK       I    between atoms: N3_9  and  C6_11 
REMARK    6  A    between atoms: C6_11  and  C7_13 
REMARK    7  A    between atoms: C7_13  and  O2_14 
REMARK    8  A    between atoms: C7_13  and  C8_16 
REMARK    9  A    between atoms: C7_13  and  O4_19 
REMARK   10  A    between atoms: C8_16  and  O3_17 
REMARK   11  A    between atoms: O4_19  and  C9_20 
REMARK   12  A    between atoms: C9_20  and  N4_21 
REMARK   13  A    between atoms: C9_20  and  O5_24 
REMARK   14  A    between atoms: O5_24  and  C10_25 
REMARK   15  A    between atoms: C14_34  and  N7_35 
REMARK   16  A    between atoms: N9_42  and  O9_43 
REMARK   17  A    between atoms: C16_49  and  C17_50 
REMARK   18  A    between atoms: C19_54  and  N14_55 
ROOT
HETATM    1  C5  UNL     1     -11.279  -0.708  11.218  1.00  0.00     0.175 C 
ENDROOT
BRANCH   1   2
HETATM    2  C4  UNL     1     -10.227  -1.708  11.481  1.00  0.00     0.057 A 
HETATM    3  C3  UNL     1     -10.600  -2.868  12.128  1.00  0.00     0.121 A 
HETATM    4  N2  UNL     1      -9.704  -3.821  12.406  1.00  0.00    -0.197 N 
HETATM    5  C2  UNL     1      -8.375  -3.710  12.073  1.00  0.00     0.730 A 
ATOM      6  H2  UNL     1     -10.019  -4.665  12.884  1.00  0.00     0.183 HD
HETATM    7  N9  UNL     1      -8.020  -2.585  11.447  1.00  0.00    -0.011 N 
HETATM    8  C15 UNL     1      -8.916  -1.590  11.148  1.00  0.00     0.298 A 
HETATM    9  O8  UNL     1      -8.523  -0.573  10.568  1.00  0.00    -0.264 OA
BRANCH   5  10
HETATM   10  N1  UNL     1      -7.473  -4.731  12.385  1.00  0.00    -0.091 N 
HETATM   11  C1  UNL     1      -7.391  -5.954  11.639  1.00  0.00     0.201 C 
BRANCH  10  12
HETATM   12  N10 UNL     1      -6.595  -4.550  13.493  1.00  0.00    -0.097 N 
HETATM   13  N11 UNL     1      -5.800  -5.451  14.047  1.00  0.00     0.020 NA
HETATM   14  N12 UNL     1      -5.138  -4.898  15.058  1.00  0.00    -0.264 N 
HETATM   15  C16 UNL     1      -5.513  -3.603  15.163  1.00  0.00     0.148 A 
ATOM     16  H12 UNL     1      -4.461  -5.372  15.655  1.00  0.00     0.186 HD
HETATM   17  N16 UNL     1      -6.410  -3.435  14.178  1.00  0.00    -0.248 N 
ATOM     18  H16 UNL     1      -6.890  -2.557  13.983  1.00  0.00     0.192 HD
BRANCH  15  19
HETATM   19  C17 UNL     1      -5.036  -2.631  16.133  1.00  0.00     0.042 A 
HETATM   20  C18 UNL     1      -3.730  -2.598  16.566  1.00  0.00     0.122 A 
HETATM   21  N13 UNL     1      -3.321  -1.667  17.480  1.00  0.00    -0.201 N 
HETATM   22  C19 UNL     1      -4.182  -0.768  17.972  1.00  0.00     0.675 A 
ATOM     23  H13 UNL     1      -2.349  -1.657  17.790  1.00  0.00     0.183 HD
HETATM   24  N15 UNL     1      -5.456  -0.779  17.568  1.00  0.00    -0.201 N 
HETATM   25  C20 UNL     1      -5.893  -1.692  16.661  1.00  0.00     0.122 A 
ATOM     26  H15 UNL     1      -6.110  -0.093  17.946  1.00  0.00     0.183 HD
BRANCH  22  27
HETATM   27  N14 UNL     1      -3.711   0.082  18.839  1.00  0.00    -0.234 N 
ATOM     28 2H14 UNL     1      -2.722   0.147  19.083  1.00  0.00     0.174 HD
ATOM     29 1H14 UNL     1      -4.384   0.705  19.283  1.00  0.00     0.174 HD
ENDBRANCH  22  27
ENDBRANCH  15  19
ENDBRANCH  10  12
ENDBRANCH   5  10
BRANCH   7  30
HETATM   30  O9  UNL     1      -6.720  -2.362  11.065  1.00  0.00    -0.266 OA
ATOM     31  H9  UNL     1      -6.290  -1.534  11.241  1.00  0.00     0.246 HD
ENDBRANCH   7  30
ENDBRANCH   1   2
BRANCH   1  32
HETATM   32  N3  UNL     1     -11.307  -0.210   9.873  1.00  0.00    -0.342 N 
HETATM   33  C6  UNL     1     -11.854  -0.919   8.772  1.00  0.00     0.284 C 
HETATM   34  O1  UNL     1     -12.334  -2.039   9.004  1.00  0.00    -0.267 OA
ATOM     35  H3  UNL     1     -10.908   0.712   9.697  1.00  0.00     0.163 HD
BRANCH  33  36
HETATM   36  C7  UNL     1     -11.844  -0.345   7.440  1.00  0.00     0.275 C 
BRANCH  36  37
HETATM   37  O2  UNL     1     -12.823  -1.061   6.623  1.00  0.00    -0.356 OA
ATOM     38  H2  UNL     1     -12.373  -1.757   6.159  1.00  0.00     0.213 HD
ENDBRANCH  36  37
BRANCH  36  39
HETATM   39  C8  UNL     1     -12.456   1.071   7.433  1.00  0.00     0.243 C 
BRANCH  39  40
HETATM   40  O3  UNL     1     -11.546   2.026   7.813  1.00  0.00    -0.395 OA
ATOM     41  H3  UNL     1     -11.936   2.891   7.855  1.00  0.00     0.209 HD
ENDBRANCH  39  40
ENDBRANCH  36  39
BRANCH  36  42
HETATM   42  O4  UNL     1     -10.734  -0.333   6.666  1.00  0.00    -0.267 OA
BRANCH  42  43
HETATM   43  C9  UNL     1      -9.893  -1.387   6.371  1.00  0.00     0.269 C 
BRANCH  43  44
HETATM   44  N4  UNL     1     -10.376  -2.296   5.685  1.00  0.00    -0.359 N 
ATOM     45  H42 UNL     1     -11.169  -2.866   5.979  1.00  0.00     0.160 HD
ATOM     46  H41 UNL     1      -9.933  -2.462   4.781  1.00  0.00     0.160 HD
ENDBRANCH  43  44
BRANCH  43  47
HETATM   47  O5  UNL     1      -8.566  -1.384   6.841  1.00  0.00    -0.225 OA
BRANCH  47  48
HETATM   48  C10 UNL     1      -8.054  -2.371   7.636  1.00  0.00     0.380 C 
HETATM   49  N5  UNL     1      -6.644  -2.477   7.896  1.00  0.00    -0.032 NA
HETATM   50  O6  UNL     1      -8.794  -3.228   8.172  1.00  0.00    -0.242 OA
ENDBRANCH  47  48
ENDBRANCH  43  47
ENDBRANCH  42  43
ENDBRANCH  36  42
ENDBRANCH  33  36
ENDBRANCH   1  32
BRANCH   1  51
HETATM   51  C11 UNL     1     -10.979   0.469  12.101  1.00  0.00     0.059 A 
HETATM   52  C12 UNL     1     -11.028   0.356  13.466  1.00  0.00     0.103 A 
HETATM   53  C13 UNL     1     -10.749   1.442  14.259  1.00  0.00     0.261 A 
HETATM   54  O7  UNL     1     -10.783   1.380  15.533  1.00  0.00    -0.268 OA
HETATM   55  N6  UNL     1     -10.428   2.614  13.680  1.00  0.00    -0.156 N 
HETATM   56  C14 UNL     1     -10.374   2.749  12.327  1.00  0.00     0.679 A 
ATOM     57  H6  UNL     1     -10.220   3.421  14.270  1.00  0.00     0.187 HD
HETATM   58  N8  UNL     1     -10.653   1.665  11.582  1.00  0.00    -0.193 N 
ATOM     59  H8  UNL     1     -10.616   1.755  10.567  1.00  0.00     0.184 HD
BRANCH  56  60
HETATM   60  N7  UNL     1     -10.064   3.883  11.842  1.00  0.00    -0.234 N 
ATOM     61  H72 UNL     1      -9.269   4.439  12.157  1.00  0.00     0.174 HD
ATOM     62  H71 UNL     1     -10.640   4.267  11.093  1.00  0.00     0.174 HD
ENDBRANCH  56  60
ENDBRANCH   1  51
TORSDOF 18
ENDMDL
