MODEL 1
REMARK VINA RESULT: -7.075486962      0.000      0.000
REMARK  3 active torsions:
REMARK  status: ('A' for Active; 'I' for Inactive)
REMARK    1  A    between atoms: O1_2  and  C2_3 
REMARK    2  A    between atoms: C2_3  and  C3_5 
REMARK    3  A    between atoms: C3_5  and  N1_6 
ROOT
HETATM    1  N1  UNL     1      28.076  -0.472  15.769  1.00  0.00    -0.285 N 
ATOM      2  H1  UNL     1      27.973   0.525  15.957  1.00  0.00     0.175 HD
HETATM    3  C4  UNL     1      27.071  -1.354  16.167  1.00  0.00     0.180 C 
HETATM    4  N2  UNL     1      26.222  -2.084  16.519  1.00  0.00    -0.172 NA
ENDROOT
BRANCH   1   5
HETATM    5  C3  UNL     1      29.247  -0.948  15.101  1.00  0.00     0.257 C 
HETATM    6  C5  UNL     1      29.272  -0.525  13.674  1.00  0.00     0.244 C 
HETATM    7  O3  UNL     1      29.776   0.791  13.798  1.00  0.00    -0.350 OA
HETATM    8  C6  UNL     1      30.806   0.626  14.727  1.00  0.00     0.168 C 
HETATM    9  C7  UNL     1      32.040   0.158  13.995  1.00  0.00     0.068 C 
HETATM   10  C10 UNL     1      31.170   1.876  15.455  1.00  0.00     0.068 C 
HETATM   11  O4  UNL     1      30.386  -0.326  15.627  1.00  0.00    -0.313 OA
HETATM   12  C8  UNL     1      33.105   1.169  14.325  1.00  0.00     0.006 C 
HETATM   13  C9  UNL     1      32.432   2.411  14.805  1.00  0.00     0.006 C 
BRANCH   5  14
HETATM   14  C2  UNL     1      29.462  -2.406  15.289  1.00  0.00     0.318 C 
HETATM   15  O2  UNL     1      30.243  -2.738  16.217  1.00  0.00    -0.260 OA
BRANCH  14  16
HETATM   16  O1  UNL     1      28.859  -3.358  14.509  1.00  0.00    -0.323 OA
HETATM   17  C1  UNL     1      29.469  -4.628  14.348  1.00  0.00     0.213 C 
ENDBRANCH  14  16
ENDBRANCH   5  14
ENDBRANCH   1   5
TORSDOF 3
ENDMDL
MODEL 2
REMARK VINA RESULT: -6.604459008      5.936      8.035
REMARK  3 active torsions:
REMARK  status: ('A' for Active; 'I' for Inactive)
REMARK    1  A    between atoms: O1_2  and  C2_3 
REMARK    2  A    between atoms: C2_3  and  C3_5 
REMARK    3  A    between atoms: C3_5  and  N1_6 
ROOT
HETATM    1  N1  UNL     1      37.521  -1.399  13.542  1.00  0.00    -0.285 N 
ATOM      2  H1  UNL     1      37.326  -1.845  12.645  1.00  0.00     0.175 HD
HETATM    3  C4  UNL     1      38.340  -2.046  14.467  1.00  0.00     0.180 C 
HETATM    4  N2  UNL     1      39.023  -2.608  15.240  1.00  0.00    -0.172 NA
ENDROOT
BRANCH   1   5
HETATM    5  C3  UNL     1      36.953  -0.120  13.833  1.00  0.00     0.257 C 
HETATM    6  C5  UNL     1      36.625   0.628  12.590  1.00  0.00     0.244 C 
HETATM    7  O3  UNL     1      35.375   0.056  12.259  1.00  0.00    -0.350 OA
HETATM    8  C6  UNL     1      34.735   0.008  13.499  1.00  0.00     0.168 C 
HETATM    9  C7  UNL     1      34.113   1.356  13.769  1.00  0.00     0.068 C 
HETATM   10  C10 UNL     1      33.644  -1.007  13.579  1.00  0.00     0.068 C 
HETATM   11  O4  UNL     1      35.699  -0.278  14.437  1.00  0.00    -0.313 OA
HETATM   12  C8  UNL     1      32.652   1.080  14.002  1.00  0.00     0.006 C 
HETATM   13  C9  UNL     1      32.335  -0.258  13.422  1.00  0.00     0.006 C 
BRANCH   5  14
HETATM   14  C2  UNL     1      37.768   0.664  14.797  1.00  0.00     0.318 C 
HETATM   15  O2  UNL     1      37.373   0.661  15.991  1.00  0.00    -0.260 OA
BRANCH  14  16
HETATM   16  O1  UNL     1      38.889   1.362  14.434  1.00  0.00    -0.323 OA
HETATM   17  C1  UNL     1      40.170   0.889  14.817  1.00  0.00     0.213 C 
ENDBRANCH  14  16
ENDBRANCH   5  14
ENDBRANCH   1   5
TORSDOF 3
ENDMDL
MODEL 3
REMARK VINA RESULT: -6.509345867      3.237      4.767
REMARK  3 active torsions:
REMARK  status: ('A' for Active; 'I' for Inactive)
REMARK    1  A    between atoms: O1_2  and  C2_3 
REMARK    2  A    between atoms: C2_3  and  C3_5 
REMARK    3  A    between atoms: C3_5  and  N1_6 
ROOT
HETATM    1  N1  UNL     1      26.262  -4.710  13.350  1.00  0.00    -0.285 N 
ATOM      2  H1  UNL     1      25.747  -3.867  13.604  1.00  0.00     0.175 HD
HETATM    3  C4  UNL     1      25.786  -5.525  12.324  1.00  0.00     0.180 C 
HETATM    4  N2  UNL     1      25.365  -6.207  11.465  1.00  0.00    -0.172 NA
ENDROOT
BRANCH   1   5
HETATM    5  C3  UNL     1      27.464  -5.040  14.051  1.00  0.00     0.257 C 
HETATM    6  C5  UNL     1      28.650  -4.995  13.153  1.00  0.00     0.244 C 
HETATM    7  O3  UNL     1      28.931  -3.609  13.156  1.00  0.00    -0.350 OA
HETATM    8  C6  UNL     1      28.786  -3.281  14.505  1.00  0.00     0.168 C 
HETATM    9  C7  UNL     1      30.077  -3.604  15.217  1.00  0.00     0.068 C 
HETATM   10  C10 UNL     1      28.495  -1.839  14.750  1.00  0.00     0.068 C 
HETATM   11  O4  UNL     1      27.756  -4.049  14.996  1.00  0.00    -0.313 OA
HETATM   12  C8  UNL     1      30.506  -2.316  15.867  1.00  0.00     0.006 C 
HETATM   13  C9  UNL     1      29.797  -1.194  15.184  1.00  0.00     0.006 C 
BRANCH   5  14
HETATM   14  C2  UNL     1      27.352  -6.307  14.818  1.00  0.00     0.318 C 
HETATM   15  O2  UNL     1      26.361  -6.407  15.585  1.00  0.00    -0.260 OA
BRANCH  14  16
HETATM   16  O1  UNL     1      28.262  -7.326  14.717  1.00  0.00    -0.323 OA
HETATM   17  C1  UNL     1      29.334  -7.410  15.642  1.00  0.00     0.213 C 
ENDBRANCH  14  16
ENDBRANCH   5  14
ENDBRANCH   1   5
TORSDOF 3
ENDMDL
MODEL 4
REMARK VINA RESULT: -6.454957723      3.363      5.050
REMARK  3 active torsions:
REMARK  status: ('A' for Active; 'I' for Inactive)
REMARK    1  A    between atoms: O1_2  and  C2_3 
REMARK    2  A    between atoms: C2_3  and  C3_5 
REMARK    3  A    between atoms: C3_5  and  N1_6 
ROOT
HETATM    1  N1  UNL     1      26.359  -4.786  13.141  1.00  0.00    -0.285 N 
ATOM      2  H1  UNL     1      25.923  -3.867  13.207  1.00  0.00     0.175 HD
HETATM    3  C4  UNL     1      25.938  -5.677  12.154  1.00  0.00     0.180 C 
HETATM    4  N2  UNL     1      25.564  -6.420  11.324  1.00  0.00    -0.172 NA
ENDROOT
BRANCH   1   5
HETATM    5  C3  UNL     1      27.394  -5.145  14.059  1.00  0.00     0.257 C 
HETATM    6  C5  UNL     1      28.680  -5.408  13.358  1.00  0.00     0.244 C 
HETATM    7  O3  UNL     1      29.166  -4.090  13.196  1.00  0.00    -0.350 OA
HETATM    8  C6  UNL     1      28.898  -3.521  14.443  1.00  0.00     0.168 C 
HETATM    9  C7  UNL     1      30.020  -3.883  15.385  1.00  0.00     0.068 C 
HETATM   10  C10 UNL     1      28.801  -2.033  14.421  1.00  0.00     0.068 C 
HETATM   11  O4  UNL     1      27.708  -4.054  14.879  1.00  0.00    -0.313 OA
HETATM   12  C8  UNL     1      30.552  -2.569  15.893  1.00  0.00     0.006 C 
HETATM   13  C9  UNL     1      30.119  -1.498  14.948  1.00  0.00     0.006 C 
BRANCH   5  14
HETATM   14  C2  UNL     1      26.990  -6.238  14.981  1.00  0.00     0.318 C 
HETATM   15  O2  UNL     1      27.843  -7.140  15.183  1.00  0.00    -0.260 OA
BRANCH  14  16
HETATM   16  O1  UNL     1      25.764  -6.287  15.591  1.00  0.00    -0.323 OA
HETATM   17  C1  UNL     1      24.825  -7.279  15.209  1.00  0.00     0.213 C 
ENDBRANCH  14  16
ENDBRANCH   5  14
ENDBRANCH   1   5
TORSDOF 3
ENDMDL
MODEL 5
REMARK VINA RESULT: -6.386298334      3.662      5.122
REMARK  3 active torsions:
REMARK  status: ('A' for Active; 'I' for Inactive)
REMARK    1  A    between atoms: O1_2  and  C2_3 
REMARK    2  A    between atoms: C2_3  and  C3_5 
REMARK    3  A    between atoms: C3_5  and  N1_6 
ROOT
HETATM    1  N1  UNL     1      25.518  -4.796  12.914  1.00  0.00    -0.285 N 
ATOM      2  H1  UNL     1      24.792  -4.081  12.867  1.00  0.00     0.175 HD
HETATM    3  C4  UNL     1      25.493  -5.863  12.017  1.00  0.00     0.180 C 
HETATM    4  N2  UNL     1      25.451  -6.761  11.261  1.00  0.00    -0.172 NA
ENDROOT
BRANCH   1   5
HETATM    5  C3  UNL     1      26.549  -4.692  13.900  1.00  0.00     0.257 C 
HETATM    6  C5  UNL     1      27.900  -4.674  13.278  1.00  0.00     0.244 C 
HETATM    7  O3  UNL     1      28.002  -3.313  12.907  1.00  0.00    -0.350 OA
HETATM    8  C6  UNL     1      27.501  -2.661  14.035  1.00  0.00     0.168 C 
HETATM    9  C7  UNL     1      28.613  -2.531  15.047  1.00  0.00     0.068 C 
HETATM   10  C10 UNL     1      26.987  -1.288  13.763  1.00  0.00     0.068 C 
HETATM   11  O4  UNL     1      26.484  -3.444  14.532  1.00  0.00    -0.313 OA
HETATM   12  C8  UNL     1      28.715  -1.057  15.338  1.00  0.00     0.006 C 
HETATM   13  C9  UNL     1      28.060  -0.318  14.219  1.00  0.00     0.006 C 
BRANCH   5  14
HETATM   14  C2  UNL     1      26.410  -5.698  14.984  1.00  0.00     0.318 C 
HETATM   15  O2  UNL     1      25.432  -5.549  15.761  1.00  0.00    -0.260 OA
BRANCH  14  16
HETATM   16  O1  UNL     1      27.284  -6.740  15.154  1.00  0.00    -0.323 OA
HETATM   17  C1  UNL     1      27.103  -7.939  14.420  1.00  0.00     0.213 C 
ENDBRANCH  14  16
ENDBRANCH   5  14
ENDBRANCH   1   5
TORSDOF 3
ENDMDL
