MODEL 1
REMARK VINA RESULT: -6.265477189      0.000      0.000
REMARK  2 active torsions:
REMARK  status: ('A' for Active; 'I' for Inactive)
REMARK    1  A    between atoms: O1_2  and  C2_3 
REMARK    2  A    between atoms: C3_5  and  C5_8 
ROOT
HETATM    1  C2  UNL     1      27.297  -3.000  14.280  1.00  0.00     0.295 C 
HETATM    2  O2  UNL     1      26.412  -3.888  13.741  1.00  0.00    -0.322 OA
HETATM    3  C3  UNL     1      26.790  -5.185  13.613  1.00  0.00     0.266 C 
HETATM    4  C4  UNL     1      25.915  -5.787  12.573  1.00  0.00     0.111 C 
HETATM    5  N1  UNL     1      25.232  -6.239  11.755  1.00  0.00    -0.193 NA
HETATM    6  C6  UNL     1      28.209  -5.399  13.140  1.00  0.00     0.338 C 
HETATM    7  N2  UNL     1      28.772  -4.127  12.818  1.00  0.00     0.102 N 
HETATM    8  C7  UNL     1      30.130  -4.150  12.391  1.00  0.00     0.273 C 
HETATM    9  C8  UNL     1      30.691  -2.816  12.868  1.00  0.00     0.033 C 
HETATM   10  C9  UNL     1      29.585  -2.158  13.668  1.00  0.00     0.042 C 
HETATM   11  C10 UNL     1      28.748  -3.336  14.060  1.00  0.00     0.278 C 
ENDROOT
BRANCH   3  12
HETATM   12  C5  UNL     1      26.543  -6.000  14.839  1.00  0.00     0.226 C 
HETATM   13  O3  UNL     1      27.304  -6.960  15.122  1.00  0.00    -0.645 OA
HETATM   14  O4  UNL     1      25.490  -5.750  15.703  1.00  0.00    -0.645 OA
ENDBRANCH   3  12
BRANCH   1  15
HETATM   15  O1  UNL     1      26.980  -2.789  15.603  1.00  0.00    -0.364 OA
HETATM   16  C1  UNL     1      26.945  -1.434  15.921  1.00  0.00     0.204 C 
ENDBRANCH   1  15
TORSDOF 2
ENDMDL
MODEL 2
REMARK VINA RESULT: -6.246340723      2.463      3.322
REMARK  2 active torsions:
REMARK  status: ('A' for Active; 'I' for Inactive)
REMARK    1  A    between atoms: O1_2  and  C2_3 
REMARK    2  A    between atoms: C3_5  and  C5_8 
ROOT
HETATM    1  C2  UNL     1      28.807  -6.449  14.823  1.00  0.00     0.295 C 
HETATM    2  O2  UNL     1      27.640  -5.814  15.137  1.00  0.00    -0.322 OA
HETATM    3  C3  UNL     1      26.615  -5.864  14.248  1.00  0.00     0.266 C 
HETATM    4  C4  UNL     1      25.719  -4.721  14.561  1.00  0.00     0.111 C 
HETATM    5  N1  UNL     1      25.036  -3.821  14.811  1.00  0.00    -0.193 NA
HETATM    6  C6  UNL     1      27.011  -5.701  12.799  1.00  0.00     0.338 C 
HETATM    7  N2  UNL     1      28.405  -5.400  12.744  1.00  0.00     0.102 N 
HETATM    8  C7  UNL     1      28.949  -5.255  11.437  1.00  0.00     0.273 C 
HETATM    9  C8  UNL     1      30.389  -5.730  11.580  1.00  0.00     0.033 C 
HETATM   10  C9  UNL     1      30.523  -6.241  13.000  1.00  0.00     0.042 C 
HETATM   11  C10 UNL     1      29.101  -6.548  13.350  1.00  0.00     0.278 C 
ENDROOT
BRANCH   3  12
HETATM   12  C5  UNL     1      25.756  -7.076  14.399  1.00  0.00     0.226 C 
HETATM   13  O3  UNL     1      25.823  -8.005  13.555  1.00  0.00    -0.645 OA
HETATM   14  O4  UNL     1      24.864  -7.233  15.446  1.00  0.00    -0.645 OA
ENDBRANCH   3  12
BRANCH   1  15
HETATM   15  O1  UNL     1      28.852  -7.662  15.473  1.00  0.00    -0.364 OA
HETATM   16  C1  UNL     1      30.001  -7.796  16.248  1.00  0.00     0.204 C 
ENDBRANCH   1  15
TORSDOF 2
ENDMDL
MODEL 3
REMARK VINA RESULT: -6.119797300      1.662      1.977
REMARK  2 active torsions:
REMARK  status: ('A' for Active; 'I' for Inactive)
REMARK    1  A    between atoms: O1_2  and  C2_3 
REMARK    2  A    between atoms: C3_5  and  C5_8 
ROOT
HETATM    1  C2  UNL     1      26.555  -4.446  13.057  1.00  0.00     0.295 C 
HETATM    2  O2  UNL     1      26.121  -5.731  12.901  1.00  0.00    -0.322 OA
HETATM    3  C3  UNL     1      26.478  -6.654  13.830  1.00  0.00     0.266 C 
HETATM    4  C4  UNL     1      26.346  -7.986  13.185  1.00  0.00     0.111 C 
HETATM    5  N1  UNL     1      26.247  -9.016  12.666  1.00  0.00    -0.193 NA
HETATM    6  C6  UNL     1      27.907  -6.563  14.313  1.00  0.00     0.338 C 
HETATM    7  N2  UNL     1      28.579  -5.565  13.545  1.00  0.00     0.102 N 
HETATM    8  C7  UNL     1      29.934  -5.325  13.906  1.00  0.00     0.273 C 
HETATM    9  C8  UNL     1      30.147  -3.850  13.589  1.00  0.00     0.033 C 
HETATM   10  C9  UNL     1      28.796  -3.314  13.162  1.00  0.00     0.042 C 
HETATM   11  C10 UNL     1      27.862  -4.301  13.789  1.00  0.00     0.278 C 
ENDROOT
BRANCH   3  12
HETATM   12  C5  UNL     1      25.555  -6.704  15.003  1.00  0.00     0.226 C 
HETATM   13  O3  UNL     1      25.815  -6.039  16.038  1.00  0.00    -0.645 OA
HETATM   14  O4  UNL     1      24.400  -7.467  15.012  1.00  0.00    -0.645 OA
ENDBRANCH   3  12
BRANCH   1  15
HETATM   15  O1  UNL     1      25.540  -3.687  13.595  1.00  0.00    -0.364 OA
HETATM   16  C1  UNL     1      25.934  -3.046  14.766  1.00  0.00     0.204 C 
ENDBRANCH   1  15
TORSDOF 2
ENDMDL
MODEL 4
REMARK VINA RESULT: -6.112962453      2.283      3.633
REMARK  2 active torsions:
REMARK  status: ('A' for Active; 'I' for Inactive)
REMARK    1  A    between atoms: O1_2  and  C2_3 
REMARK    2  A    between atoms: C3_5  and  C5_8 
ROOT
HETATM    1  C2  UNL     1      28.169  -6.055  14.709  1.00  0.00     0.295 C 
HETATM    2  O2  UNL     1      27.102  -6.851  15.011  1.00  0.00    -0.322 OA
HETATM    3  C3  UNL     1      25.982  -6.752  14.249  1.00  0.00     0.266 C 
HETATM    4  C4  UNL     1      24.860  -7.289  15.063  1.00  0.00     0.111 C 
HETATM    5  N1  UNL     1      23.996  -7.701  15.712  1.00  0.00    -0.193 NA
HETATM    6  C6  UNL     1      25.586  -5.345  13.866  1.00  0.00     0.338 C 
HETATM    7  N2  UNL     1      26.458  -4.434  14.535  1.00  0.00     0.102 N 
HETATM    8  C7  UNL     1      26.242  -3.057  14.247  1.00  0.00     0.273 C 
HETATM    9  C8  UNL     1      27.626  -2.432  14.368  1.00  0.00     0.033 C 
HETATM   10  C9  UNL     1      28.585  -3.579  14.614  1.00  0.00     0.042 C 
HETATM   11  C10 UNL     1      27.819  -4.741  14.063  1.00  0.00     0.278 C 
ENDROOT
BRANCH   3  12
HETATM   12  C5  UNL     1      26.015  -7.612  13.029  1.00  0.00     0.226 C 
HETATM   13  O3  UNL     1      25.544  -7.186  11.945  1.00  0.00    -0.645 OA
HETATM   14  O4  UNL     1      26.549  -8.890  13.030  1.00  0.00    -0.645 OA
ENDBRANCH   3  12
BRANCH   1  15
HETATM   15  O1  UNL     1      29.092  -6.786  13.995  1.00  0.00    -0.364 OA
HETATM   16  C1  UNL     1      30.286  -6.943  14.694  1.00  0.00     0.204 C 
ENDBRANCH   1  15
TORSDOF 2
ENDMDL
MODEL 5
REMARK VINA RESULT: -6.053197445      2.215      3.572
REMARK  2 active torsions:
REMARK  status: ('A' for Active; 'I' for Inactive)
REMARK    1  A    between atoms: O1_2  and  C2_3 
REMARK    2  A    between atoms: C3_5  and  C5_8 
ROOT
HETATM    1  C2  UNL     1      28.469  -5.662  13.276  1.00  0.00     0.295 C 
HETATM    2  O2  UNL     1      27.527  -6.455  13.866  1.00  0.00    -0.322 OA
HETATM    3  C3  UNL     1      26.237  -6.342  13.459  1.00  0.00     0.266 C 
HETATM    4  C4  UNL     1      25.391  -6.880  14.557  1.00  0.00     0.111 C 
HETATM    5  N1  UNL     1      24.746  -7.293  15.424  1.00  0.00    -0.193 NA
HETATM    6  C6  UNL     1      25.759  -4.929  13.217  1.00  0.00     0.338 C 
HETATM    7  N2  UNL     1      26.794  -4.030  13.614  1.00  0.00     0.102 N 
HETATM    8  C7  UNL     1      26.516  -2.649  13.410  1.00  0.00     0.273 C 
HETATM    9  C8  UNL     1      27.882  -2.032  13.134  1.00  0.00     0.033 C 
HETATM   10  C9  UNL     1      28.861  -3.188  13.085  1.00  0.00     0.042 C 
HETATM   11  C10 UNL     1      27.960  -4.340  12.768  1.00  0.00     0.278 C 
ENDROOT
BRANCH   3  12
HETATM   12  C5  UNL     1      25.910  -7.190  12.274  1.00  0.00     0.226 C 
HETATM   13  O3  UNL     1      25.582  -6.653  11.186  1.00  0.00    -0.645 OA
HETATM   14  O4  UNL     1      25.948  -8.574  12.313  1.00  0.00    -0.645 OA
ENDBRANCH   3  12
BRANCH   1  15
HETATM   15  O1  UNL     1      29.142  -6.392  12.321  1.00  0.00    -0.364 OA
HETATM   16  C1  UNL     1      30.512  -6.433  12.567  1.00  0.00     0.204 C 
ENDBRANCH   1  15
TORSDOF 2
ENDMDL
