MODEL 1
REMARK VINA RESULT: -7.761656650      0.000      0.000
REMARK  6 active torsions:
REMARK  status: ('A' for Active; 'I' for Inactive)
REMARK    1  A    between atoms: C2_2  and  C3_3 
REMARK    2  A    between atoms: N1_8  and  C8_9 
REMARK    3  A    between atoms: C8_9  and  C9_10 
REMARK       I    between atoms: C9_10  and  N2_12 
REMARK    4  A    between atoms: C12_15  and  C13_16 
REMARK    5  A    between atoms: C18_21  and  O2_22 
REMARK    6  A    between atoms: C18_21  and  C19_24 
ROOT
HETATM    1  C9  UNL     1      23.282   6.714  14.101  1.00  0.00     0.248 C 
HETATM    2  O1  UNL     1      22.546   7.631  14.522  1.00  0.00    -0.271 OA
HETATM    3  N2  UNL     1      23.184   6.347  12.732  1.00  0.00    -0.345 N 
HETATM    4  C10 UNL     1      23.961   5.317  12.120  1.00  0.00     0.127 C 
HETATM    5  C11 UNL     1      23.293   5.021  10.812  1.00  0.00     0.035 C 
HETATM    6  C12 UNL     1      22.204   6.057  10.597  1.00  0.00     0.016 C 
HETATM    7  C16 UNL     1      22.304   6.948  11.762  1.00  0.00     0.102 C 
HETATM    8  C17 UNL     1      22.932   7.993  10.888  1.00  0.00     0.065 C 
HETATM    9  C18 UNL     1      22.467   7.178   9.682  1.00  0.00     0.073 C 
ENDROOT
BRANCH   1  10
HETATM   10  C8  UNL     1      24.228   6.031  15.004  1.00  0.00     0.375 C 
BRANCH  10  11
HETATM   11  N1  UNL     1      24.145   6.478  16.373  1.00  0.00     0.101 N 
HETATM   12  C3  UNL     1      25.341   7.123  16.832  1.00  0.00     0.223 C 
HETATM   13  C4  UNL     1      25.275   7.526  18.288  1.00  0.00     0.036 C 
HETATM   14  C5  UNL     1      24.639   6.521  19.184  1.00  0.00     0.004 C 
HETATM   15  C6  UNL     1      24.627   5.206  18.435  1.00  0.00     0.030 C 
HETATM   16  C7  UNL     1      23.706   5.412  17.252  1.00  0.00     0.273 C 
BRANCH  12  17
HETATM   17  C2  UNL     1      25.518   8.448  16.078  1.00  0.00     0.031 C 
HETATM   18  C1  UNL     1      24.389   9.360  16.595  1.00  0.00     0.007 C 
ENDBRANCH  12  17
ENDBRANCH  10  11
ENDBRANCH   1  10
BRANCH   6  19
HETATM   19  C13 UNL     1      20.863   5.389  10.371  1.00  0.00    -0.009 C 
HETATM   20  C14 UNL     1      20.048   4.994  11.509  1.00  0.00     0.010 C 
HETATM   21  C15 UNL     1      21.104   4.235   9.426  1.00  0.00     0.010 C 
ENDBRANCH   6  19
BRANCH   9  22
HETATM   22  O2  UNL     1      21.269   7.756   9.199  1.00  0.00    -0.389 OA
ATOM     23  H2  UNL     1      21.231   8.689   9.374  1.00  0.00     0.210 HD
ENDBRANCH   9  22
BRANCH   9  24
HETATM   24  C19 UNL     1      23.460   7.076   8.586  1.00  0.00     0.024 C 
HETATM   25  C20 UNL     1      24.803   7.630   8.717  1.00  0.00     0.035 C 
HETATM   26  C21 UNL     1      25.094   8.614   7.584  1.00  0.00     0.232 C 
HETATM   27  N3  UNL     1      25.030   7.918   6.326  1.00  0.00    -0.075 N 
HETATM   28  C22 UNL     1      23.711   7.353   6.095  1.00  0.00     0.232 C 
ATOM     29  H32 UNL     1      25.319   8.518   5.553  1.00  0.00     0.277 HD
ATOM     30  H31 UNL     1      25.758   7.207   6.255  1.00  0.00     0.277 HD
HETATM   31  C23 UNL     1      22.811   7.594   7.290  1.00  0.00     0.035 C 
ENDBRANCH   9  24
TORSDOF 6
ENDMDL
MODEL 2
REMARK VINA RESULT: -7.632422940      2.014      8.550
REMARK  6 active torsions:
REMARK  status: ('A' for Active; 'I' for Inactive)
REMARK    1  A    between atoms: C2_2  and  C3_3 
REMARK    2  A    between atoms: N1_8  and  C8_9 
REMARK    3  A    between atoms: C8_9  and  C9_10 
REMARK       I    between atoms: C9_10  and  N2_12 
REMARK    4  A    between atoms: C12_15  and  C13_16 
REMARK    5  A    between atoms: C18_21  and  O2_22 
REMARK    6  A    between atoms: C18_21  and  C19_24 
ROOT
HETATM    1  C9  UNL     1      22.074   5.688  13.232  1.00  0.00     0.248 C 
HETATM    2  O1  UNL     1      20.836   5.770  13.382  1.00  0.00    -0.271 OA
HETATM    3  N2  UNL     1      22.911   6.163  14.275  1.00  0.00    -0.345 N 
HETATM    4  C10 UNL     1      24.338   6.133  14.236  1.00  0.00     0.127 C 
HETATM    5  C11 UNL     1      24.798   7.043  15.334  1.00  0.00     0.035 C 
HETATM    6  C12 UNL     1      23.582   7.456  16.142  1.00  0.00     0.016 C 
HETATM    7  C16 UNL     1      22.461   6.737  15.519  1.00  0.00     0.102 C 
HETATM    8  C17 UNL     1      22.436   5.796  16.687  1.00  0.00     0.065 C 
HETATM    9  C18 UNL     1      23.330   6.789  17.429  1.00  0.00     0.073 C 
ENDROOT
BRANCH   1  10
HETATM   10  C8  UNL     1      22.647   5.111  12.002  1.00  0.00     0.375 C 
BRANCH  10  11
HETATM   11  N1  UNL     1      22.481   5.948  10.838  1.00  0.00     0.101 N 
HETATM   12  C3  UNL     1      22.592   5.229   9.602  1.00  0.00     0.223 C 
HETATM   13  C4  UNL     1      22.488   6.122   8.386  1.00  0.00     0.036 C 
HETATM   14  C5  UNL     1      23.209   7.419   8.503  1.00  0.00     0.004 C 
HETATM   15  C6  UNL     1      24.188   7.279   9.648  1.00  0.00     0.030 C 
HETATM   16  C7  UNL     1      23.345   7.110  10.895  1.00  0.00     0.273 C 
BRANCH  12  17
HETATM   17  C2  UNL     1      21.403   4.267   9.471  1.00  0.00     0.031 C 
HETATM   18  C1  UNL     1      21.062   4.252   7.968  1.00  0.00     0.007 C 
ENDBRANCH  12  17
ENDBRANCH  10  11
ENDBRANCH   1  10
BRANCH   6  19
HETATM   19  C13 UNL     1      23.465   8.965  16.205  1.00  0.00    -0.009 C 
HETATM   20  C14 UNL     1      22.747   9.682  15.163  1.00  0.00     0.010 C 
HETATM   21  C15 UNL     1      24.863   9.504  16.396  1.00  0.00     0.010 C 
ENDBRANCH   6  19
BRANCH   9  22
HETATM   22  O2  UNL     1      22.508   7.570  18.274  1.00  0.00    -0.389 OA
ATOM     23  H2  UNL     1      21.585   7.385  18.140  1.00  0.00     0.210 HD
ENDBRANCH   9  22
BRANCH   9  24
HETATM   24  C19 UNL     1      24.423   6.168  18.214  1.00  0.00     0.024 C 
HETATM   25  C20 UNL     1      24.206   4.963  19.006  1.00  0.00     0.035 C 
HETATM   26  C21 UNL     1      24.599   5.196  20.464  1.00  0.00     0.232 C 
HETATM   27  N3  UNL     1      26.002   5.515  20.530  1.00  0.00    -0.075 N 
HETATM   28  C22 UNL     1      26.309   6.726  19.788  1.00  0.00     0.232 C 
ATOM     29  H32 UNL     1      26.325   5.577  21.495  1.00  0.00     0.277 HD
ATOM     30  H31 UNL     1      26.577   4.731  20.221  1.00  0.00     0.277 HD
HETATM   31  C23 UNL     1      25.071   7.253  19.091  1.00  0.00     0.035 C 
ENDBRANCH   9  24
TORSDOF 6
ENDMDL
MODEL 3
REMARK VINA RESULT: -7.312303666      2.341      8.487
REMARK  6 active torsions:
REMARK  status: ('A' for Active; 'I' for Inactive)
REMARK    1  A    between atoms: C2_2  and  C3_3 
REMARK    2  A    between atoms: N1_8  and  C8_9 
REMARK    3  A    between atoms: C8_9  and  C9_10 
REMARK       I    between atoms: C9_10  and  N2_12 
REMARK    4  A    between atoms: C12_15  and  C13_16 
REMARK    5  A    between atoms: C18_21  and  O2_22 
REMARK    6  A    between atoms: C18_21  and  C19_24 
ROOT
HETATM    1  C9  UNL     1      21.198   5.774  13.327  1.00  0.00     0.248 C 
HETATM    2  O1  UNL     1      20.216   6.531  13.480  1.00  0.00    -0.271 OA
HETATM    3  N2  UNL     1      22.322   5.951  14.177  1.00  0.00    -0.345 N 
HETATM    4  C10 UNL     1      23.509   5.160  14.112  1.00  0.00     0.127 C 
HETATM    5  C11 UNL     1      24.542   5.904  14.903  1.00  0.00     0.035 C 
HETATM    6  C12 UNL     1      23.854   7.066  15.595  1.00  0.00     0.016 C 
HETATM    7  C16 UNL     1      22.438   6.935  15.224  1.00  0.00     0.102 C 
HETATM    8  C17 UNL     1      22.138   6.438  16.607  1.00  0.00     0.065 C 
HETATM    9  C18 UNL     1      23.520   6.941  17.022  1.00  0.00     0.073 C 
ENDROOT
BRANCH   1  10
HETATM   10  C8  UNL     1      21.187   4.725  12.291  1.00  0.00     0.375 C 
BRANCH  10  11
HETATM   11  N1  UNL     1      21.172   5.242  10.944  1.00  0.00     0.101 N 
HETATM   12  C3  UNL     1      21.127   4.215   9.944  1.00  0.00     0.223 C 
HETATM   13  C4  UNL     1      21.184   4.759   8.534  1.00  0.00     0.036 C 
HETATM   14  C5  UNL     1      22.144   5.879   8.338  1.00  0.00     0.004 C 
HETATM   15  C6  UNL     1      23.091   5.862   9.518  1.00  0.00     0.030 C 
HETATM   16  C7  UNL     1      22.247   6.191  10.731  1.00  0.00     0.273 C 
BRANCH  12  17
HETATM   17  C2  UNL     1      19.772   3.498  10.021  1.00  0.00     0.031 C 
HETATM   18  C1  UNL     1      19.090   3.781   8.668  1.00  0.00     0.007 C 
ENDBRANCH  12  17
ENDBRANCH  10  11
ENDBRANCH   1  10
BRANCH   6  19
HETATM   19  C13 UNL     1      24.526   8.377  15.241  1.00  0.00    -0.009 C 
HETATM   20  C14 UNL     1      24.024   9.175  14.133  1.00  0.00     0.010 C 
HETATM   21  C15 UNL     1      26.002   8.086  15.099  1.00  0.00     0.010 C 
ENDBRANCH   6  19
BRANCH   9  22
HETATM   22  O2  UNL     1      23.359   8.204  17.638  1.00  0.00    -0.389 OA
ATOM     23  H2  UNL     1      22.858   8.801  17.095  1.00  0.00     0.210 HD
ENDBRANCH   9  22
BRANCH   9  24
HETATM   24  C19 UNL     1      24.264   6.027  17.922  1.00  0.00     0.024 C 
HETATM   25  C20 UNL     1      23.600   5.310  19.003  1.00  0.00     0.035 C 
HETATM   26  C21 UNL     1      24.271   5.609  20.343  1.00  0.00     0.232 C 
HETATM   27  N3  UNL     1      25.638   5.161  20.298  1.00  0.00    -0.075 N 
HETATM   28  C22 UNL     1      26.391   5.847  19.260  1.00  0.00     0.232 C 
ATOM     29  H32 UNL     1      26.090   5.251  21.207  1.00  0.00     0.277 HD
ATOM     30  H31 UNL     1      25.695   4.148  20.192  1.00  0.00     0.277 HD
HETATM   31  C23 UNL     1      25.489   6.777  18.474  1.00  0.00     0.035 C 
ENDBRANCH   9  24
TORSDOF 6
ENDMDL
MODEL 4
REMARK VINA RESULT: -7.292535830      2.502      3.606
REMARK  6 active torsions:
REMARK  status: ('A' for Active; 'I' for Inactive)
REMARK    1  A    between atoms: C2_2  and  C3_3 
REMARK    2  A    between atoms: N1_8  and  C8_9 
REMARK    3  A    between atoms: C8_9  and  C9_10 
REMARK       I    between atoms: C9_10  and  N2_12 
REMARK    4  A    between atoms: C12_15  and  C13_16 
REMARK    5  A    between atoms: C18_21  and  O2_22 
REMARK    6  A    between atoms: C18_21  and  C19_24 
ROOT
HETATM    1  C9  UNL     1      24.078   5.788  16.152  1.00  0.00     0.248 C 
HETATM    2  O1  UNL     1      25.322   5.713  16.072  1.00  0.00    -0.271 OA
HETATM    3  N2  UNL     1      23.347   6.109  14.978  1.00  0.00    -0.345 N 
HETATM    4  C10 UNL     1      21.925   6.229  14.926  1.00  0.00     0.127 C 
HETATM    5  C11 UNL     1      21.618   6.924  13.634  1.00  0.00     0.035 C 
HETATM    6  C12 UNL     1      22.908   7.031  12.842  1.00  0.00     0.016 C 
HETATM    7  C16 UNL     1      23.913   6.355  13.676  1.00  0.00     0.102 C 
HETATM    8  C17 UNL     1      23.887   5.189  12.733  1.00  0.00     0.065 C 
HETATM    9  C18 UNL     1      23.143   6.083  11.742  1.00  0.00     0.073 C 
ENDROOT
BRANCH   1  10
HETATM   10  C8  UNL     1      23.389   5.548  17.434  1.00  0.00     0.375 C 
BRANCH  10  11
HETATM   11  N1  UNL     1      24.085   6.090  18.575  1.00  0.00     0.101 N 
HETATM   12  C3  UNL     1      24.818   7.286  18.277  1.00  0.00     0.223 C 
HETATM   13  C4  UNL     1      25.603   7.810  19.458  1.00  0.00     0.036 C 
HETATM   14  C5  UNL     1      26.283   6.762  20.268  1.00  0.00     0.004 C 
HETATM   15  C6  UNL     1      26.333   5.511  19.419  1.00  0.00     0.030 C 
HETATM   16  C7  UNL     1      24.894   5.081  19.229  1.00  0.00     0.273 C 
BRANCH  12  17
HETATM   17  C2  UNL     1      23.829   8.412  17.946  1.00  0.00     0.031 C 
HETATM   18  C1  UNL     1      24.459   9.163  16.756  1.00  0.00     0.007 C 
ENDBRANCH  12  17
ENDBRANCH  10  11
ENDBRANCH   1  10
BRANCH   6  19
HETATM   19  C13 UNL     1      23.195   8.472  12.474  1.00  0.00    -0.009 C 
HETATM   20  C14 UNL     1      24.324   9.165  13.074  1.00  0.00     0.010 C 
HETATM   21  C15 UNL     1      21.905   9.236  12.662  1.00  0.00     0.010 C 
ENDBRANCH   6  19
BRANCH   9  22
HETATM   22  O2  UNL     1      24.083   6.579  10.810  1.00  0.00    -0.389 OA
ATOM     23  H2  UNL     1      24.769   5.947  10.627  1.00  0.00     0.210 HD
ENDBRANCH   9  22
BRANCH   9  24
HETATM   24  C19 UNL     1      22.024   5.418  11.032  1.00  0.00     0.024 C 
HETATM   25  C20 UNL     1      22.209   4.155  10.326  1.00  0.00     0.035 C 
HETATM   26  C21 UNL     1      21.782   4.285   8.865  1.00  0.00     0.232 C 
HETATM   27  N3  UNL     1      20.382   4.615   8.809  1.00  0.00    -0.075 N 
HETATM   28  C22 UNL     1      20.105   5.882   9.466  1.00  0.00     0.232 C 
ATOM     29  H32 UNL     1      20.036   4.610   7.850  1.00  0.00     0.277 HD
ATOM     30  H31 UNL     1      19.806   3.864   9.189  1.00  0.00     0.277 HD
HETATM   31  C23 UNL     1      21.366   6.444  10.092  1.00  0.00     0.035 C 
ENDBRANCH   9  24
TORSDOF 6
ENDMDL
MODEL 5
REMARK VINA RESULT: -7.254928467      1.731      7.765
REMARK  6 active torsions:
REMARK  status: ('A' for Active; 'I' for Inactive)
REMARK    1  A    between atoms: C2_2  and  C3_3 
REMARK    2  A    between atoms: N1_8  and  C8_9 
REMARK    3  A    between atoms: C8_9  and  C9_10 
REMARK       I    between atoms: C9_10  and  N2_12 
REMARK    4  A    between atoms: C12_15  and  C13_16 
REMARK    5  A    between atoms: C18_21  and  O2_22 
REMARK    6  A    between atoms: C18_21  and  C19_24 
ROOT
HETATM    1  C9  UNL     1      22.588   6.577   8.931  1.00  0.00     0.248 C 
HETATM    2  O1  UNL     1      22.663   5.365   8.640  1.00  0.00    -0.271 OA
HETATM    3  N2  UNL     1      22.302   6.929  10.277  1.00  0.00    -0.345 N 
HETATM    4  C10 UNL     1      22.186   8.272  10.748  1.00  0.00     0.127 C 
HETATM    5  C11 UNL     1      21.530   8.180  12.093  1.00  0.00     0.035 C 
HETATM    6  C12 UNL     1      21.444   6.713  12.473  1.00  0.00     0.016 C 
HETATM    7  C16 UNL     1      22.094   6.003  11.362  1.00  0.00     0.102 C 
HETATM    8  C17 UNL     1      23.288   5.760  12.237  1.00  0.00     0.065 C 
HETATM    9  C18 UNL     1      22.424   6.173  13.428  1.00  0.00     0.073 C 
ENDROOT
BRANCH   1  10
HETATM   10  C8  UNL     1      22.791   7.614   7.903  1.00  0.00     0.375 C 
BRANCH  10  11
HETATM   11  N1  UNL     1      23.890   7.335   7.010  1.00  0.00     0.101 N 
HETATM   12  C3  UNL     1      24.997   8.231   7.178  1.00  0.00     0.223 C 
HETATM   13  C4  UNL     1      26.117   7.980   6.193  1.00  0.00     0.036 C 
HETATM   14  C5  UNL     1      25.668   7.681   4.805  1.00  0.00     0.004 C 
HETATM   15  C6  UNL     1      24.229   8.136   4.698  1.00  0.00     0.030 C 
HETATM   16  C7  UNL     1      23.443   7.243   5.634  1.00  0.00     0.273 C 
BRANCH  12  17
HETATM   17  C2  UNL     1      25.638   7.986   8.552  1.00  0.00     0.031 C 
HETATM   18  C1  UNL     1      27.155   7.937   8.285  1.00  0.00     0.007 C 
ENDBRANCH  12  17
ENDBRANCH  10  11
ENDBRANCH   1  10
BRANCH   6  19
HETATM   19  C13 UNL     1      20.014   6.321  12.782  1.00  0.00    -0.009 C 
HETATM   20  C14 UNL     1      19.126   5.908  11.707  1.00  0.00     0.010 C 
HETATM   21  C15 UNL     1      19.420   7.443  13.600  1.00  0.00     0.010 C 
ENDBRANCH   6  19
BRANCH   9  22
HETATM   22  O2  UNL     1      21.954   4.996  14.056  1.00  0.00    -0.389 OA
ATOM     23  H2  UNL     1      22.552   4.267  13.935  1.00  0.00     0.210 HD
ENDBRANCH   9  22
BRANCH   9  24
HETATM   24  C19 UNL     1      23.111   7.038  14.417  1.00  0.00     0.024 C 
HETATM   25  C20 UNL     1      24.452   7.557  14.178  1.00  0.00     0.035 C 
HETATM   26  C21 UNL     1      25.395   7.163  15.314  1.00  0.00     0.232 C 
HETATM   27  N3  UNL     1      24.918   7.738  16.545  1.00  0.00    -0.075 N 
HETATM   28  C22 UNL     1      23.589   7.252  16.881  1.00  0.00     0.232 C 
ATOM     29  H32 UNL     1      25.575   7.583  17.308  1.00  0.00     0.277 HD
ATOM     30  H31 UNL     1      24.946   8.757  16.516  1.00  0.00     0.277 HD
HETATM   31  C23 UNL     1      23.062   6.343  15.789  1.00  0.00     0.035 C 
ENDBRANCH   9  24
TORSDOF 6
ENDMDL
