MODEL 1
REMARK VINA RESULT: -7.390016241      0.000      0.000
REMARK  8 active torsions:
REMARK  status: ('A' for Active; 'I' for Inactive)
REMARK    1  A    between atoms: C2_2  and  O1_3 
REMARK    2  A    between atoms: O1_3  and  C3_4 
REMARK       I    between atoms: C3_4  and  N1_6 
REMARK    3  A    between atoms: C6_9  and  N2_10 
REMARK    4  A    between atoms: N2_10  and  C7_12 
REMARK    5  A    between atoms: C7_12  and  N3_14 
REMARK    6  A    between atoms: N3_14  and  C8_16 
REMARK    7  A    between atoms: C8_16  and  C9_17 
REMARK    8  A    between atoms: C8_16  and  C12_20 
ROOT
HETATM    1  C7  UNL     1      23.318   5.734  15.885  1.00  0.00     0.172 C 
HETATM    2  S1  UNL     1      21.750   5.960  16.246  1.00  0.00    -0.041 SA
ENDROOT
BRANCH   1   3
HETATM    3  N2  UNL     1      24.153   5.232  16.911  1.00  0.00    -0.362 N 
ATOM      4  H2  UNL     1      24.832   4.512  16.666  1.00  0.00     0.162 HD
BRANCH   3   5
HETATM    5  C6  UNL     1      24.102   5.680  18.295  1.00  0.00     0.087 C 
HETATM    6  C5  UNL     1      25.171   4.926  19.043  1.00  0.00     0.045 C 
HETATM    7  C4  UNL     1      25.344   5.543  20.433  1.00  0.00     0.130 C 
HETATM    8  N1  UNL     1      25.917   6.850  20.168  1.00  0.00    -0.328 N 
HETATM    9  C3  UNL     1      27.183   7.182  20.728  1.00  0.00     0.362 C 
HETATM   10  C19 UNL     1      25.167   7.742  19.346  1.00  0.00     0.130 C 
HETATM   11  O2  UNL     1      27.683   8.327  20.495  1.00  0.00    -0.238 OA
HETATM   12  C18 UNL     1      24.209   7.159  18.401  1.00  0.00     0.045 C 
BRANCH   9  13
HETATM   13  O1  UNL     1      27.912   6.332  21.519  1.00  0.00    -0.304 OA
BRANCH  13  14
HETATM   14  C2  UNL     1      29.048   6.743  22.284  1.00  0.00     0.176 C 
HETATM   15  C1  UNL     1      28.801   6.650  23.752  1.00  0.00     0.034 C 
ENDBRANCH  13  14
ENDBRANCH   9  13
ENDBRANCH   3   5
ENDBRANCH   1   3
BRANCH   1  16
HETATM   16  N3  UNL     1      23.793   5.983  14.591  1.00  0.00    -0.338 N 
ATOM     17  H3  UNL     1      24.272   5.223  14.108  1.00  0.00     0.168 HD
BRANCH  16  18
HETATM   18  C8  UNL     1      23.654   7.239  13.892  1.00  0.00     0.025 C 
BRANCH  18  19
HETATM   19  C9  UNL     1      24.523   8.339  14.347  1.00  0.00     0.025 C 
HETATM   20  C10 UNL     1      23.908   9.250  15.391  1.00  0.00     0.016 C 
HETATM   21  C11 UNL     1      25.818   7.834  15.008  1.00  0.00     0.016 C 
ENDBRANCH  18  19
BRANCH  18  22
HETATM   22  C12 UNL     1      23.494   6.966  12.456  1.00  0.00     0.268 C 
HETATM   23  C13 UNL     1      23.494   5.487  12.081  1.00  0.00     0.042 C 
HETATM   24  C14 UNL     1      23.354   5.277  10.616  1.00  0.00     0.004 C 
HETATM   25  C15 UNL     1      23.318   6.456   9.746  1.00  0.00     0.030 C 
HETATM   26  C16 UNL     1      23.042   7.790  10.347  1.00  0.00     0.273 C 
HETATM   27  N4  UNL     1      22.489   7.617  11.710  1.00  0.00     0.094 N 
HETATM   28  C17 UNL     1      21.257   6.931  11.479  1.00  0.00     0.310 C 
ENDBRANCH  18  22
ENDBRANCH  16  18
ENDBRANCH   1  16
TORSDOF 8
ENDMDL
MODEL 2
REMARK VINA RESULT: -7.235653046      0.896      1.003
REMARK  8 active torsions:
REMARK  status: ('A' for Active; 'I' for Inactive)
REMARK    1  A    between atoms: C2_2  and  O1_3 
REMARK    2  A    between atoms: O1_3  and  C3_4 
REMARK       I    between atoms: C3_4  and  N1_6 
REMARK    3  A    between atoms: C6_9  and  N2_10 
REMARK    4  A    between atoms: N2_10  and  C7_12 
REMARK    5  A    between atoms: C7_12  and  N3_14 
REMARK    6  A    between atoms: N3_14  and  C8_16 
REMARK    7  A    between atoms: C8_16  and  C9_17 
REMARK    8  A    between atoms: C8_16  and  C12_20 
ROOT
HETATM    1  C7  UNL     1      23.437   5.789  15.809  1.00  0.00     0.172 C 
HETATM    2  S1  UNL     1      21.868   6.022  16.157  1.00  0.00    -0.041 SA
ENDROOT
BRANCH   1   3
HETATM    3  N2  UNL     1      24.264   5.291  16.844  1.00  0.00    -0.362 N 
ATOM      4  H2  UNL     1      24.958   4.584  16.604  1.00  0.00     0.162 HD
BRANCH   3   5
HETATM    5  C6  UNL     1      24.183   5.725  18.231  1.00  0.00     0.087 C 
HETATM    6  C5  UNL     1      25.235   4.963  18.995  1.00  0.00     0.045 C 
HETATM    7  C4  UNL     1      25.377   5.566  20.394  1.00  0.00     0.130 C 
HETATM    8  N1  UNL     1      25.957   6.875  20.154  1.00  0.00    -0.328 N 
HETATM    9  C3  UNL     1      27.211   7.199  20.746  1.00  0.00     0.362 C 
HETATM   10  C19 UNL     1      25.227   7.776  19.325  1.00  0.00     0.130 C 
HETATM   11  O2  UNL     1      27.717   8.346  20.535  1.00  0.00    -0.238 OA
HETATM   12  C18 UNL     1      24.289   7.203  18.354  1.00  0.00     0.045 C 
BRANCH   9  13
HETATM   13  O1  UNL     1      27.922   6.341  21.544  1.00  0.00    -0.304 OA
BRANCH  13  14
HETATM   14  C2  UNL     1      29.105   6.717  22.254  1.00  0.00     0.176 C 
HETATM   15  C1  UNL     1      28.909   6.684  23.731  1.00  0.00     0.034 C 
ENDBRANCH  13  14
ENDBRANCH   9  13
ENDBRANCH   3   5
ENDBRANCH   1   3
BRANCH   1  16
HETATM   16  N3  UNL     1      23.922   6.027  14.517  1.00  0.00    -0.338 N 
ATOM     17  H3  UNL     1      24.747   5.507  14.217  1.00  0.00     0.168 HD
BRANCH  16  18
HETATM   18  C8  UNL     1      23.339   6.957  13.579  1.00  0.00     0.025 C 
BRANCH  18  19
HETATM   19  C9  UNL     1      24.030   8.250  13.426  1.00  0.00     0.025 C 
HETATM   20  C10 UNL     1      23.126   9.467  13.471  1.00  0.00     0.016 C 
HETATM   21  C11 UNL     1      25.058   8.507  14.542  1.00  0.00     0.016 C 
ENDBRANCH  18  19
BRANCH  18  22
HETATM   22  C12 UNL     1      22.887   6.214  12.393  1.00  0.00     0.268 C 
HETATM   23  C13 UNL     1      23.319   4.751  12.352  1.00  0.00     0.042 C 
HETATM   24  C14 UNL     1      22.855   4.060  11.120  1.00  0.00     0.004 C 
HETATM   25  C15 UNL     1      22.146   4.848  10.108  1.00  0.00     0.030 C 
HETATM   26  C16 UNL     1      21.585   6.175  10.486  1.00  0.00     0.273 C 
HETATM   27  N4  UNL     1      21.547   6.297  11.962  1.00  0.00     0.094 N 
HETATM   28  C17 UNL     1      20.639   5.265  12.351  1.00  0.00     0.310 C 
ENDBRANCH  18  22
ENDBRANCH  16  18
ENDBRANCH   1  16
TORSDOF 8
ENDMDL
MODEL 3
REMARK VINA RESULT: -7.229810077      2.081      4.088
REMARK  8 active torsions:
REMARK  status: ('A' for Active; 'I' for Inactive)
REMARK    1  A    between atoms: C2_2  and  O1_3 
REMARK    2  A    between atoms: O1_3  and  C3_4 
REMARK       I    between atoms: C3_4  and  N1_6 
REMARK    3  A    between atoms: C6_9  and  N2_10 
REMARK    4  A    between atoms: N2_10  and  C7_12 
REMARK    5  A    between atoms: C7_12  and  N3_14 
REMARK    6  A    between atoms: N3_14  and  C8_16 
REMARK    7  A    between atoms: C8_16  and  C9_17 
REMARK    8  A    between atoms: C8_16  and  C12_20 
ROOT
HETATM    1  C7  UNL     1      22.828   8.653  12.611  1.00  0.00     0.172 C 
HETATM    2  S1  UNL     1      21.322   9.231  12.414  1.00  0.00    -0.041 SA
ENDROOT
BRANCH   1   3
HETATM    3  N2  UNL     1      23.410   8.788  13.893  1.00  0.00    -0.362 N 
ATOM      4  H2  UNL     1      23.419   9.714  14.321  1.00  0.00     0.162 HD
BRANCH   3   5
HETATM    5  C6  UNL     1      23.999   7.686  14.640  1.00  0.00     0.087 C 
HETATM    6  C5  UNL     1      25.023   8.281  15.572  1.00  0.00     0.045 C 
HETATM    7  C4  UNL     1      25.483   7.211  16.565  1.00  0.00     0.130 C 
HETATM    8  N1  UNL     1      24.313   6.973  17.390  1.00  0.00    -0.328 N 
HETATM    9  C3  UNL     1      24.397   7.190  18.795  1.00  0.00     0.362 C 
HETATM   10  C19 UNL     1      23.125   6.531  16.736  1.00  0.00     0.130 C 
HETATM   11  O2  UNL     1      23.371   6.981  19.515  1.00  0.00    -0.238 OA
HETATM   12  C18 UNL     1      22.963   6.862  15.316  1.00  0.00     0.045 C 
BRANCH   9  13
HETATM   13  O1  UNL     1      25.532   7.616  19.434  1.00  0.00    -0.304 OA
BRANCH  13  14
HETATM   14  C2  UNL     1      26.389   6.751  20.184  1.00  0.00     0.176 C 
HETATM   15  C1  UNL     1      27.457   7.504  20.902  1.00  0.00     0.034 C 
ENDBRANCH  13  14
ENDBRANCH   9  13
ENDBRANCH   3   5
ENDBRANCH   1   3
BRANCH   1  16
HETATM   16  N3  UNL     1      23.485   8.006  11.556  1.00  0.00    -0.338 N 
ATOM     17  H3  UNL     1      24.504   7.973  11.583  1.00  0.00     0.168 HD
BRANCH  16  18
HETATM   18  C8  UNL     1      22.822   7.383  10.435  1.00  0.00     0.025 C 
BRANCH  18  19
HETATM   19  C9  UNL     1      23.313   7.758   9.097  1.00  0.00     0.025 C 
HETATM   20  C10 UNL     1      24.821   7.748   8.942  1.00  0.00     0.016 C 
HETATM   21  C11 UNL     1      22.817   6.804   7.997  1.00  0.00     0.016 C 
ENDBRANCH  18  19
BRANCH  18  22
HETATM   22  C12 UNL     1      22.565   5.972  10.761  1.00  0.00     0.268 C 
HETATM   23  C13 UNL     1      23.558   5.349  11.739  1.00  0.00     0.042 C 
HETATM   24  C14 UNL     1      23.260   3.918  12.009  1.00  0.00     0.004 C 
HETATM   25  C15 UNL     1      22.157   3.289  11.278  1.00  0.00     0.030 C 
HETATM   26  C16 UNL     1      21.152   4.153  10.600  1.00  0.00     0.273 C 
HETATM   27  N4  UNL     1      21.267   5.541  11.105  1.00  0.00     0.094 N 
HETATM   28  C17 UNL     1      20.934   5.413  12.489  1.00  0.00     0.310 C 
ENDBRANCH  18  22
ENDBRANCH  16  18
ENDBRANCH   1  16
TORSDOF 8
ENDMDL
MODEL 4
REMARK VINA RESULT: -7.161494978      1.659      2.168
REMARK  8 active torsions:
REMARK  status: ('A' for Active; 'I' for Inactive)
REMARK    1  A    between atoms: C2_2  and  O1_3 
REMARK    2  A    between atoms: O1_3  and  C3_4 
REMARK       I    between atoms: C3_4  and  N1_6 
REMARK    3  A    between atoms: C6_9  and  N2_10 
REMARK    4  A    between atoms: N2_10  and  C7_12 
REMARK    5  A    between atoms: C7_12  and  N3_14 
REMARK    6  A    between atoms: N3_14  and  C8_16 
REMARK    7  A    between atoms: C8_16  and  C9_17 
REMARK    8  A    between atoms: C8_16  and  C12_20 
ROOT
HETATM    1  C7  UNL     1      24.515   6.565  15.524  1.00  0.00     0.172 C 
HETATM    2  S1  UNL     1      25.942   7.309  15.302  1.00  0.00    -0.041 SA
ENDROOT
BRANCH   1   3
HETATM    3  N2  UNL     1      24.453   5.567  16.525  1.00  0.00    -0.362 N 
ATOM      4  H2  UNL     1      24.520   4.592  16.234  1.00  0.00     0.162 HD
BRANCH   3   5
HETATM    5  C6  UNL     1      24.298   5.847  17.945  1.00  0.00     0.087 C 
HETATM    6  C5  UNL     1      25.357   5.055  18.669  1.00  0.00     0.045 C 
HETATM    7  C4  UNL     1      25.416   5.510  20.129  1.00  0.00     0.130 C 
HETATM    8  N1  UNL     1      25.940   6.862  20.053  1.00  0.00    -0.328 N 
HETATM    9  C3  UNL     1      27.153   7.177  20.728  1.00  0.00     0.362 C 
HETATM   10  C19 UNL     1      25.198   7.813  19.292  1.00  0.00     0.130 C 
HETATM   11  O2  UNL     1      27.609   8.361  20.661  1.00  0.00    -0.238 OA
HETATM   12  C18 UNL     1      24.327   7.306  18.227  1.00  0.00     0.045 C 
BRANCH   9  13
HETATM   13  O1  UNL     1      27.875   6.271  21.462  1.00  0.00    -0.304 OA
BRANCH  13  14
HETATM   14  C2  UNL     1      29.104   6.586  22.119  1.00  0.00     0.176 C 
HETATM   15  C1  UNL     1      28.923   6.786  23.585  1.00  0.00     0.034 C 
ENDBRANCH  13  14
ENDBRANCH   9  13
ENDBRANCH   3   5
ENDBRANCH   1   3
BRANCH   1  16
HETATM   16  N3  UNL     1      23.391   6.947  14.780  1.00  0.00    -0.338 N 
ATOM     17  H3  UNL     1      23.388   7.883  14.373  1.00  0.00     0.168 HD
BRANCH  16  18
HETATM   18  C8  UNL     1      22.237   6.112  14.547  1.00  0.00     0.025 C 
BRANCH  18  19
HETATM   19  C9  UNL     1      20.949   6.622  15.053  1.00  0.00     0.025 C 
HETATM   20  C10 UNL     1      20.819   6.643  16.564  1.00  0.00     0.016 C 
HETATM   21  C11 UNL     1      20.685   8.078  14.635  1.00  0.00     0.016 C 
ENDBRANCH  18  19
BRANCH  18  22
HETATM   22  C12 UNL     1      22.328   5.542  13.194  1.00  0.00     0.268 C 
HETATM   23  C13 UNL     1      21.025   4.956  12.658  1.00  0.00     0.042 C 
HETATM   24  C14 UNL     1      21.187   4.374  11.299  1.00  0.00     0.004 C 
HETATM   25  C15 UNL     1      22.526   4.362  10.704  1.00  0.00     0.030 C 
HETATM   26  C16 UNL     1      23.581   5.241  11.279  1.00  0.00     0.273 C 
HETATM   27  N4  UNL     1      22.958   6.259  12.156  1.00  0.00     0.094 N 
HETATM   28  C17 UNL     1      22.144   7.012  11.254  1.00  0.00     0.310 C 
ENDBRANCH  18  22
ENDBRANCH  16  18
ENDBRANCH   1  16
TORSDOF 8
ENDMDL
MODEL 5
REMARK VINA RESULT: -7.112276159      1.685      2.895
REMARK  8 active torsions:
REMARK  status: ('A' for Active; 'I' for Inactive)
REMARK    1  A    between atoms: C2_2  and  O1_3 
REMARK    2  A    between atoms: O1_3  and  C3_4 
REMARK       I    between atoms: C3_4  and  N1_6 
REMARK    3  A    between atoms: C6_9  and  N2_10 
REMARK    4  A    between atoms: N2_10  and  C7_12 
REMARK    5  A    between atoms: C7_12  and  N3_14 
REMARK    6  A    between atoms: N3_14  and  C8_16 
REMARK    7  A    between atoms: C8_16  and  C9_17 
REMARK    8  A    between atoms: C8_16  and  C12_20 
ROOT
HETATM    1  C7  UNL     1      24.206   5.789  15.462  1.00  0.00     0.172 C 
HETATM    2  S1  UNL     1      25.083   7.051  14.936  1.00  0.00    -0.041 SA
ENDROOT
BRANCH   1   3
HETATM    3  N2  UNL     1      24.625   5.163  16.659  1.00  0.00    -0.362 N 
ATOM      4  H2  UNL     1      25.135   4.282  16.586  1.00  0.00     0.162 HD
BRANCH   3   5
HETATM    5  C6  UNL     1      24.373   5.696  17.989  1.00  0.00     0.087 C 
HETATM    6  C5  UNL     1      25.287   4.966  18.939  1.00  0.00     0.045 C 
HETATM    7  C4  UNL     1      25.260   5.664  20.301  1.00  0.00     0.130 C 
HETATM    8  N1  UNL     1      25.909   6.938  20.055  1.00  0.00    -0.328 N 
HETATM    9  C3  UNL     1      27.082   7.275  20.789  1.00  0.00     0.362 C 
HETATM   10  C19 UNL     1      25.326   7.795  19.075  1.00  0.00     0.130 C 
HETATM   11  O2  UNL     1      27.648   8.392  20.571  1.00  0.00    -0.238 OA
HETATM   12  C18 UNL     1      24.509   7.176  18.026  1.00  0.00     0.045 C 
BRANCH   9  13
HETATM   13  O1  UNL     1      27.651   6.460  21.732  1.00  0.00    -0.304 OA
BRANCH  13  14
HETATM   14  C2  UNL     1      28.967   6.655  22.257  1.00  0.00     0.176 C 
HETATM   15  C1  UNL     1      28.963   6.811  23.739  1.00  0.00     0.034 C 
ENDBRANCH  13  14
ENDBRANCH   9  13
ENDBRANCH   3   5
ENDBRANCH   1   3
BRANCH   1  16
HETATM   16  N3  UNL     1      23.054   5.387  14.772  1.00  0.00    -0.338 N 
ATOM     17  H3  UNL     1      22.367   4.831  15.282  1.00  0.00     0.168 HD
BRANCH  16  18
HETATM   18  C8  UNL     1      22.771   5.703  13.392  1.00  0.00     0.025 C 
BRANCH  18  19
HETATM   19  C9  UNL     1      23.443   4.867  12.381  1.00  0.00     0.025 C 
HETATM   20  C10 UNL     1      22.633   3.684  11.888  1.00  0.00     0.016 C 
HETATM   21  C11 UNL     1      23.781   5.649  11.099  1.00  0.00     0.016 C 
ENDBRANCH  18  19
BRANCH  18  22
HETATM   22  C12 UNL     1      21.340   6.017  13.262  1.00  0.00     0.268 C 
HETATM   23  C13 UNL     1      20.520   5.805  14.532  1.00  0.00     0.042 C 
HETATM   24  C14 UNL     1      19.080   6.115  14.330  1.00  0.00     0.004 C 
HETATM   25  C15 UNL     1      18.632   6.488  12.986  1.00  0.00     0.030 C 
HETATM   26  C16 UNL     1      19.642   6.910  11.977  1.00  0.00     0.273 C 
HETATM   27  N4  UNL     1      20.923   7.219  12.655  1.00  0.00     0.094 N 
HETATM   28  C17 UNL     1      20.589   8.328  13.492  1.00  0.00     0.310 C 
ENDBRANCH  18  22
ENDBRANCH  16  18
ENDBRANCH   1  16
TORSDOF 8
ENDMDL
