MODEL 1
REMARK VINA RESULT: -7.489509299      0.000      0.000
REMARK  7 active torsions:
REMARK  status: ('A' for Active; 'I' for Inactive)
REMARK    1  A    between atoms: C2_2  and  C3_3 
REMARK    2  A    between atoms: C3_3  and  O1_4 
REMARK    3  A    between atoms: C3_3  and  C4_6 
REMARK    4  A    between atoms: C4_6  and  N1_7 
REMARK    5  A    between atoms: N1_7  and  C5_9 
REMARK    6  A    between atoms: C5_9  and  C6_11 
REMARK    7  A    between atoms: C20_26  and  C21_27 
ROOT
HETATM    1  C6  UNL     1      24.575   6.989  15.645  1.00  0.00     0.035 C 
HETATM    2  C7  UNL     1      25.921   7.611  15.203  1.00  0.00     0.028 C 
HETATM    3  C8  UNL     1      24.661   5.661  14.942  1.00  0.00    -0.014 C 
HETATM    4  C9  UNL     1      24.761   5.423  13.520  1.00  0.00    -0.027 C 
HETATM    5  C10 UNL     1      23.596   4.847  12.693  1.00  0.00     0.059 C 
HETATM    6  C11 UNL     1      22.341   5.357  13.184  1.00  0.00     0.129 C 
HETATM    7  O2  UNL     1      21.106   5.436  12.804  1.00  0.00    -0.385 OA
HETATM    8  C12 UNL     1      20.561   6.063  14.002  1.00  0.00     0.174 C 
HETATM    9  C13 UNL     1      21.759   6.453  14.821  1.00  0.00     0.032 C 
HETATM   10  C14 UNL     1      22.525   6.754  13.620  1.00  0.00     0.026 C 
HETATM   11  C15 UNL     1      21.724   7.979  13.312  1.00  0.00    -0.006 C 
HETATM   12  C16 UNL     1      22.803   9.113  13.157  1.00  0.00     0.006 C 
HETATM   13  C17 UNL     1      23.844   8.905  14.205  1.00  0.00     0.012 C 
HETATM   14  C18 UNL     1      23.531   7.988  15.404  1.00  0.00    -0.013 C 
HETATM   15  C19 UNL     1      23.570   9.043  16.519  1.00  0.00     0.018 C 
HETATM   16  C20 UNL     1      22.065   7.627  15.514  1.00  0.00     0.028 C 
HETATM   17  C22 UNL     1      21.179   8.531  14.621  1.00  0.00     0.023 C 
ENDROOT
BRANCH   1  18
HETATM   18  C5  UNL     1      24.852   6.598  17.063  1.00  0.00     0.086 C 
HETATM   19  S1  UNL     1      24.068   5.184  17.608  1.00  0.00    -0.065 SA
BRANCH  18  20
HETATM   20  N1  UNL     1      25.647   7.138  18.051  1.00  0.00    -0.381 N 
ATOM     21  H1  UNL     1      26.613   7.228  17.737  1.00  0.00     0.160 HD
BRANCH  20  22
HETATM   22  C4  UNL     1      25.498   7.599  19.376  1.00  0.00     0.151 C 
BRANCH  22  23
HETATM   23  C3  UNL     1      26.409   6.872  20.382  1.00  0.00     0.135 C 
BRANCH  23  24
HETATM   24  C2  UNL     1      27.510   7.802  20.840  1.00  0.00     0.029 C 
HETATM   25  C1  UNL     1      28.525   7.064  21.697  1.00  0.00     0.007 C 
ENDBRANCH  23  24
BRANCH  23  26
HETATM   26  O1  UNL     1      26.992   5.842  19.650  1.00  0.00    -0.394 OA
ATOM     27  H1  UNL     1      26.303   5.391  19.177  1.00  0.00     0.210 HD
ENDBRANCH  23  26
ENDBRANCH  22  23
ENDBRANCH  20  22
ENDBRANCH  18  20
ENDBRANCH   1  18
BRANCH  16  28
HETATM   28  C21 UNL     1      21.432   7.625  16.829  1.00  0.00     0.242 C 
HETATM   29  O3  UNL     1      20.739   6.744  17.295  1.00  0.00    -0.306 OA
ENDBRANCH  16  28
TORSDOF 7
ENDMDL
MODEL 2
REMARK VINA RESULT: -7.412453555      2.864      6.307
REMARK  7 active torsions:
REMARK  status: ('A' for Active; 'I' for Inactive)
REMARK    1  A    between atoms: C2_2  and  C3_3 
REMARK    2  A    between atoms: C3_3  and  O1_4 
REMARK    3  A    between atoms: C3_3  and  C4_6 
REMARK    4  A    between atoms: C4_6  and  N1_7 
REMARK    5  A    between atoms: N1_7  and  C5_9 
REMARK    6  A    between atoms: C5_9  and  C6_11 
REMARK    7  A    between atoms: C20_26  and  C21_27 
ROOT
HETATM    1  C6  UNL     1      21.725   7.615  14.846  1.00  0.00     0.035 C 
HETATM    2  C7  UNL     1      21.039   8.996  14.727  1.00  0.00     0.028 C 
HETATM    3  C8  UNL     1      20.904   7.014  15.955  1.00  0.00    -0.014 C 
HETATM    4  C9  UNL     1      20.759   7.504  17.307  1.00  0.00    -0.027 C 
HETATM    5  C10 UNL     1      21.397   6.796  18.518  1.00  0.00     0.059 C 
HETATM    6  C11 UNL     1      22.680   6.251  18.153  1.00  0.00     0.129 C 
HETATM    7  O2  UNL     1      23.738   5.780  18.731  1.00  0.00    -0.385 OA
HETATM    8  C12 UNL     1      24.484   5.415  17.532  1.00  0.00     0.174 C 
HETATM    9  C13 UNL     1      23.710   6.013  16.392  1.00  0.00     0.032 C 
HETATM   10  C14 UNL     1      23.339   7.165  17.201  1.00  0.00     0.026 C 
HETATM   11  C15 UNL     1      24.727   7.723  17.196  1.00  0.00    -0.006 C 
HETATM   12  C16 UNL     1      24.544   9.199  16.684  1.00  0.00     0.006 C 
HETATM   13  C17 UNL     1      23.528   9.186  15.592  1.00  0.00     0.012 C 
HETATM   14  C18 UNL     1      23.170   7.848  14.916  1.00  0.00    -0.013 C 
HETATM   15  C19 UNL     1      23.705   8.149  13.509  1.00  0.00     0.018 C 
HETATM   16  C20 UNL     1      24.125   6.726  15.264  1.00  0.00     0.028 C 
HETATM   17  C22 UNL     1      25.422   7.257  15.925  1.00  0.00     0.023 C 
ENDROOT
BRANCH   1  18
HETATM   18  C5  UNL     1      21.193   6.888  13.650  1.00  0.00     0.086 C 
HETATM   19  S1  UNL     1      20.377   7.850  12.502  1.00  0.00    -0.065 SA
BRANCH  18  20
HETATM   20  N1  UNL     1      21.241   5.570  13.250  1.00  0.00    -0.381 N 
ATOM     21  H1  UNL     1      21.391   4.949  14.045  1.00  0.00     0.160 HD
BRANCH  20  22
HETATM   22  C4  UNL     1      21.142   4.840  12.047  1.00  0.00     0.151 C 
BRANCH  22  23
HETATM   23  C3  UNL     1      22.508   4.416  11.476  1.00  0.00     0.135 C 
BRANCH  23  24
HETATM   24  C2  UNL     1      22.767   5.142  10.175  1.00  0.00     0.029 C 
HETATM   25  C1  UNL     1      23.741   6.290  10.377  1.00  0.00     0.007 C 
ENDBRANCH  23  24
BRANCH  23  26
HETATM   26  O1  UNL     1      22.367   3.061  11.193  1.00  0.00    -0.394 OA
ATOM     27  H1  UNL     1      21.864   2.665  11.895  1.00  0.00     0.210 HD
ENDBRANCH  23  26
ENDBRANCH  22  23
ENDBRANCH  20  22
ENDBRANCH  18  20
ENDBRANCH   1  18
BRANCH  16  28
HETATM   28  C21 UNL     1      24.560   5.813  14.212  1.00  0.00     0.242 C 
HETATM   29  O3  UNL     1      25.689   5.404  14.034  1.00  0.00    -0.306 OA
ENDBRANCH  16  28
TORSDOF 7
ENDMDL
MODEL 3
REMARK VINA RESULT: -7.299968531      4.408      7.463
REMARK  7 active torsions:
REMARK  status: ('A' for Active; 'I' for Inactive)
REMARK    1  A    between atoms: C2_2  and  C3_3 
REMARK    2  A    between atoms: C3_3  and  O1_4 
REMARK    3  A    between atoms: C3_3  and  C4_6 
REMARK    4  A    between atoms: C4_6  and  N1_7 
REMARK    5  A    between atoms: N1_7  and  C5_9 
REMARK    6  A    between atoms: C5_9  and  C6_11 
REMARK    7  A    between atoms: C20_26  and  C21_27 
ROOT
HETATM    1  C6  UNL     1      22.245   5.503  10.859  1.00  0.00     0.035 C 
HETATM    2  C7  UNL     1      21.787   4.034  10.707  1.00  0.00     0.028 C 
HETATM    3  C8  UNL     1      23.655   5.287  11.339  1.00  0.00    -0.014 C 
HETATM    4  C9  UNL     1      24.080   4.612  12.545  1.00  0.00    -0.027 C 
HETATM    5  C10 UNL     1      24.668   5.365  13.753  1.00  0.00     0.059 C 
HETATM    6  C11 UNL     1      24.007   6.636  13.913  1.00  0.00     0.129 C 
HETATM    7  O2  UNL     1      23.885   7.564  14.807  1.00  0.00    -0.385 OA
HETATM    8  C12 UNL     1      23.070   8.492  14.031  1.00  0.00     0.174 C 
HETATM    9  C13 UNL     1      22.669   7.728  12.801  1.00  0.00     0.032 C 
HETATM   10  C14 UNL     1      22.583   6.487  13.556  1.00  0.00     0.026 C 
HETATM   11  C15 UNL     1      21.351   6.918  14.287  1.00  0.00    -0.006 C 
HETATM   12  C16 UNL     1      20.330   5.747  14.039  1.00  0.00     0.006 C 
HETATM   13  C17 UNL     1      20.480   5.296  12.625  1.00  0.00     0.012 C 
HETATM   14  C18 UNL     1      21.209   6.208  11.619  1.00  0.00    -0.013 C 
HETATM   15  C19 UNL     1      20.026   6.525  10.693  1.00  0.00     0.018 C 
HETATM   16  C20 UNL     1      21.443   7.609  12.142  1.00  0.00     0.028 C 
HETATM   17  C22 UNL     1      20.596   7.902  13.407  1.00  0.00     0.023 C 
ENDROOT
BRANCH   1  18
HETATM   18  C5  UNL     1      22.471   5.918   9.439  1.00  0.00     0.086 C 
HETATM   19  S1  UNL     1      21.873   4.848   8.251  1.00  0.00    -0.065 SA
BRANCH  18  20
HETATM   20  N1  UNL     1      23.056   7.025   8.862  1.00  0.00    -0.381 N 
ATOM     21  H1  UNL     1      23.908   7.290   9.355  1.00  0.00     0.160 HD
BRANCH  20  22
HETATM   22  C4  UNL     1      22.803   7.893   7.779  1.00  0.00     0.151 C 
BRANCH  22  23
HETATM   23  C3  UNL     1      24.080   8.332   7.038  1.00  0.00     0.135 C 
BRANCH  23  24
HETATM   24  C2  UNL     1      25.281   8.165   7.944  1.00  0.00     0.029 C 
HETATM   25  C1  UNL     1      26.534   7.873   7.137  1.00  0.00     0.007 C 
ENDBRANCH  23  24
BRANCH  23  26
HETATM   26  O1  UNL     1      23.903   9.692   6.804  1.00  0.00    -0.394 OA
ATOM     27  H1  UNL     1      23.321  10.032   7.474  1.00  0.00     0.210 HD
ENDBRANCH  23  26
ENDBRANCH  22  23
ENDBRANCH  20  22
ENDBRANCH  18  20
ENDBRANCH   1  18
BRANCH  16  28
HETATM   28  C21 UNL     1      21.229   8.744  11.249  1.00  0.00     0.242 C 
HETATM   29  O3  UNL     1      20.762   9.823  11.554  1.00  0.00    -0.306 OA
ENDBRANCH  16  28
TORSDOF 7
ENDMDL
MODEL 4
REMARK VINA RESULT: -7.227323686      2.637      3.836
REMARK  7 active torsions:
REMARK  status: ('A' for Active; 'I' for Inactive)
REMARK    1  A    between atoms: C2_2  and  C3_3 
REMARK    2  A    between atoms: C3_3  and  O1_4 
REMARK    3  A    between atoms: C3_3  and  C4_6 
REMARK    4  A    between atoms: C4_6  and  N1_7 
REMARK    5  A    between atoms: N1_7  and  C5_9 
REMARK    6  A    between atoms: C5_9  and  C6_11 
REMARK    7  A    between atoms: C20_26  and  C21_27 
ROOT
HETATM    1  C6  UNL     1      22.185   8.658  16.367  1.00  0.00     0.035 C 
HETATM    2  C7  UNL     1      22.168  10.195  16.542  1.00  0.00     0.028 C 
HETATM    3  C8  UNL     1      23.500   8.337  17.025  1.00  0.00    -0.014 C 
HETATM    4  C9  UNL     1      24.814   8.797  16.634  1.00  0.00    -0.027 C 
HETATM    5  C10 UNL     1      25.858   7.867  15.987  1.00  0.00     0.059 C 
HETATM    6  C11 UNL     1      25.207   6.925  15.111  1.00  0.00     0.129 C 
HETATM    7  O2  UNL     1      25.520   6.097  14.167  1.00  0.00    -0.385 OA
HETATM    8  C12 UNL     1      24.192   5.541  13.932  1.00  0.00     0.174 C 
HETATM    9  C13 UNL     1      23.257   6.411  14.722  1.00  0.00     0.032 C 
HETATM   10  C14 UNL     1      24.068   7.590  14.451  1.00  0.00     0.026 C 
HETATM   11  C15 UNL     1      23.674   7.632  13.008  1.00  0.00    -0.006 C 
HETATM   12  C16 UNL     1      23.144   9.098  12.800  1.00  0.00     0.006 C 
HETATM   13  C17 UNL     1      22.352   9.478  14.005  1.00  0.00     0.012 C 
HETATM   14  C18 UNL     1      21.868   8.373  14.965  1.00  0.00    -0.013 C 
HETATM   15  C19 UNL     1      20.356   8.522  14.745  1.00  0.00     0.018 C 
HETATM   16  C20 UNL     1      22.022   6.979  14.397  1.00  0.00     0.028 C 
HETATM   17  C22 UNL     1      22.296   7.003  12.873  1.00  0.00     0.023 C 
ENDROOT
BRANCH   1  18
HETATM   18  C5  UNL     1      21.209   8.205  17.408  1.00  0.00     0.086 C 
HETATM   19  S1  UNL     1      20.064   9.367  17.904  1.00  0.00    -0.065 SA
BRANCH  18  20
HETATM   20  N1  UNL     1      21.014   7.005  18.058  1.00  0.00    -0.381 N 
ATOM     21  H1  UNL     1      21.218   6.217  17.444  1.00  0.00     0.160 HD
BRANCH  20  22
HETATM   22  C4  UNL     1      20.609   6.564  19.335  1.00  0.00     0.151 C 
BRANCH  22  23
HETATM   23  C3  UNL     1      21.788   6.192  20.253  1.00  0.00     0.135 C 
BRANCH  23  24
HETATM   24  C2  UNL     1      22.959   5.721  19.419  1.00  0.00     0.029 C 
HETATM   25  C1  UNL     1      23.994   5.019  20.281  1.00  0.00     0.007 C 
ENDBRANCH  23  24
BRANCH  23  26
HETATM   26  O1  UNL     1      21.328   5.111  20.998  1.00  0.00    -0.394 OA
ATOM     27  H1  UNL     1      20.854   4.531  20.413  1.00  0.00     0.210 HD
ENDBRANCH  23  26
ENDBRANCH  22  23
ENDBRANCH  20  22
ENDBRANCH  18  20
ENDBRANCH   1  18
BRANCH  16  28
HETATM   28  C21 UNL     1      20.947   6.011  14.592  1.00  0.00     0.242 C 
HETATM   29  O3  UNL     1      20.776   5.310  15.568  1.00  0.00    -0.306 OA
ENDBRANCH  16  28
TORSDOF 7
ENDMDL
MODEL 5
REMARK VINA RESULT: -7.186526555      1.913      2.211
REMARK  7 active torsions:
REMARK  status: ('A' for Active; 'I' for Inactive)
REMARK    1  A    between atoms: C2_2  and  C3_3 
REMARK    2  A    between atoms: C3_3  and  O1_4 
REMARK    3  A    between atoms: C3_3  and  C4_6 
REMARK    4  A    between atoms: C4_6  and  N1_7 
REMARK    5  A    between atoms: N1_7  and  C5_9 
REMARK    6  A    between atoms: C5_9  and  C6_11 
REMARK    7  A    between atoms: C20_26  and  C21_27 
ROOT
HETATM    1  C6  UNL     1      24.153   7.067  15.405  1.00  0.00     0.035 C 
HETATM    2  C7  UNL     1      25.452   7.791  14.980  1.00  0.00     0.028 C 
HETATM    3  C8  UNL     1      24.395   5.717  14.786  1.00  0.00    -0.014 C 
HETATM    4  C9  UNL     1      24.579   5.411  13.386  1.00  0.00    -0.027 C 
HETATM    5  C10 UNL     1      23.511   4.682  12.550  1.00  0.00     0.059 C 
HETATM    6  C11 UNL     1      22.192   5.094  12.962  1.00  0.00     0.129 C 
HETATM    7  O2  UNL     1      20.974   5.032  12.530  1.00  0.00    -0.385 OA
HETATM    8  C12 UNL     1      20.320   5.669  13.667  1.00  0.00     0.174 C 
HETATM    9  C13 UNL     1      21.438   6.218  14.507  1.00  0.00     0.032 C 
HETATM   10  C14 UNL     1      22.225   6.524  13.321  1.00  0.00     0.026 C 
HETATM   11  C15 UNL     1      21.326   7.647  12.911  1.00  0.00    -0.006 C 
HETATM   12  C16 UNL     1      22.300   8.870  12.731  1.00  0.00     0.006 C 
HETATM   13  C17 UNL     1      23.309   8.821  13.828  1.00  0.00     0.012 C 
HETATM   14  C18 UNL     1      23.031   7.946  15.066  1.00  0.00    -0.013 C 
HETATM   15  C19 UNL     1      22.922   9.060  16.118  1.00  0.00     0.018 C 
HETATM   16  C20 UNL     1      21.603   7.452  15.141  1.00  0.00     0.028 C 
HETATM   17  C22 UNL     1      20.675   8.216  14.162  1.00  0.00     0.023 C 
ENDROOT
BRANCH   1  18
HETATM   18  C5  UNL     1      24.403   6.784  16.854  1.00  0.00     0.086 C 
HETATM   19  S1  UNL     1      25.484   7.845  17.640  1.00  0.00    -0.065 SA
BRANCH  18  20
HETATM   20  N1  UNL     1      23.916   5.835  17.726  1.00  0.00    -0.381 N 
ATOM     21  H1  UNL     1      22.915   5.691  17.593  1.00  0.00     0.160 HD
BRANCH  20  22
HETATM   22  C4  UNL     1      24.416   5.006  18.753  1.00  0.00     0.151 C 
BRANCH  22  23
HETATM   23  C3  UNL     1      23.535   5.001  20.016  1.00  0.00     0.135 C 
BRANCH  23  24
HETATM   24  C2  UNL     1      22.603   6.193  19.996  1.00  0.00     0.029 C 
HETATM   25  C1  UNL     1      21.257   5.841  20.606  1.00  0.00     0.007 C 
ENDBRANCH  23  24
BRANCH  23  26
HETATM   26  O1  UNL     1      24.428   5.170  21.069  1.00  0.00    -0.394 OA
ATOM     27  H1  UNL     1      24.417   4.378  21.594  1.00  0.00     0.210 HD
ENDBRANCH  23  26
ENDBRANCH  22  23
ENDBRANCH  20  22
ENDBRANCH  18  20
ENDBRANCH   1  18
BRANCH  16  28
HETATM   28  C21 UNL     1      20.915   7.461  16.429  1.00  0.00     0.242 C 
HETATM   29  O3  UNL     1      20.683   6.497  17.129  1.00  0.00    -0.306 OA
ENDBRANCH  16  28
TORSDOF 7
ENDMDL
