MODEL 1
REMARK VINA RESULT: -9.141154616      0.000      0.000
REMARK  6 active torsions:
REMARK  status: ('A' for Active; 'I' for Inactive)
REMARK    1  A    between atoms: S1_2  and  N1_4 
REMARK    2  A    between atoms: S1_2  and  C11_16 
REMARK    3  A    between atoms: N1_4  and  C1_6 
REMARK    4  A    between atoms: C14_19  and  C15_20 
REMARK    5  A    between atoms: C15_20  and  N2_21 
REMARK    6  A    between atoms: N2_21  and  C16_23 
ROOT
HETATM    1  C11 UNL     1      23.850   5.308  12.308  1.00  0.00     0.079 A 
HETATM    2  C12 UNL     1      23.857   6.150  11.199  1.00  0.00     0.026 A 
HETATM    3  C13 UNL     1      23.118   5.798  10.083  1.00  0.00     0.010 A 
HETATM    4  C14 UNL     1      22.366   4.620  10.046  1.00  0.00    -0.041 A 
HETATM    5  C21 UNL     1      22.369   3.796  11.131  1.00  0.00     0.010 A 
HETATM    6  C22 UNL     1      23.117   4.145  12.267  1.00  0.00     0.026 A 
ENDROOT
BRANCH   1   7
HETATM    7  S1  UNL     1      24.666   5.772  13.768  1.00  0.00     0.259 S 
HETATM    8  O1  UNL     1      26.115   5.249  13.728  1.00  0.00    -0.201 OA
HETATM    9  O2  UNL     1      24.884   7.291  13.670  1.00  0.00    -0.201 OA
BRANCH   7  10
HETATM   10  N1  UNL     1      23.919   5.428  15.201  1.00  0.00    -0.305 N 
ATOM     11  H1  UNL     1      23.317   4.605  15.241  1.00  0.00     0.173 HD
BRANCH  10  12
HETATM   12  C1  UNL     1      24.062   6.192  16.358  1.00  0.00     0.041 C 
HETATM   13  C2  UNL     1      22.811   6.970  16.721  1.00  0.00     0.036 C 
HETATM   14  C3  UNL     1      22.963   7.544  18.099  1.00  0.00    -0.012 C 
HETATM   15  C4  UNL     1      23.138   6.469  19.146  1.00  0.00     0.009 C 
HETATM   16  C8  UNL     1      24.118   8.505  18.085  1.00  0.00     0.009 C 
HETATM   17  C5  UNL     1      24.424   5.752  18.823  1.00  0.00    -0.012 C 
HETATM   18  C6  UNL     1      25.581   6.716  18.874  1.00  0.00     0.009 C 
HETATM   19  C10 UNL     1      24.317   5.142  17.474  1.00  0.00     0.036 C 
HETATM   20  C7  UNL     1      25.382   7.732  17.793  1.00  0.00    -0.012 C 
HETATM   21  C9  UNL     1      25.238   7.111  16.407  1.00  0.00     0.036 C 
ENDBRANCH  10  12
ENDBRANCH   7  10
ENDBRANCH   1   7
BRANCH   4  22
HETATM   22  C15 UNL     1      21.464   4.418   8.863  1.00  0.00     0.153 C 
BRANCH  22  23
HETATM   23  N2  UNL     1      22.087   5.034   7.721  1.00  0.00    -0.413 N 
ATOM     24  H2  UNL     1      23.077   4.884   7.528  1.00  0.00     0.153 HD
BRANCH  23  25
HETATM   25  C16 UNL     1      21.319   5.833   6.888  1.00  0.00     0.080 C 
HETATM   26  C17 UNL     1      21.752   5.717   5.436  1.00  0.00     0.051 C 
HETATM   27  C18 UNL     1      23.041   6.484   5.300  1.00  0.00     0.169 C 
HETATM   28  O3  UNL     1      22.837   7.832   5.597  1.00  0.00    -0.391 OA
HETATM   29  C19 UNL     1      22.563   7.944   6.962  1.00  0.00     0.169 C 
HETATM   30  C20 UNL     1      21.239   7.286   7.247  1.00  0.00     0.051 C 
ENDBRANCH  23  25
ENDBRANCH  22  23
ENDBRANCH   4  22
TORSDOF 6
ENDMDL
MODEL 2
REMARK VINA RESULT: -9.126143178      0.289      1.327
REMARK  6 active torsions:
REMARK  status: ('A' for Active; 'I' for Inactive)
REMARK    1  A    between atoms: S1_2  and  N1_4 
REMARK    2  A    between atoms: S1_2  and  C11_16 
REMARK    3  A    between atoms: N1_4  and  C1_6 
REMARK    4  A    between atoms: C14_19  and  C15_20 
REMARK    5  A    between atoms: C15_20  and  N2_21 
REMARK    6  A    between atoms: N2_21  and  C16_23 
ROOT
HETATM    1  C11 UNL     1      23.743   5.427  12.305  1.00  0.00     0.079 A 
HETATM    2  C12 UNL     1      23.805   6.245  11.180  1.00  0.00     0.026 A 
HETATM    3  C13 UNL     1      23.130   5.865  10.033  1.00  0.00     0.010 A 
HETATM    4  C14 UNL     1      22.389   4.680   9.981  1.00  0.00    -0.041 A 
HETATM    5  C21 UNL     1      22.337   3.879  11.083  1.00  0.00     0.010 A 
HETATM    6  C22 UNL     1      23.020   4.259  12.250  1.00  0.00     0.026 A 
ENDROOT
BRANCH   1   7
HETATM    7  S1  UNL     1      24.475   5.929  13.796  1.00  0.00     0.259 S 
HETATM    8  O1  UNL     1      25.850   5.249  13.941  1.00  0.00    -0.201 OA
HETATM    9  O2  UNL     1      24.877   7.400  13.601  1.00  0.00    -0.201 OA
BRANCH   7  10
HETATM   10  N1  UNL     1      23.569   5.798  15.172  1.00  0.00    -0.305 N 
ATOM     11  H1  UNL     1      22.622   5.429  15.088  1.00  0.00     0.173 HD
BRANCH  10  12
HETATM   12  C1  UNL     1      24.020   6.160  16.440  1.00  0.00     0.041 C 
HETATM   13  C2  UNL     1      25.074   7.252  16.413  1.00  0.00     0.036 C 
HETATM   14  C3  UNL     1      25.304   7.757  17.807  1.00  0.00    -0.012 C 
HETATM   15  C4  UNL     1      24.055   8.360  18.406  1.00  0.00     0.009 C 
HETATM   16  C8  UNL     1      25.833   6.623  18.639  1.00  0.00     0.009 C 
HETATM   17  C5  UNL     1      23.039   7.250  18.502  1.00  0.00    -0.012 C 
HETATM   18  C6  UNL     1      23.558   6.148  19.390  1.00  0.00     0.009 C 
HETATM   19  C10 UNL     1      22.756   6.729  17.141  1.00  0.00     0.036 C 
HETATM   20  C7  UNL     1      24.767   5.558  18.733  1.00  0.00    -0.012 C 
HETATM   21  C9  UNL     1      24.491   5.050  17.321  1.00  0.00     0.036 C 
ENDBRANCH  10  12
ENDBRANCH   7  10
ENDBRANCH   1   7
BRANCH   4  22
HETATM   22  C15 UNL     1      21.554   4.447   8.755  1.00  0.00     0.153 C 
BRANCH  22  23
HETATM   23  N2  UNL     1      22.165   5.154   7.662  1.00  0.00    -0.413 N 
ATOM     24  H2  UNL     1      23.161   5.052   7.471  1.00  0.00     0.153 HD
BRANCH  23  25
HETATM   25  C16 UNL     1      21.376   5.978   6.871  1.00  0.00     0.080 C 
HETATM   26  C17 UNL     1      21.638   5.759   5.391  1.00  0.00     0.051 C 
HETATM   27  C18 UNL     1      22.962   6.408   5.079  1.00  0.00     0.169 C 
HETATM   28  O3  UNL     1      22.899   7.780   5.323  1.00  0.00    -0.391 OA
HETATM   29  C19 UNL     1      22.785   7.977   6.702  1.00  0.00     0.169 C 
HETATM   30  C20 UNL     1      21.452   7.446   7.158  1.00  0.00     0.051 C 
ENDBRANCH  23  25
ENDBRANCH  22  23
ENDBRANCH   4  22
TORSDOF 6
ENDMDL
MODEL 3
REMARK VINA RESULT: -8.993579228      0.344      1.673
REMARK  6 active torsions:
REMARK  status: ('A' for Active; 'I' for Inactive)
REMARK    1  A    between atoms: S1_2  and  N1_4 
REMARK    2  A    between atoms: S1_2  and  C11_16 
REMARK    3  A    between atoms: N1_4  and  C1_6 
REMARK    4  A    between atoms: C14_19  and  C15_20 
REMARK    5  A    between atoms: C15_20  and  N2_21 
REMARK    6  A    between atoms: N2_21  and  C16_23 
ROOT
HETATM    1  C11 UNL     1      23.848   5.369  12.450  1.00  0.00     0.079 A 
HETATM    2  C12 UNL     1      23.085   4.207  12.366  1.00  0.00     0.026 A 
HETATM    3  C13 UNL     1      22.375   3.951  11.206  1.00  0.00     0.010 A 
HETATM    4  C14 UNL     1      22.407   4.832  10.121  1.00  0.00    -0.041 A 
HETATM    5  C21 UNL     1      23.149   5.972  10.211  1.00  0.00     0.010 A 
HETATM    6  C22 UNL     1      23.873   6.238  11.385  1.00  0.00     0.026 A 
ENDROOT
BRANCH   1   7
HETATM    7  S1  UNL     1      24.846   5.666  13.839  1.00  0.00     0.259 S 
HETATM    8  O1  UNL     1      26.253   5.090  13.585  1.00  0.00    -0.201 OA
HETATM    9  O2  UNL     1      25.128   7.177  13.848  1.00  0.00    -0.201 OA
BRANCH   7  10
HETATM   10  N1  UNL     1      24.250   5.222  15.315  1.00  0.00    -0.305 N 
ATOM     11  H1  UNL     1      23.798   4.311  15.395  1.00  0.00     0.173 HD
BRANCH  10  12
HETATM   12  C1  UNL     1      24.327   6.017  16.458  1.00  0.00     0.041 C 
HETATM   13  C2  UNL     1      25.390   7.096  16.368  1.00  0.00     0.036 C 
HETATM   14  C3  UNL     1      25.226   8.053  17.510  1.00  0.00    -0.012 C 
HETATM   15  C4  UNL     1      23.884   8.748  17.481  1.00  0.00     0.009 C 
HETATM   16  C8  UNL     1      25.438   7.300  18.793  1.00  0.00     0.009 C 
HETATM   17  C5  UNL     1      22.836   7.678  17.649  1.00  0.00    -0.012 C 
HETATM   18  C6  UNL     1      23.024   6.973  18.969  1.00  0.00     0.009 C 
HETATM   19  C10 UNL     1      22.939   6.712  16.527  1.00  0.00     0.036 C 
HETATM   20  C7  UNL     1      24.345   6.268  18.930  1.00  0.00    -0.012 C 
HETATM   21  C9  UNL     1      24.470   5.298  17.759  1.00  0.00     0.036 C 
ENDBRANCH  10  12
ENDBRANCH   7  10
ENDBRANCH   1   7
BRANCH   4  22
HETATM   22  C15 UNL     1      21.747   4.379   8.851  1.00  0.00     0.153 C 
BRANCH  22  23
HETATM   23  N2  UNL     1      22.282   5.163   7.770  1.00  0.00    -0.413 N 
ATOM     24  H2  UNL     1      23.281   5.150   7.566  1.00  0.00     0.153 HD
BRANCH  23  25
HETATM   25  C16 UNL     1      21.417   5.936   7.009  1.00  0.00     0.080 C 
HETATM   26  C17 UNL     1      21.610   5.702   5.520  1.00  0.00     0.051 C 
HETATM   27  C18 UNL     1      22.886   6.402   5.128  1.00  0.00     0.169 C 
HETATM   28  O3  UNL     1      22.773   7.775   5.353  1.00  0.00    -0.391 OA
HETATM   29  C19 UNL     1      22.723   7.991   6.732  1.00  0.00     0.169 C 
HETATM   30  C20 UNL     1      21.441   7.411   7.267  1.00  0.00     0.051 C 
ENDBRANCH  23  25
ENDBRANCH  22  23
ENDBRANCH   4  22
TORSDOF 6
ENDMDL
MODEL 4
REMARK VINA RESULT: -8.941429162      2.192      2.836
REMARK  6 active torsions:
REMARK  status: ('A' for Active; 'I' for Inactive)
REMARK    1  A    between atoms: S1_2  and  N1_4 
REMARK    2  A    between atoms: S1_2  and  C11_16 
REMARK    3  A    between atoms: N1_4  and  C1_6 
REMARK    4  A    between atoms: C14_19  and  C15_20 
REMARK    5  A    between atoms: C15_20  and  N2_21 
REMARK    6  A    between atoms: N2_21  and  C16_23 
ROOT
HETATM    1  C11 UNL     1      23.812   5.285  12.326  1.00  0.00     0.079 A 
HETATM    2  C12 UNL     1      23.755   6.143  11.231  1.00  0.00     0.026 A 
HETATM    3  C13 UNL     1      22.993   5.783  10.133  1.00  0.00     0.010 A 
HETATM    4  C14 UNL     1      22.281   4.581  10.101  1.00  0.00    -0.041 A 
HETATM    5  C21 UNL     1      22.345   3.741  11.172  1.00  0.00     0.010 A 
HETATM    6  C22 UNL     1      23.116   4.099  12.290  1.00  0.00     0.026 A 
ENDROOT
BRANCH   1   7
HETATM    7  S1  UNL     1      24.657   5.755  13.767  1.00  0.00     0.259 S 
HETATM    8  O1  UNL     1      26.109   5.244  13.694  1.00  0.00    -0.201 OA
HETATM    9  O2  UNL     1      24.860   7.276  13.667  1.00  0.00    -0.201 OA
BRANCH   7  10
HETATM   10  N1  UNL     1      23.946   5.403  15.217  1.00  0.00    -0.305 N 
ATOM     11  H1  UNL     1      23.379   4.557  15.279  1.00  0.00     0.173 HD
BRANCH  10  12
HETATM   12  C1  UNL     1      24.074   6.190  16.360  1.00  0.00     0.041 C 
HETATM   13  C2  UNL     1      22.810   6.954  16.708  1.00  0.00     0.036 C 
HETATM   14  C3  UNL     1      22.951   7.556  18.074  1.00  0.00    -0.012 C 
HETATM   15  C4  UNL     1      23.142   6.503  19.142  1.00  0.00     0.009 C 
HETATM   16  C8  UNL     1      24.090   8.535  18.045  1.00  0.00     0.009 C 
HETATM   17  C5  UNL     1      24.440   5.801  18.833  1.00  0.00    -0.012 C 
HETATM   18  C6  UNL     1      25.582   6.785  18.868  1.00  0.00     0.009 C 
HETATM   19  C10 UNL     1      24.345   5.165  17.495  1.00  0.00     0.036 C 
HETATM   20  C7  UNL     1      25.367   7.778  17.768  1.00  0.00    -0.012 C 
HETATM   21  C9  UNL     1      25.235   7.129  16.394  1.00  0.00     0.036 C 
ENDBRANCH  10  12
ENDBRANCH   7  10
ENDBRANCH   1   7
BRANCH   4  22
HETATM   22  C15 UNL     1      21.350   4.366   8.943  1.00  0.00     0.153 C 
BRANCH  22  23
HETATM   23  N2  UNL     1      20.155   5.128   9.188  1.00  0.00    -0.413 N 
ATOM     24  H2  UNL     1      20.008   6.026   8.726  1.00  0.00     0.153 HD
BRANCH  23  25
HETATM   25  C16 UNL     1      19.205   4.622  10.063  1.00  0.00     0.080 C 
HETATM   26  C17 UNL     1      18.671   3.276   9.603  1.00  0.00     0.051 C 
HETATM   27  C18 UNL     1      17.742   3.545   8.447  1.00  0.00     0.169 C 
HETATM   28  O3  UNL     1      16.667   4.332   8.863  1.00  0.00    -0.391 OA
HETATM   29  C19 UNL     1      17.148   5.608   9.165  1.00  0.00     0.169 C 
HETATM   30  C20 UNL     1      18.042   5.516  10.372  1.00  0.00     0.051 C 
ENDBRANCH  23  25
ENDBRANCH  22  23
ENDBRANCH   4  22
TORSDOF 6
ENDMDL
MODEL 5
REMARK VINA RESULT: -8.877180307      2.225      3.156
REMARK  6 active torsions:
REMARK  status: ('A' for Active; 'I' for Inactive)
REMARK    1  A    between atoms: S1_2  and  N1_4 
REMARK    2  A    between atoms: S1_2  and  C11_16 
REMARK    3  A    between atoms: N1_4  and  C1_6 
REMARK    4  A    between atoms: C14_19  and  C15_20 
REMARK    5  A    between atoms: C15_20  and  N2_21 
REMARK    6  A    between atoms: N2_21  and  C16_23 
ROOT
HETATM    1  C11 UNL     1      23.666   5.459  12.194  1.00  0.00     0.079 A 
HETATM    2  C12 UNL     1      23.758   6.254  11.054  1.00  0.00     0.026 A 
HETATM    3  C13 UNL     1      23.094   5.862   9.905  1.00  0.00     0.010 A 
HETATM    4  C14 UNL     1      22.335   4.688   9.864  1.00  0.00    -0.041 A 
HETATM    5  C21 UNL     1      22.254   3.910  10.980  1.00  0.00     0.010 A 
HETATM    6  C22 UNL     1      22.924   4.302  12.150  1.00  0.00     0.026 A 
ENDROOT
BRANCH   1   7
HETATM    7  S1  UNL     1      24.383   5.979  13.687  1.00  0.00     0.259 S 
HETATM    8  O1  UNL     1      25.757   5.301  13.853  1.00  0.00    -0.201 OA
HETATM    9  O2  UNL     1      24.786   7.447  13.479  1.00  0.00    -0.201 OA
BRANCH   7  10
HETATM   10  N1  UNL     1      23.463   5.863  15.055  1.00  0.00    -0.305 N 
ATOM     11  H1  UNL     1      22.515   5.496  14.965  1.00  0.00     0.173 HD
BRANCH  10  12
HETATM   12  C1  UNL     1      23.903   6.234  16.324  1.00  0.00     0.041 C 
HETATM   13  C2  UNL     1      24.814   7.448  16.312  1.00  0.00     0.036 C 
HETATM   14  C3  UNL     1      25.022   7.930  17.717  1.00  0.00    -0.012 C 
HETATM   15  C4  UNL     1      23.726   8.353  18.370  1.00  0.00     0.009 C 
HETATM   16  C8  UNL     1      25.710   6.843  18.493  1.00  0.00     0.009 C 
HETATM   17  C5  UNL     1      22.857   7.124  18.449  1.00  0.00    -0.012 C 
HETATM   18  C6  UNL     1      23.534   6.065  19.282  1.00  0.00     0.009 C 
HETATM   19  C10 UNL     1      22.600   6.618  17.078  1.00  0.00     0.036 C 
HETATM   20  C7  UNL     1      24.786   5.652  18.573  1.00  0.00    -0.012 C 
HETATM   21  C9  UNL     1      24.533   5.162  17.151  1.00  0.00     0.036 C 
ENDBRANCH  10  12
ENDBRANCH   7  10
ENDBRANCH   1   7
BRANCH   4  22
HETATM   22  C15 UNL     1      21.516   4.444   8.630  1.00  0.00     0.153 C 
BRANCH  22  23
HETATM   23  N2  UNL     1      20.210   4.008   9.045  1.00  0.00    -0.413 N 
ATOM     24  H2  UNL     1      20.104   3.343   9.811  1.00  0.00     0.153 HD
BRANCH  23  25
HETATM   25  C16 UNL     1      19.095   4.507   8.387  1.00  0.00     0.080 C 
HETATM   26  C17 UNL     1      18.663   5.852   8.945  1.00  0.00     0.051 C 
HETATM   27  C18 UNL     1      17.997   5.584  10.270  1.00  0.00     0.169 C 
HETATM   28  O3  UNL     1      16.863   4.791  10.090  1.00  0.00    -0.391 OA
HETATM   29  C19 UNL     1      17.276   3.516   9.698  1.00  0.00     0.169 C 
HETATM   30  C20 UNL     1      17.898   3.608   8.330  1.00  0.00     0.051 C 
ENDBRANCH  23  25
ENDBRANCH  22  23
ENDBRANCH   4  22
TORSDOF 6
ENDMDL
