MODEL 1
REMARK VINA RESULT: -7.793123929      0.000      0.000
REMARK  7 active torsions:
REMARK  status: ('A' for Active; 'I' for Inactive)
REMARK    1  A    between atoms: C2_2  and  N1_3 
REMARK       I    between atoms: C3_5  and  N2_6 
REMARK       I    between atoms: C3_5  and  N6_25 
REMARK    2  A    between atoms: N2_6  and  C4_8 
REMARK    3  A    between atoms: C4_8  and  C5_9 
REMARK    4  A    between atoms: C5_9  and  N3_10 
REMARK    5  A    between atoms: C9_14  and  C11_16 
REMARK    6  A    between atoms: C11_16  and  N4_17 
REMARK    7  A    between atoms: N6_25  and  C17_27 
ROOT
HETATM    1  C4  UNL     1      21.387   5.722  13.707  1.00  0.00     0.157 C 
ENDROOT
BRANCH   1   2
HETATM    2  N2  UNL     1      22.172   5.647  14.929  1.00  0.00    -0.225 N 
HETATM    3  C3  UNL     1      23.101   6.680  15.268  1.00  0.00     0.670 C 
HETATM    4  N1  UNL     1      23.809   7.287  14.403  1.00  0.00    -0.227 N 
HETATM    5  N6  UNL     1      23.219   7.035  16.631  1.00  0.00    -0.222 N 
ATOM      6  H1  UNL     1      23.672   6.988  13.438  1.00  0.00     0.177 HD
ATOM      7  H6  UNL     1      23.233   8.029  16.862  1.00  0.00     0.178 HD
ATOM      8  H2  UNL     1      22.058   4.848  15.552  1.00  0.00     0.177 HD
BRANCH   4   9
HETATM    9  C2  UNL     1      24.763   8.321  14.592  1.00  0.00     0.133 C 
HETATM   10  C1  UNL     1      26.063   7.899  15.186  1.00  0.00     0.027 C 
ENDBRANCH   4   9
BRANCH   5  11
HETATM   11  C17 UNL     1      23.321   6.103  17.714  1.00  0.00     0.103 C 
HETATM   12  C18 UNL     1      24.574   5.226  17.639  1.00  0.00     0.030 C 
HETATM   13  C19 UNL     1      25.265   5.409  18.961  1.00  0.00    -0.012 C 
HETATM   14  C20 UNL     1      25.910   6.758  18.962  1.00  0.00     0.005 C 
HETATM   15  C23 UNL     1      24.057   5.695  19.870  1.00  0.00     0.011 C 
HETATM   16  C21 UNL     1      24.707   7.709  18.916  1.00  0.00     0.007 C 
HETATM   17  C22 UNL     1      23.506   6.843  18.995  1.00  0.00     0.009 C 
ENDBRANCH   5  11
ENDBRANCH   1   2
BRANCH   1  18
HETATM   18  C5  UNL     1      22.132   5.125  12.536  1.00  0.00     0.137 C 
BRANCH  18  19
HETATM   19  N3  UNL     1      22.131   6.048  11.455  1.00  0.00    -0.411 N 
HETATM   20  C6  UNL     1      20.977   6.033  10.618  1.00  0.00     0.117 C 
HETATM   21  C7  UNL     1      20.552   7.442  10.342  1.00  0.00     0.020 C 
HETATM   22  C8  UNL     1      21.714   8.270   9.921  1.00  0.00     0.012 C 
HETATM   23  C9  UNL     1      22.569   7.640   8.826  1.00  0.00    -0.026 C 
HETATM   24  C10 UNL     1      21.632   7.243   7.676  1.00  0.00     0.017 C 
HETATM   25  C15 UNL     1      23.302   6.443   9.308  1.00  0.00     0.030 C 
HETATM   26  C16 UNL     1      23.365   6.301  10.813  1.00  0.00     0.117 C 
BRANCH  23  27
HETATM   27  C11 UNL     1      23.446   8.758   8.336  1.00  0.00     0.138 C 
BRANCH  27  28
HETATM   28  N4  UNL     1      24.614   8.395   7.611  1.00  0.00    -0.351 N 
HETATM   29  C12 UNL     1      25.858   8.267   8.093  1.00  0.00     0.108 A 
HETATM   30  C13 UNL     1      26.691   7.904   7.076  1.00  0.00     0.106 A 
HETATM   31  N5  UNL     1      25.920   7.820   5.986  1.00  0.00    -0.361 N 
HETATM   32  C14 UNL     1      24.657   8.115   6.294  1.00  0.00     0.182 A 
ATOM     33  H5  UNL     1      26.251   7.567   5.056  1.00  0.00     0.166 HD
ENDBRANCH  27  28
ENDBRANCH  23  27
ENDBRANCH  18  19
ENDBRANCH   1  18
TORSDOF 7
ENDMDL
MODEL 2
REMARK VINA RESULT: -7.741904061      0.983      1.304
REMARK  7 active torsions:
REMARK  status: ('A' for Active; 'I' for Inactive)
REMARK    1  A    between atoms: C2_2  and  N1_3 
REMARK       I    between atoms: C3_5  and  N2_6 
REMARK       I    between atoms: C3_5  and  N6_25 
REMARK    2  A    between atoms: N2_6  and  C4_8 
REMARK    3  A    between atoms: C4_8  and  C5_9 
REMARK    4  A    between atoms: C5_9  and  N3_10 
REMARK    5  A    between atoms: C9_14  and  C11_16 
REMARK    6  A    between atoms: C11_16  and  N4_17 
REMARK    7  A    between atoms: N6_25  and  C17_27 
ROOT
HETATM    1  C4  UNL     1      24.494   4.900  12.964  1.00  0.00     0.157 C 
ENDROOT
BRANCH   1   2
HETATM    2  N2  UNL     1      24.699   5.177  14.378  1.00  0.00    -0.225 N 
HETATM    3  C3  UNL     1      24.288   6.423  14.948  1.00  0.00     0.670 C 
HETATM    4  N1  UNL     1      24.379   7.531  14.330  1.00  0.00    -0.227 N 
HETATM    5  N6  UNL     1      23.752   6.401  16.255  1.00  0.00    -0.222 N 
ATOM      6  H1  UNL     1      24.768   7.477  13.389  1.00  0.00     0.177 HD
ATOM      7  H6  UNL     1      22.903   6.939  16.427  1.00  0.00     0.178 HD
ATOM      8  H2  UNL     1      25.142   4.474  14.969  1.00  0.00     0.177 HD
BRANCH   4   9
HETATM    9  C2  UNL     1      24.015   8.832  14.766  1.00  0.00     0.133 C 
HETATM   10  C1  UNL     1      23.064   9.566  13.883  1.00  0.00     0.027 C 
ENDBRANCH   4   9
BRANCH   5  11
HETATM   11  C17 UNL     1      24.314   5.679  17.357  1.00  0.00     0.103 C 
HETATM   12  C18 UNL     1      25.710   6.168  17.750  1.00  0.00     0.030 C 
HETATM   13  C19 UNL     1      25.619   6.491  19.215  1.00  0.00    -0.012 C 
HETATM   14  C20 UNL     1      24.862   7.773  19.360  1.00  0.00     0.005 C 
HETATM   15  C23 UNL     1      24.533   5.493  19.654  1.00  0.00     0.011 C 
HETATM   16  C21 UNL     1      23.459   7.394  18.866  1.00  0.00     0.007 C 
HETATM   17  C22 UNL     1      23.509   5.939  18.586  1.00  0.00     0.009 C 
ENDBRANCH   5  11
ENDBRANCH   1   2
BRANCH   1  18
HETATM   18  C5  UNL     1      23.026   4.917  12.607  1.00  0.00     0.137 C 
BRANCH  18  19
HETATM   19  N3  UNL     1      22.788   5.931  11.639  1.00  0.00    -0.411 N 
HETATM   20  C6  UNL     1      21.445   6.052  11.175  1.00  0.00     0.117 C 
HETATM   21  C7  UNL     1      21.070   7.500  11.131  1.00  0.00     0.020 C 
HETATM   22  C8  UNL     1      22.124   8.297  10.447  1.00  0.00     0.012 C 
HETATM   23  C9  UNL     1      22.578   7.719   9.111  1.00  0.00    -0.026 C 
HETATM   24  C10 UNL     1      21.323   7.477   8.259  1.00  0.00     0.017 C 
HETATM   25  C15 UNL     1      23.323   6.446   9.276  1.00  0.00     0.030 C 
HETATM   26  C16 UNL     1      23.802   6.170  10.684  1.00  0.00     0.117 C 
BRANCH  23  27
HETATM   27  C11 UNL     1      23.362   8.826   8.463  1.00  0.00     0.138 C 
BRANCH  27  28
HETATM   28  N4  UNL     1      24.465   8.449   7.649  1.00  0.00    -0.351 N 
HETATM   29  C12 UNL     1      25.742   8.311   8.031  1.00  0.00     0.108 A 
HETATM   30  C13 UNL     1      26.488   7.935   6.953  1.00  0.00     0.106 A 
HETATM   31  N5  UNL     1      25.632   7.853   5.929  1.00  0.00    -0.361 N 
HETATM   32  C14 UNL     1      24.400   8.162   6.335  1.00  0.00     0.182 A 
ATOM     33  H5  UNL     1      25.885   7.592   4.976  1.00  0.00     0.166 HD
ENDBRANCH  27  28
ENDBRANCH  23  27
ENDBRANCH  18  19
ENDBRANCH   1  18
TORSDOF 7
ENDMDL
MODEL 3
REMARK VINA RESULT: -7.562309425      1.953      9.136
REMARK  7 active torsions:
REMARK  status: ('A' for Active; 'I' for Inactive)
REMARK    1  A    between atoms: C2_2  and  N1_3 
REMARK       I    between atoms: C3_5  and  N2_6 
REMARK       I    between atoms: C3_5  and  N6_25 
REMARK    2  A    between atoms: N2_6  and  C4_8 
REMARK    3  A    between atoms: C4_8  and  C5_9 
REMARK    4  A    between atoms: C5_9  and  N3_10 
REMARK    5  A    between atoms: C9_14  and  C11_16 
REMARK    6  A    between atoms: C11_16  and  N4_17 
REMARK    7  A    between atoms: N6_25  and  C17_27 
ROOT
HETATM    1  C4  UNL     1      23.510   4.748  12.722  1.00  0.00     0.157 C 
ENDROOT
BRANCH   1   2
HETATM    2  N2  UNL     1      23.417   5.092  11.312  1.00  0.00    -0.225 N 
HETATM    3  C3  UNL     1      22.145   5.267  10.682  1.00  0.00     0.670 C 
HETATM    4  N1  UNL     1      21.129   4.556  10.963  1.00  0.00    -0.227 N 
HETATM    5  N6  UNL     1      22.029   6.286   9.710  1.00  0.00    -0.222 N 
ATOM      6  H1  UNL     1      21.278   3.842  11.677  1.00  0.00     0.177 HD
ATOM      7  H6  UNL     1      21.210   6.893   9.758  1.00  0.00     0.178 HD
ATOM      8  H2  UNL     1      24.270   5.209  10.766  1.00  0.00     0.177 HD
BRANCH   4   9
HETATM    9  C2  UNL     1      19.817   4.615  10.424  1.00  0.00     0.133 C 
HETATM   10  C1  UNL     1      19.322   3.360   9.792  1.00  0.00     0.027 C 
ENDBRANCH   4   9
BRANCH   5  11
HETATM   11  C17 UNL     1      22.975   6.531   8.663  1.00  0.00     0.103 C 
HETATM   12  C18 UNL     1      22.318   6.907   7.332  1.00  0.00     0.030 C 
HETATM   13  C19 UNL     1      22.949   8.213   6.936  1.00  0.00    -0.012 C 
HETATM   14  C20 UNL     1      22.373   9.286   7.804  1.00  0.00     0.005 C 
HETATM   15  C23 UNL     1      24.335   8.063   7.587  1.00  0.00     0.011 C 
HETATM   16  C21 UNL     1      22.894   8.909   9.198  1.00  0.00     0.007 C 
HETATM   17  C22 UNL     1      23.783   7.740   8.993  1.00  0.00     0.009 C 
ENDBRANCH   5  11
ENDBRANCH   1   2
BRANCH   1  18
HETATM   18  C5  UNL     1      24.732   5.366  13.361  1.00  0.00     0.137 C 
BRANCH  18  19
HETATM   19  N3  UNL     1      24.351   6.042  14.552  1.00  0.00    -0.411 N 
HETATM   20  C6  UNL     1      23.083   6.694  14.525  1.00  0.00     0.117 C 
HETATM   21  C7  UNL     1      22.355   6.403  15.801  1.00  0.00     0.020 C 
HETATM   22  C8  UNL     1      23.239   6.633  16.976  1.00  0.00     0.012 C 
HETATM   23  C9  UNL     1      23.974   7.969  16.956  1.00  0.00    -0.026 C 
HETATM   24  C10 UNL     1      22.928   9.071  16.733  1.00  0.00     0.017 C 
HETATM   25  C15 UNL     1      24.998   8.028  15.884  1.00  0.00     0.030 C 
HETATM   26  C16 UNL     1      25.371   6.689  15.288  1.00  0.00     0.117 C 
BRANCH  23  27
HETATM   27  C11 UNL     1      24.514   8.128  18.349  1.00  0.00     0.138 C 
BRANCH  27  28
HETATM   28  N4  UNL     1      24.826   6.939  19.064  1.00  0.00    -0.351 N 
HETATM   29  C12 UNL     1      24.033   6.277  19.918  1.00  0.00     0.108 A 
HETATM   30  C13 UNL     1      24.704   5.186  20.389  1.00  0.00     0.106 A 
HETATM   31  N5  UNL     1      25.904   5.214  19.799  1.00  0.00    -0.361 N 
HETATM   32  C14 UNL     1      25.994   6.272  18.992  1.00  0.00     0.182 A 
ATOM     33  H5  UNL     1      26.643   4.527  19.946  1.00  0.00     0.166 HD
ENDBRANCH  27  28
ENDBRANCH  23  27
ENDBRANCH  18  19
ENDBRANCH   1  18
TORSDOF 7
ENDMDL
MODEL 4
REMARK VINA RESULT: -7.537472758      1.739      2.359
REMARK  7 active torsions:
REMARK  status: ('A' for Active; 'I' for Inactive)
REMARK    1  A    between atoms: C2_2  and  N1_3 
REMARK       I    between atoms: C3_5  and  N2_6 
REMARK       I    between atoms: C3_5  and  N6_25 
REMARK    2  A    between atoms: N2_6  and  C4_8 
REMARK    3  A    between atoms: C4_8  and  C5_9 
REMARK    4  A    between atoms: C5_9  and  N3_10 
REMARK    5  A    between atoms: C9_14  and  C11_16 
REMARK    6  A    between atoms: C11_16  and  N4_17 
REMARK    7  A    between atoms: N6_25  and  C17_27 
ROOT
HETATM    1  C4  UNL     1      24.529   5.167  12.917  1.00  0.00     0.157 C 
ENDROOT
BRANCH   1   2
HETATM    2  N2  UNL     1      24.700   5.438  14.336  1.00  0.00    -0.225 N 
HETATM    3  C3  UNL     1      23.755   6.242  15.048  1.00  0.00     0.670 C 
HETATM    4  N1  UNL     1      23.184   7.257  14.537  1.00  0.00    -0.227 N 
HETATM    5  N6  UNL     1      23.447   5.870  16.377  1.00  0.00    -0.222 N 
ATOM      6  H1  UNL     1      23.445   7.467  13.574  1.00  0.00     0.177 HD
ATOM      7  H6  UNL     1      22.465   5.863  16.650  1.00  0.00     0.178 HD
ATOM      8  H2  UNL     1      25.504   5.051  14.828  1.00  0.00     0.177 HD
BRANCH   4   9
HETATM    9  C2  UNL     1      22.236   8.139  15.120  1.00  0.00     0.133 C 
HETATM   10  C1  UNL     1      22.804   9.326  15.819  1.00  0.00     0.027 C 
ENDBRANCH   4   9
BRANCH   5  11
HETATM   11  C17 UNL     1      24.414   5.504  17.368  1.00  0.00     0.103 C 
HETATM   12  C18 UNL     1      25.624   6.441  17.407  1.00  0.00     0.030 C 
HETATM   13  C19 UNL     1      25.716   6.909  18.832  1.00  0.00    -0.012 C 
HETATM   14  C20 UNL     1      24.626   7.907  19.062  1.00  0.00     0.005 C 
HETATM   15  C23 UNL     1      25.119   5.694  19.564  1.00  0.00     0.011 C 
HETATM   16  C21 UNL     1      23.355   7.059  18.920  1.00  0.00     0.007 C 
HETATM   17  C22 UNL     1      23.821   5.665  18.727  1.00  0.00     0.009 C 
ENDBRANCH   5  11
ENDBRANCH   1   2
BRANCH   1  18
HETATM   18  C5  UNL     1      23.442   4.144  12.679  1.00  0.00     0.137 C 
BRANCH  18  19
HETATM   19  N3  UNL     1      22.611   4.578  11.610  1.00  0.00    -0.411 N 
HETATM   20  C6  UNL     1      21.961   3.552  10.864  1.00  0.00     0.117 C 
HETATM   21  C7  UNL     1      20.534   3.941  10.635  1.00  0.00     0.020 C 
HETATM   22  C8  UNL     1      20.442   5.339  10.134  1.00  0.00     0.012 C 
HETATM   23  C9  UNL     1      21.378   5.650   8.971  1.00  0.00    -0.026 C 
HETATM   24  C10 UNL     1      21.150   4.581   7.892  1.00  0.00     0.017 C 
HETATM   25  C15 UNL     1      22.804   5.646   9.383  1.00  0.00     0.030 C 
HETATM   26  C16 UNL     1      23.032   5.712  10.877  1.00  0.00     0.117 C 
BRANCH  23  27
HETATM   27  C11 UNL     1      20.886   6.961   8.425  1.00  0.00     0.138 C 
BRANCH  27  28
HETATM   28  N4  UNL     1      21.852   7.822   7.836  1.00  0.00    -0.351 N 
HETATM   29  C12 UNL     1      22.470   8.860   8.417  1.00  0.00     0.108 A 
HETATM   30  C13 UNL     1      23.325   9.425   7.517  1.00  0.00     0.106 A 
HETATM   31  N5  UNL     1      23.202   8.706   6.396  1.00  0.00    -0.361 N 
HETATM   32  C14 UNL     1      22.312   7.729   6.574  1.00  0.00     0.182 A 
ATOM     33  H5  UNL     1      23.714   8.879   5.532  1.00  0.00     0.166 HD
ENDBRANCH  27  28
ENDBRANCH  23  27
ENDBRANCH  18  19
ENDBRANCH   1  18
TORSDOF 7
ENDMDL
MODEL 5
REMARK VINA RESULT: -7.526341026      1.218      1.807
REMARK  7 active torsions:
REMARK  status: ('A' for Active; 'I' for Inactive)
REMARK    1  A    between atoms: C2_2  and  N1_3 
REMARK       I    between atoms: C3_5  and  N2_6 
REMARK       I    between atoms: C3_5  and  N6_25 
REMARK    2  A    between atoms: N2_6  and  C4_8 
REMARK    3  A    between atoms: C4_8  and  C5_9 
REMARK    4  A    between atoms: C5_9  and  N3_10 
REMARK    5  A    between atoms: C9_14  and  C11_16 
REMARK    6  A    between atoms: C11_16  and  N4_17 
REMARK    7  A    between atoms: N6_25  and  C17_27 
ROOT
HETATM    1  C4  UNL     1      21.659   5.378  13.228  1.00  0.00     0.157 C 
ENDROOT
BRANCH   1   2
HETATM    2  N2  UNL     1      22.551   5.722  14.325  1.00  0.00    -0.225 N 
HETATM    3  C3  UNL     1      22.036   6.248  15.551  1.00  0.00     0.670 C 
HETATM    4  N1  UNL     1      21.051   7.050  15.601  1.00  0.00    -0.227 N 
HETATM    5  N6  UNL     1      22.658   5.840  16.753  1.00  0.00    -0.222 N 
ATOM      6  H1  UNL     1      20.643   7.300  14.700  1.00  0.00     0.177 HD
ATOM      7  H6  UNL     1      22.055   5.566  17.528  1.00  0.00     0.178 HD
ATOM      8  H2  UNL     1      23.556   5.587  14.217  1.00  0.00     0.177 HD
BRANCH   4   9
HETATM    9  C2  UNL     1      20.438   7.648  16.734  1.00  0.00     0.133 C 
HETATM   10  C1  UNL     1      21.116   8.863  17.268  1.00  0.00     0.027 C 
ENDBRANCH   4   9
BRANCH   5  11
HETATM   11  C17 UNL     1      24.074   5.784  16.962  1.00  0.00     0.103 C 
HETATM   12  C18 UNL     1      24.794   7.078  16.573  1.00  0.00     0.030 C 
HETATM   13  C19 UNL     1      25.569   7.483  17.795  1.00  0.00    -0.012 C 
HETATM   14  C20 UNL     1      24.601   8.033  18.794  1.00  0.00     0.005 C 
HETATM   15  C23 UNL     1      25.840   6.104  18.424  1.00  0.00     0.011 C 
HETATM   16  C21 UNL     1      23.751   6.806  19.153  1.00  0.00     0.007 C 
HETATM   17  C22 UNL     1      24.358   5.668  18.422  1.00  0.00     0.009 C 
ENDBRANCH   5  11
ENDBRANCH   1   2
BRANCH   1  18
HETATM   18  C5  UNL     1      22.433   5.007  11.984  1.00  0.00     0.137 C 
BRANCH  18  19
HETATM   19  N3  UNL     1      22.365   6.076  11.050  1.00  0.00    -0.411 N 
HETATM   20  C6  UNL     1      21.070   6.377  10.535  1.00  0.00     0.117 C 
HETATM   21  C7  UNL     1      20.874   7.861  10.535  1.00  0.00     0.020 C 
HETATM   22  C8  UNL     1      22.048   8.547   9.930  1.00  0.00     0.012 C 
HETATM   23  C9  UNL     1      22.492   7.967   8.592  1.00  0.00    -0.026 C 
HETATM   24  C10 UNL     1      21.259   7.910   7.678  1.00  0.00     0.017 C 
HETATM   25  C15 UNL     1      23.069   6.608   8.735  1.00  0.00     0.030 C 
HETATM   26  C16 UNL     1      23.445   6.224  10.150  1.00  0.00     0.117 C 
BRANCH  23  27
HETATM   27  C11 UNL     1      23.433   8.992   8.024  1.00  0.00     0.138 C 
BRANCH  27  28
HETATM   28  N4  UNL     1      24.578   8.510   7.333  1.00  0.00    -0.351 N 
HETATM   29  C12 UNL     1      25.817   8.366   7.823  1.00  0.00     0.108 A 
HETATM   30  C13 UNL     1      26.625   7.872   6.842  1.00  0.00     0.106 A 
HETATM   31  N5  UNL     1      25.845   7.727   5.765  1.00  0.00    -0.361 N 
HETATM   32  C14 UNL     1      24.599   8.110   6.047  1.00  0.00     0.182 A 
ATOM     33  H5  UNL     1      26.157   7.375   4.861  1.00  0.00     0.166 HD
ENDBRANCH  27  28
ENDBRANCH  23  27
ENDBRANCH  18  19
ENDBRANCH   1  18
TORSDOF 7
ENDMDL
