MODEL 1
REMARK VINA RESULT: -8.189235129      0.000      0.000
REMARK  6 active torsions:
REMARK  status: ('A' for Active; 'I' for Inactive)
REMARK    1  A    between atoms: C2_2  and  O1_3 
REMARK    2  A    between atoms: O1_3  and  C3_4 
REMARK    3  A    between atoms: C18_20  and  C19_21 
REMARK       I    between atoms: C19_21  and  N1_23 
REMARK    4  A    between atoms: N1_23  and  C20_25 
REMARK    5  A    between atoms: C20_25  and  C21_26 
REMARK    6  A    between atoms: C21_26  and  O4_27 
ROOT
HETATM    1  C3  UNL     1      24.386   6.844  18.219  1.00  0.00     0.220 C 
HETATM    2  C4  UNL     1      23.084   7.474  18.639  1.00  0.00     0.159 C 
HETATM    3  O2  UNL     1      22.539   7.048  19.630  1.00  0.00    -0.295 OA
HETATM    4  C5  UNL     1      22.550   8.574  17.815  1.00  0.00     0.082 C 
HETATM    5  C6  UNL     1      22.503   8.232  16.326  1.00  0.00     0.021 C 
HETATM    6  C7  UNL     1      23.936   7.877  15.950  1.00  0.00    -0.014 C 
HETATM    7  C8  UNL     1      24.803   9.072  16.347  1.00  0.00     0.020 C 
HETATM    8  C9  UNL     1      24.269   6.682  16.743  1.00  0.00    -0.039 C 
HETATM    9  C10 UNL     1      24.457   5.512  16.221  1.00  0.00    -0.020 C 
HETATM   10  C11 UNL     1      24.371   5.207  14.768  1.00  0.00     0.033 C 
HETATM   11  C12 UNL     1      23.626   6.310  14.035  1.00  0.00    -0.001 C 
HETATM   12  C13 UNL     1      24.143   7.634  14.504  1.00  0.00     0.003 C 
HETATM   13  C14 UNL     1      23.674   8.779  13.632  1.00  0.00     0.007 C 
HETATM   14  C15 UNL     1      24.185   8.533  12.226  1.00  0.00     0.011 C 
HETATM   15  C16 UNL     1      23.449   7.318  11.729  1.00  0.00    -0.028 C 
HETATM   16  C17 UNL     1      21.980   7.538  11.819  1.00  0.00     0.016 C 
HETATM   17  C18 UNL     1      23.887   6.819  10.395  1.00  0.00     0.086 C 
HETATM   18  C22 UNL     1      23.342   5.393  10.419  1.00  0.00     0.015 C 
HETATM   19  C23 UNL     1      23.264   5.006  11.903  1.00  0.00     0.007 C 
HETATM   20  C24 UNL     1      23.921   6.146  12.596  1.00  0.00    -0.001 C 
ENDROOT
BRANCH  17  21
HETATM   21  C19 UNL     1      23.370   7.598   9.262  1.00  0.00     0.222 C 
HETATM   22  O3  UNL     1      23.110   8.821   9.339  1.00  0.00    -0.273 OA
HETATM   23  N1  UNL     1      23.151   6.947   8.020  1.00  0.00    -0.359 N 
ATOM     24  H1  UNL     1      23.364   5.952   7.955  1.00  0.00     0.162 HD
BRANCH  23  25
HETATM   25  C20 UNL     1      22.642   7.614   6.840  1.00  0.00     0.148 C 
BRANCH  25  26
HETATM   26  C21 UNL     1      23.737   8.197   5.970  1.00  0.00     0.183 C 
BRANCH  26  27
HETATM   27  O4  UNL     1      23.829   9.555   6.367  1.00  0.00    -0.399 OA
ATOM     28  H4  UNL     1      24.497   9.928   5.804  1.00  0.00     0.209 HD
ENDBRANCH  26  27
ENDBRANCH  25  26
ENDBRANCH  23  25
ENDBRANCH  17  21
BRANCH   1  29
HETATM   29  O1  UNL     1      24.509   5.595  18.831  1.00  0.00    -0.374 OA
BRANCH  29  30
HETATM   30  C2  UNL     1      25.685   5.487  19.563  1.00  0.00     0.165 C 
HETATM   31  C1  UNL     1      26.456   6.764  19.646  1.00  0.00     0.033 C 
ENDBRANCH  29  30
ENDBRANCH   1  29
TORSDOF 6
ENDMDL
MODEL 2
REMARK VINA RESULT: -7.982633880      2.745      8.556
REMARK  6 active torsions:
REMARK  status: ('A' for Active; 'I' for Inactive)
REMARK    1  A    between atoms: C2_2  and  O1_3 
REMARK    2  A    between atoms: O1_3  and  C3_4 
REMARK    3  A    between atoms: C18_20  and  C19_21 
REMARK       I    between atoms: C19_21  and  N1_23 
REMARK    4  A    between atoms: N1_23  and  C20_25 
REMARK    5  A    between atoms: C20_25  and  C21_26 
REMARK    6  A    between atoms: C21_26  and  O4_27 
ROOT
HETATM    1  C3  UNL     1      21.546   7.281   9.587  1.00  0.00     0.220 C 
HETATM    2  C4  UNL     1      20.443   6.298   9.871  1.00  0.00     0.159 C 
HETATM    3  O2  UNL     1      19.373   6.472   9.336  1.00  0.00    -0.295 OA
HETATM    4  C5  UNL     1      20.731   5.178  10.787  1.00  0.00     0.082 C 
HETATM    5  C6  UNL     1      21.369   5.633  12.100  1.00  0.00     0.021 C 
HETATM    6  C7  UNL     1      22.631   6.384  11.694  1.00  0.00    -0.014 C 
HETATM    7  C8  UNL     1      23.454   5.424  10.834  1.00  0.00     0.020 C 
HETATM    8  C9  UNL     1      22.169   7.544  10.914  1.00  0.00    -0.039 C 
HETATM    9  C10 UNL     1      22.275   8.766  11.330  1.00  0.00    -0.020 C 
HETATM   10  C11 UNL     1      22.872   9.173  12.629  1.00  0.00     0.033 C 
HETATM   11  C12 UNL     1      22.944   7.988  13.577  1.00  0.00    -0.001 C 
HETATM   12  C13 UNL     1      23.480   6.806  12.831  1.00  0.00     0.003 C 
HETATM   13  C14 UNL     1      23.859   5.664  13.750  1.00  0.00     0.007 C 
HETATM   14  C15 UNL     1      24.933   6.165  14.696  1.00  0.00     0.011 C 
HETATM   15  C16 UNL     1      24.262   7.187  15.574  1.00  0.00    -0.028 C 
HETATM   16  C17 UNL     1      23.081   6.585  16.250  1.00  0.00     0.016 C 
HETATM   17  C18 UNL     1      25.172   7.906  16.511  1.00  0.00     0.086 C 
HETATM   18  C22 UNL     1      24.330   9.132  16.858  1.00  0.00     0.015 C 
HETATM   19  C23 UNL     1      23.397   9.345  15.658  1.00  0.00     0.007 C 
HETATM   20  C24 UNL     1      23.881   8.356  14.659  1.00  0.00    -0.001 C 
ENDROOT
BRANCH  17  21
HETATM   21  C19 UNL     1      25.546   7.129  17.699  1.00  0.00     0.222 C 
HETATM   22  O3  UNL     1      26.252   6.095  17.642  1.00  0.00    -0.273 OA
HETATM   23  N1  UNL     1      25.096   7.558  18.975  1.00  0.00    -0.359 N 
ATOM     24  H1  UNL     1      24.523   8.401  19.024  1.00  0.00     0.162 HD
BRANCH  23  25
HETATM   25  C20 UNL     1      25.400   6.869  20.211  1.00  0.00     0.148 C 
BRANCH  25  26
HETATM   26  C21 UNL     1      26.760   7.232  20.772  1.00  0.00     0.183 C 
BRANCH  26  27
HETATM   27  O4  UNL     1      27.572   6.099  20.514  1.00  0.00    -0.399 OA
ATOM     28  H4  UNL     1      28.447   6.363  20.771  1.00  0.00     0.209 HD
ENDBRANCH  26  27
ENDBRANCH  25  26
ENDBRANCH  23  25
ENDBRANCH  17  21
BRANCH   1  29
HETATM   29  O1  UNL     1      20.993   8.456   9.075  1.00  0.00    -0.374 OA
BRANCH  29  30
HETATM   30  C2  UNL     1      21.420   8.711   7.777  1.00  0.00     0.165 C 
HETATM   31  C1  UNL     1      22.790   9.302   7.705  1.00  0.00     0.033 C 
ENDBRANCH  29  30
ENDBRANCH   1  29
TORSDOF 6
ENDMDL
MODEL 3
REMARK VINA RESULT: -7.905127851      2.269      2.746
REMARK  6 active torsions:
REMARK  status: ('A' for Active; 'I' for Inactive)
REMARK    1  A    between atoms: C2_2  and  O1_3 
REMARK    2  A    between atoms: O1_3  and  C3_4 
REMARK    3  A    between atoms: C18_20  and  C19_21 
REMARK       I    between atoms: C19_21  and  N1_23 
REMARK    4  A    between atoms: N1_23  and  C20_25 
REMARK    5  A    between atoms: C20_25  and  C21_26 
REMARK    6  A    between atoms: C21_26  and  O4_27 
ROOT
HETATM    1  C3  UNL     1      25.118   7.400  19.177  1.00  0.00     0.220 C 
HETATM    2  C4  UNL     1      24.175   6.458  19.876  1.00  0.00     0.159 C 
HETATM    3  O2  UNL     1      24.611   5.777  20.774  1.00  0.00    -0.295 OA
HETATM    4  C5  UNL     1      22.772   6.419  19.423  1.00  0.00     0.082 C 
HETATM    5  C6  UNL     1      22.640   6.254  17.908  1.00  0.00     0.021 C 
HETATM    6  C7  UNL     1      23.406   7.427  17.309  1.00  0.00    -0.014 C 
HETATM    7  C8  UNL     1      22.803   8.697  17.910  1.00  0.00     0.020 C 
HETATM    8  C9  UNL     1      24.805   7.244  17.729  1.00  0.00    -0.039 C 
HETATM    9  C10 UNL     1      25.762   6.951  16.906  1.00  0.00    -0.020 C 
HETATM   10  C11 UNL     1      25.594   6.764  15.440  1.00  0.00     0.033 C 
HETATM   11  C12 UNL     1      24.132   6.533  15.097  1.00  0.00    -0.001 C 
HETATM   12  C13 UNL     1      23.299   7.534  15.836  1.00  0.00     0.003 C 
HETATM   13  C14 UNL     1      21.868   7.574  15.342  1.00  0.00     0.007 C 
HETATM   14  C15 UNL     1      21.893   7.957  13.875  1.00  0.00     0.011 C 
HETATM   15  C16 UNL     1      22.537   6.800  13.160  1.00  0.00    -0.028 C 
HETATM   16  C17 UNL     1      21.798   5.542  13.454  1.00  0.00     0.016 C 
HETATM   17  C18 UNL     1      22.776   7.014  11.704  1.00  0.00     0.086 C 
HETATM   18  C22 UNL     1      23.824   5.941  11.415  1.00  0.00     0.015 C 
HETATM   19  C23 UNL     1      24.545   5.699  12.749  1.00  0.00     0.007 C 
HETATM   20  C24 UNL     1      23.991   6.751  13.642  1.00  0.00    -0.001 C 
ENDROOT
BRANCH  17  21
HETATM   21  C19 UNL     1      21.576   6.864  10.870  1.00  0.00     0.222 C 
HETATM   22  O3  UNL     1      20.557   7.580  11.009  1.00  0.00    -0.273 OA
HETATM   23  N1  UNL     1      21.559   5.869   9.858  1.00  0.00    -0.359 N 
ATOM     24  H1  UNL     1      22.389   5.288   9.742  1.00  0.00     0.162 HD
BRANCH  23  25
HETATM   25  C20 UNL     1      20.432   5.631   8.981  1.00  0.00     0.148 C 
BRANCH  25  26
HETATM   26  C21 UNL     1      20.209   4.161   8.689  1.00  0.00     0.183 C 
BRANCH  26  27
HETATM   27  O4  UNL     1      20.905   3.924   7.476  1.00  0.00    -0.399 OA
ATOM     28  H4  UNL     1      21.484   3.196   7.667  1.00  0.00     0.209 HD
ENDBRANCH  26  27
ENDBRANCH  25  26
ENDBRANCH  23  25
ENDBRANCH  17  21
BRANCH   1  29
HETATM   29  O1  UNL     1      26.433   7.005  19.430  1.00  0.00    -0.374 OA
BRANCH  29  30
HETATM   30  C2  UNL     1      27.061   7.841  20.345  1.00  0.00     0.165 C 
HETATM   31  C1  UNL     1      28.129   7.162  21.138  1.00  0.00     0.033 C 
ENDBRANCH  29  30
ENDBRANCH   1  29
TORSDOF 6
ENDMDL
MODEL 4
REMARK VINA RESULT: -7.810867309      3.484      8.464
REMARK  6 active torsions:
REMARK  status: ('A' for Active; 'I' for Inactive)
REMARK    1  A    between atoms: C2_2  and  O1_3 
REMARK    2  A    between atoms: O1_3  and  C3_4 
REMARK    3  A    between atoms: C18_20  and  C19_21 
REMARK       I    between atoms: C19_21  and  N1_23 
REMARK    4  A    between atoms: N1_23  and  C20_25 
REMARK    5  A    between atoms: C20_25  and  C21_26 
REMARK    6  A    between atoms: C21_26  and  O4_27 
ROOT
HETATM    1  C3  UNL     1      19.892   5.302  10.875  1.00  0.00     0.220 C 
HETATM    2  C4  UNL     1      20.523   3.950  10.676  1.00  0.00     0.159 C 
HETATM    3  O2  UNL     1      19.823   3.047  10.281  1.00  0.00    -0.295 OA
HETATM    4  C5  UNL     1      21.959   3.804  10.976  1.00  0.00     0.082 C 
HETATM    5  C6  UNL     1      22.338   4.355  12.351  1.00  0.00     0.021 C 
HETATM    6  C7  UNL     1      21.899   5.814  12.335  1.00  0.00    -0.014 C 
HETATM    7  C8  UNL     1      22.582   6.463  11.130  1.00  0.00     0.020 C 
HETATM    8  C9  UNL     1      20.436   5.786  12.174  1.00  0.00    -0.039 C 
HETATM    9  C10 UNL     1      19.612   6.153  13.104  1.00  0.00    -0.020 C 
HETATM   10  C11 UNL     1      20.014   6.654  14.445  1.00  0.00     0.033 C 
HETATM   11  C12 UNL     1      21.456   6.280  14.744  1.00  0.00    -0.001 C 
HETATM   12  C13 UNL     1      22.291   6.581  13.539  1.00  0.00     0.003 C 
HETATM   13  C14 UNL     1      23.775   6.516  13.832  1.00  0.00     0.007 C 
HETATM   14  C15 UNL     1      24.084   7.545  14.902  1.00  0.00     0.011 C 
HETATM   15  C16 UNL     1      23.402   7.055  16.151  1.00  0.00    -0.028 C 
HETATM   16  C17 UNL     1      23.858   5.676  16.475  1.00  0.00     0.016 C 
HETATM   17  C18 UNL     1      23.473   7.986  17.313  1.00  0.00     0.086 C 
HETATM   18  C22 UNL     1      22.335   7.459  18.184  1.00  0.00     0.015 C 
HETATM   19  C23 UNL     1      21.351   6.788  17.215  1.00  0.00     0.007 C 
HETATM   20  C24 UNL     1      21.896   7.125  15.874  1.00  0.00    -0.001 C 
ENDROOT
BRANCH  17  21
HETATM   21  C19 UNL     1      24.765   7.976  18.012  1.00  0.00     0.222 C 
HETATM   22  O3  UNL     1      25.832   8.352  17.476  1.00  0.00    -0.273 OA
HETATM   23  N1  UNL     1      24.818   7.523  19.356  1.00  0.00    -0.359 N 
ATOM     24  H1  UNL     1      23.949   7.219  19.796  1.00  0.00     0.162 HD
BRANCH  23  25
HETATM   25  C20 UNL     1      26.034   7.467  20.140  1.00  0.00     0.148 C 
BRANCH  25  26
HETATM   26  C21 UNL     1      26.818   6.188  19.926  1.00  0.00     0.183 C 
BRANCH  26  27
HETATM   27  O4  UNL     1      25.882   5.147  20.158  1.00  0.00    -0.399 OA
ATOM     28  H4  UNL     1      25.350   5.120  19.372  1.00  0.00     0.209 HD
ENDBRANCH  26  27
ENDBRANCH  25  26
ENDBRANCH  23  25
ENDBRANCH  17  21
BRANCH   1  29
HETATM   29  O1  UNL     1      18.506   5.155  10.959  1.00  0.00    -0.374 OA
BRANCH  29  30
HETATM   30  C2  UNL     1      17.853   5.744   9.883  1.00  0.00     0.165 C 
HETATM   31  C1  UNL     1      18.633   6.844   9.242  1.00  0.00     0.033 C 
ENDBRANCH  29  30
ENDBRANCH   1  29
TORSDOF 6
ENDMDL
MODEL 5
REMARK VINA RESULT: -7.801555909      2.659      9.115
REMARK  6 active torsions:
REMARK  status: ('A' for Active; 'I' for Inactive)
REMARK    1  A    between atoms: C2_2  and  O1_3 
REMARK    2  A    between atoms: O1_3  and  C3_4 
REMARK    3  A    between atoms: C18_20  and  C19_21 
REMARK       I    between atoms: C19_21  and  N1_23 
REMARK    4  A    between atoms: N1_23  and  C20_25 
REMARK    5  A    between atoms: C20_25  and  C21_26 
REMARK    6  A    between atoms: C21_26  and  O4_27 
ROOT
HETATM    1  C3  UNL     1      23.402   7.517   5.911  1.00  0.00     0.220 C 
HETATM    2  C4  UNL     1      24.890   7.741   5.958  1.00  0.00     0.159 C 
HETATM    3  O2  UNL     1      25.564   7.281   5.066  1.00  0.00    -0.295 OA
HETATM    4  C5  UNL     1      25.440   8.507   7.092  1.00  0.00     0.082 C 
HETATM    5  C6  UNL     1      24.950   7.997   8.448  1.00  0.00     0.021 C 
HETATM    6  C7  UNL     1      23.430   8.079   8.382  1.00  0.00    -0.014 C 
HETATM    7  C8  UNL     1      23.084   9.527   8.033  1.00  0.00     0.020 C 
HETATM    8  C9  UNL     1      23.029   7.156   7.307  1.00  0.00    -0.039 C 
HETATM    9  C10 UNL     1      22.381   6.055   7.520  1.00  0.00    -0.020 C 
HETATM   10  C11 UNL     1      21.947   5.571   8.858  1.00  0.00     0.033 C 
HETATM   11  C12 UNL     1      22.716   6.283   9.958  1.00  0.00    -0.001 C 
HETATM   12  C13 UNL     1      22.747   7.748   9.653  1.00  0.00     0.003 C 
HETATM   13  C14 UNL     1      23.235   8.573  10.825  1.00  0.00     0.007 C 
HETATM   14  C15 UNL     1      22.285   8.342  11.985  1.00  0.00     0.011 C 
HETATM   15  C16 UNL     1      22.477   6.905  12.391  1.00  0.00    -0.028 C 
HETATM   16  C17 UNL     1      23.909   6.651  12.710  1.00  0.00     0.016 C 
HETATM   17  C18 UNL     1      21.545   6.420  13.449  1.00  0.00     0.086 C 
HETATM   18  C22 UNL     1      21.658   4.908  13.273  1.00  0.00     0.015 C 
HETATM   19  C23 UNL     1      22.060   4.693  11.806  1.00  0.00     0.007 C 
HETATM   20  C24 UNL     1      21.978   6.055  11.218  1.00  0.00    -0.001 C 
ENDROOT
BRANCH  17  21
HETATM   21  C19 UNL     1      21.900   6.855  14.807  1.00  0.00     0.222 C 
HETATM   22  O3  UNL     1      21.747   8.031  15.207  1.00  0.00    -0.273 OA
HETATM   23  N1  UNL     1      22.441   5.907  15.715  1.00  0.00    -0.359 N 
ATOM     24  H1  UNL     1      22.563   4.947  15.391  1.00  0.00     0.162 HD
BRANCH  23  25
HETATM   25  C20 UNL     1      22.828   6.223  17.073  1.00  0.00     0.148 C 
BRANCH  25  26
HETATM   26  C21 UNL     1      24.212   5.716  17.427  1.00  0.00     0.183 C 
BRANCH  26  27
HETATM   27  O4  UNL     1      24.466   4.677  16.497  1.00  0.00    -0.399 OA
ATOM     28  H4  UNL     1      25.266   4.266  16.804  1.00  0.00     0.209 HD
ENDBRANCH  26  27
ENDBRANCH  25  26
ENDBRANCH  23  25
ENDBRANCH  17  21
BRANCH   1  29
HETATM   29  O1  UNL     1      23.125   6.454   5.049  1.00  0.00    -0.374 OA
BRANCH  29  30
HETATM   30  C2  UNL     1      22.180   6.795   4.089  1.00  0.00     0.165 C 
HETATM   31  C1  UNL     1      22.753   7.528   2.921  1.00  0.00     0.033 C 
ENDBRANCH  29  30
ENDBRANCH   1  29
TORSDOF 6
ENDMDL
