MODEL 1
REMARK VINA RESULT: -8.910445799      0.000      0.000
REMARK  7 active torsions:
REMARK  status: ('A' for Active; 'I' for Inactive)
REMARK    1  A    between atoms: C2_2  and  O1_3 
REMARK    2  A    between atoms: O1_3  and  C3_4 
REMARK    3  A    between atoms: C3_4  and  C4_6 
REMARK    4  A    between atoms: C6_8  and  C7_9 
REMARK    5  A    between atoms: C7_9  and  C8_10 
REMARK       I    between atoms: N1_13  and  C11_14 
REMARK       I    between atoms: C11_14  and  N2_16 
REMARK    6  A    between atoms: N2_16  and  C12_18 
REMARK    7  A    between atoms: C12_18  and  C13_19 
ROOT
HETATM    1  C8  UNL     1      23.242   7.077  10.482  1.00  0.00    -0.006 C 
HETATM    2  C9  UNL     1      23.499   5.632  10.734  1.00  0.00     0.025 C 
HETATM    3  C10 UNL     1      23.832   5.266  12.138  1.00  0.00     0.128 C 
HETATM    4  N1  UNL     1      23.908   6.380  13.057  1.00  0.00    -0.334 N 
HETATM    5  C11 UNL     1      24.729   6.276  14.200  1.00  0.00     0.318 C 
HETATM    6  O3  UNL     1      25.372   5.225  14.387  1.00  0.00    -0.247 OA
HETATM    7  N2  UNL     1      24.820   7.335  15.110  1.00  0.00    -0.343 N 
ATOM      8  H2  UNL     1      24.270   8.173  14.917  1.00  0.00     0.164 HD
HETATM    9  C21 UNL     1      23.172   7.613  12.856  1.00  0.00     0.128 C 
HETATM   10  C22 UNL     1      22.325   7.570  11.605  1.00  0.00     0.025 C 
ENDROOT
BRANCH   1  11
HETATM   11  C7  UNL     1      22.630   7.293   9.139  1.00  0.00     0.063 C 
BRANCH  11  12
HETATM   12  C6  UNL     1      23.701   7.548   8.141  1.00  0.00     0.028 A 
HETATM   13  C5  UNL     1      23.557   7.618   6.774  1.00  0.00     0.063 A 
HETATM   14  C4  UNL     1      24.778   7.866   6.203  1.00  0.00     0.125 A 
HETATM   15  N4  UNL     1      25.643   7.944   7.222  1.00  0.00    -0.295 N 
HETATM   16  N3  UNL     1      25.021   7.758   8.373  1.00  0.00    -0.304 N 
ATOM     17  H4  UNL     1      26.642   8.123   7.124  1.00  0.00     0.187 HD
ATOM     18  H3  UNL     1      25.464   7.769   9.292  1.00  0.00     0.186 HD
BRANCH  14  19
HETATM   19  C3  UNL     1      25.122   8.021   4.789  1.00  0.00     0.311 C 
HETATM   20  O2  UNL     1      26.259   7.662   4.377  1.00  0.00    -0.258 OA
BRANCH  19  21
HETATM   21  O1  UNL     1      24.262   8.549   3.858  1.00  0.00    -0.317 OA
BRANCH  21  22
HETATM   22  C2  UNL     1      23.706   7.758   2.795  1.00  0.00     0.175 C 
HETATM   23  C1  UNL     1      22.261   7.502   3.166  1.00  0.00     0.034 C 
ENDBRANCH  21  22
ENDBRANCH  19  21
ENDBRANCH  14  19
ENDBRANCH  11  12
ENDBRANCH   1  11
BRANCH   7  24
HETATM   24  C12 UNL     1      25.622   7.330  16.284  1.00  0.00     0.129 C 
BRANCH  24  25
HETATM   25  C13 UNL     1      25.000   6.475  17.355  1.00  0.00     0.008 C 
HETATM   26  C14 UNL     1      23.836   7.281  17.905  1.00  0.00     0.007 C 
HETATM   27  C15 UNL     1      23.511   6.925  19.321  1.00  0.00     0.005 C 
HETATM   28  C16 UNL     1      24.768   6.594  20.084  1.00  0.00    -0.010 C 
HETATM   29  C17 UNL     1      25.352   5.317  19.480  1.00  0.00     0.010 C 
HETATM   30  C19 UNL     1      25.962   7.327  19.457  1.00  0.00    -0.010 C 
HETATM   31  C18 UNL     1      26.016   6.207  18.444  1.00  0.00    -0.004 C 
HETATM   32  C20 UNL     1      27.116   7.389  20.410  1.00  0.00     0.011 C 
ENDBRANCH  24  25
ENDBRANCH   7  24
TORSDOF 7
ENDMDL
MODEL 2
REMARK VINA RESULT: -8.857370337      3.489     11.464
REMARK  7 active torsions:
REMARK  status: ('A' for Active; 'I' for Inactive)
REMARK    1  A    between atoms: C2_2  and  O1_3 
REMARK    2  A    between atoms: O1_3  and  C3_4 
REMARK    3  A    between atoms: C3_4  and  C4_6 
REMARK    4  A    between atoms: C6_8  and  C7_9 
REMARK    5  A    between atoms: C7_9  and  C8_10 
REMARK       I    between atoms: N1_13  and  C11_14 
REMARK       I    between atoms: C11_14  and  N2_16 
REMARK    6  A    between atoms: N2_16  and  C12_18 
REMARK    7  A    between atoms: C12_18  and  C13_19 
ROOT
HETATM    1  C8  UNL     1      23.541   6.462  17.158  1.00  0.00    -0.006 C 
HETATM    2  C9  UNL     1      24.798   6.942  16.519  1.00  0.00     0.025 C 
HETATM    3  C10 UNL     1      24.838   6.874  15.032  1.00  0.00     0.128 C 
HETATM    4  N1  UNL     1      23.661   6.303  14.415  1.00  0.00    -0.334 N 
HETATM    5  C11 UNL     1      23.778   5.674  13.158  1.00  0.00     0.318 C 
HETATM    6  O3  UNL     1      24.897   5.623  12.611  1.00  0.00    -0.247 OA
HETATM    7  N2  UNL     1      22.657   5.115  12.534  1.00  0.00    -0.343 N 
ATOM      8  H2  UNL     1      21.762   5.186  13.019  1.00  0.00     0.164 HD
HETATM    9  C21 UNL     1      22.351   6.347  15.037  1.00  0.00     0.128 C 
HETATM   10  C22 UNL     1      22.378   7.067  16.366  1.00  0.00     0.025 C 
ENDROOT
BRANCH   1  11
HETATM   11  C7  UNL     1      23.484   6.847  18.598  1.00  0.00     0.063 C 
BRANCH  11  12
HETATM   12  C6  UNL     1      24.774   6.513  19.252  1.00  0.00     0.028 A 
HETATM   13  C5  UNL     1      25.660   7.394  19.830  1.00  0.00     0.063 A 
HETATM   14  C4  UNL     1      26.733   6.698  20.323  1.00  0.00     0.125 A 
HETATM   15  N4  UNL     1      26.487   5.412  20.043  1.00  0.00    -0.295 N 
HETATM   16  N3  UNL     1      25.334   5.288  19.410  1.00  0.00    -0.304 N 
ATOM     17  H4  UNL     1      27.104   4.636  20.284  1.00  0.00     0.187 HD
ATOM     18  H3  UNL     1      24.928   4.408  19.090  1.00  0.00     0.186 HD
BRANCH  14  19
HETATM   19  C3  UNL     1      27.921   7.199  21.016  1.00  0.00     0.311 C 
HETATM   20  O2  UNL     1      28.266   8.404  20.878  1.00  0.00    -0.258 OA
BRANCH  19  21
HETATM   21  O1  UNL     1      28.704   6.417  21.828  1.00  0.00    -0.317 OA
BRANCH  21  22
HETATM   22  C2  UNL     1      29.469   6.967  22.913  1.00  0.00     0.175 C 
HETATM   23  C1  UNL     1      28.767   6.546  24.186  1.00  0.00     0.034 C 
ENDBRANCH  21  22
ENDBRANCH  19  21
ENDBRANCH  14  19
ENDBRANCH  11  12
ENDBRANCH   1  11
BRANCH   7  24
HETATM   24  C12 UNL     1      22.674   4.456  11.274  1.00  0.00     0.129 C 
BRANCH  24  25
HETATM   25  C13 UNL     1      21.822   5.188  10.274  1.00  0.00     0.008 C 
HETATM   26  C14 UNL     1      21.977   4.434   8.965  1.00  0.00     0.007 C 
HETATM   27  C15 UNL     1      21.756   5.307   7.771  1.00  0.00     0.005 C 
HETATM   28  C16 UNL     1      22.274   6.698   8.032  1.00  0.00    -0.010 C 
HETATM   29  C17 UNL     1      21.411   7.313   9.134  1.00  0.00     0.010 C 
HETATM   30  C19 UNL     1      23.402   6.645   9.070  1.00  0.00    -0.010 C 
HETATM   31  C18 UNL     1      22.321   6.609  10.126  1.00  0.00    -0.004 C 
HETATM   32  C20 UNL     1      24.225   7.896   9.034  1.00  0.00     0.011 C 
ENDBRANCH  24  25
ENDBRANCH   7  24
TORSDOF 7
ENDMDL
MODEL 3
REMARK VINA RESULT: -8.762301980      3.619     11.336
REMARK  7 active torsions:
REMARK  status: ('A' for Active; 'I' for Inactive)
REMARK    1  A    between atoms: C2_2  and  O1_3 
REMARK    2  A    between atoms: O1_3  and  C3_4 
REMARK    3  A    between atoms: C3_4  and  C4_6 
REMARK    4  A    between atoms: C6_8  and  C7_9 
REMARK    5  A    between atoms: C7_9  and  C8_10 
REMARK       I    between atoms: N1_13  and  C11_14 
REMARK       I    between atoms: C11_14  and  N2_16 
REMARK    6  A    between atoms: N2_16  and  C12_18 
REMARK    7  A    between atoms: C12_18  and  C13_19 
ROOT
HETATM    1  C8  UNL     1      23.610   7.143  17.252  1.00  0.00    -0.006 C 
HETATM    2  C9  UNL     1      24.245   8.472  17.029  1.00  0.00     0.025 C 
HETATM    3  C10 UNL     1      24.215   8.979  15.629  1.00  0.00     0.128 C 
HETATM    4  N1  UNL     1      23.611   8.082  14.668  1.00  0.00    -0.334 N 
HETATM    5  C11 UNL     1      24.007   8.155  13.315  1.00  0.00     0.318 C 
HETATM    6  O3  UNL     1      24.871   8.989  12.984  1.00  0.00    -0.247 OA
HETATM    7  N2  UNL     1      23.439   7.303  12.361  1.00  0.00    -0.343 N 
ATOM      8  H2  UNL     1      22.732   6.640  12.680  1.00  0.00     0.164 HD
HETATM    9  C21 UNL     1      22.608   7.102  15.034  1.00  0.00     0.128 C 
HETATM   10  C22 UNL     1      22.273   7.156  16.507  1.00  0.00     0.025 C 
ENDROOT
BRANCH   1  11
HETATM   11  C7  UNL     1      23.426   6.868  18.707  1.00  0.00     0.063 C 
BRANCH  11  12
HETATM   12  C6  UNL     1      24.736   6.526  19.317  1.00  0.00     0.028 A 
HETATM   13  C5  UNL     1      25.630   7.398  19.897  1.00  0.00     0.063 A 
HETATM   14  C4  UNL     1      26.721   6.697  20.340  1.00  0.00     0.125 A 
HETATM   15  N4  UNL     1      26.480   5.418  20.028  1.00  0.00    -0.295 N 
HETATM   16  N3  UNL     1      25.311   5.302  19.423  1.00  0.00    -0.304 N 
ATOM     17  H4  UNL     1      27.109   4.641  20.230  1.00  0.00     0.187 HD
ATOM     18  H3  UNL     1      24.905   4.428  19.087  1.00  0.00     0.186 HD
BRANCH  14  19
HETATM   19  C3  UNL     1      27.923   7.189  21.016  1.00  0.00     0.311 C 
HETATM   20  O2  UNL     1      28.276   8.392  20.875  1.00  0.00    -0.258 OA
BRANCH  19  21
HETATM   21  O1  UNL     1      28.712   6.400  21.816  1.00  0.00    -0.317 OA
BRANCH  21  22
HETATM   22  C2  UNL     1      29.463   6.937  22.917  1.00  0.00     0.175 C 
HETATM   23  C1  UNL     1      28.746   6.499  24.176  1.00  0.00     0.034 C 
ENDBRANCH  21  22
ENDBRANCH  19  21
ENDBRANCH  14  19
ENDBRANCH  11  12
ENDBRANCH   1  11
BRANCH   7  24
HETATM   24  C12 UNL     1      23.775   7.294  10.980  1.00  0.00     0.129 C 
BRANCH  24  25
HETATM   25  C13 UNL     1      23.427   5.972  10.352  1.00  0.00     0.008 C 
HETATM   26  C14 UNL     1      22.958   6.292   8.943  1.00  0.00     0.007 C 
HETATM   27  C15 UNL     1      22.011   5.265   8.407  1.00  0.00     0.005 C 
HETATM   28  C16 UNL     1      21.131   4.734   9.510  1.00  0.00    -0.010 C 
HETATM   29  C17 UNL     1      22.025   3.972  10.487  1.00  0.00     0.010 C 
HETATM   30  C19 UNL     1      20.984   5.792  10.611  1.00  0.00    -0.010 C 
HETATM   31  C18 UNL     1      22.316   5.312  11.140  1.00  0.00    -0.004 C 
HETATM   32  C20 UNL     1      19.802   5.500  11.483  1.00  0.00     0.011 C 
ENDBRANCH  24  25
ENDBRANCH   7  24
TORSDOF 7
ENDMDL
MODEL 4
REMARK VINA RESULT: -8.608782438      1.539      2.300
REMARK  7 active torsions:
REMARK  status: ('A' for Active; 'I' for Inactive)
REMARK    1  A    between atoms: C2_2  and  O1_3 
REMARK    2  A    between atoms: O1_3  and  C3_4 
REMARK    3  A    between atoms: C3_4  and  C4_6 
REMARK    4  A    between atoms: C6_8  and  C7_9 
REMARK    5  A    between atoms: C7_9  and  C8_10 
REMARK       I    between atoms: N1_13  and  C11_14 
REMARK       I    between atoms: C11_14  and  N2_16 
REMARK    6  A    between atoms: N2_16  and  C12_18 
REMARK    7  A    between atoms: C12_18  and  C13_19 
ROOT
HETATM    1  C8  UNL     1      22.760   7.753  10.730  1.00  0.00    -0.006 C 
HETATM    2  C9  UNL     1      23.303   6.367  10.662  1.00  0.00     0.025 C 
HETATM    3  C10 UNL     1      23.824   5.811  11.941  1.00  0.00     0.128 C 
HETATM    4  N1  UNL     1      23.774   6.718  13.067  1.00  0.00    -0.334 N 
HETATM    5  C11 UNL     1      24.699   6.560  14.121  1.00  0.00     0.318 C 
HETATM    6  O3  UNL     1      25.541   5.644  14.052  1.00  0.00    -0.247 OA
HETATM    7  N2  UNL     1      24.673   7.419  15.225  1.00  0.00    -0.343 N 
ATOM      8  H2  UNL     1      23.962   8.151  15.238  1.00  0.00     0.164 HD
HETATM    9  C21 UNL     1      22.805   7.793  13.164  1.00  0.00     0.128 C 
HETATM   10  C22 UNL     1      21.872   7.824  11.975  1.00  0.00     0.025 C 
ENDROOT
BRANCH   1  11
HETATM   11  C7  UNL     1      22.000   8.098   9.493  1.00  0.00     0.063 C 
BRANCH  11  12
HETATM   12  C6  UNL     1      22.952   8.374   8.387  1.00  0.00     0.028 A 
HETATM   13  C5  UNL     1      24.121   7.699   8.115  1.00  0.00     0.063 A 
HETATM   14  C4  UNL     1      24.718   8.256   7.015  1.00  0.00     0.125 A 
HETATM   15  N4  UNL     1      23.912   9.254   6.633  1.00  0.00    -0.295 N 
HETATM   16  N3  UNL     1      22.865   9.336   7.435  1.00  0.00    -0.304 N 
ATOM     17  H4  UNL     1      24.082   9.866   5.834  1.00  0.00     0.187 HD
ATOM     18  H3  UNL     1      22.110  10.016   7.351  1.00  0.00     0.186 HD
BRANCH  14  19
HETATM   19  C3  UNL     1      25.969   7.881   6.354  1.00  0.00     0.311 C 
HETATM   20  O2  UNL     1      25.941   7.185   5.302  1.00  0.00    -0.258 OA
BRANCH  19  21
HETATM   21  O1  UNL     1      27.207   8.251   6.820  1.00  0.00    -0.317 OA
BRANCH  21  22
HETATM   22  C2  UNL     1      27.747   7.736   8.048  1.00  0.00     0.175 C 
HETATM   23  C1  UNL     1      29.002   6.976   7.675  1.00  0.00     0.034 C 
ENDBRANCH  21  22
ENDBRANCH  19  21
ENDBRANCH  14  19
ENDBRANCH  11  12
ENDBRANCH   1  11
BRANCH   7  24
HETATM   24  C12 UNL     1      25.564   7.347  16.330  1.00  0.00     0.129 C 
BRANCH  24  25
HETATM   25  C13 UNL     1      25.016   6.447  17.404  1.00  0.00     0.008 C 
HETATM   26  C14 UNL     1      23.819   7.177  17.987  1.00  0.00     0.007 C 
HETATM   27  C15 UNL     1      23.545   6.788  19.405  1.00  0.00     0.005 C 
HETATM   28  C16 UNL     1      24.835   6.525  20.138  1.00  0.00    -0.010 C 
HETATM   29  C17 UNL     1      25.480   5.291  19.509  1.00  0.00     0.010 C 
HETATM   30  C19 UNL     1      25.970   7.333  19.495  1.00  0.00    -0.010 C 
HETATM   31  C18 UNL     1      26.069   6.228  18.469  1.00  0.00    -0.004 C 
HETATM   32  C20 UNL     1      27.138   7.454  20.426  1.00  0.00     0.011 C 
ENDBRANCH  24  25
ENDBRANCH   7  24
TORSDOF 7
ENDMDL
MODEL 5
REMARK VINA RESULT: -8.559160391      2.081      3.098
REMARK  7 active torsions:
REMARK  status: ('A' for Active; 'I' for Inactive)
REMARK    1  A    between atoms: C2_2  and  O1_3 
REMARK    2  A    between atoms: O1_3  and  C3_4 
REMARK    3  A    between atoms: C3_4  and  C4_6 
REMARK    4  A    between atoms: C6_8  and  C7_9 
REMARK    5  A    between atoms: C7_9  and  C8_10 
REMARK       I    between atoms: N1_13  and  C11_14 
REMARK       I    between atoms: C11_14  and  N2_16 
REMARK    6  A    between atoms: N2_16  and  C12_18 
REMARK    7  A    between atoms: C12_18  and  C13_19 
ROOT
HETATM    1  C8  UNL     1      21.990   5.276  10.257  1.00  0.00    -0.006 C 
HETATM    2  C9  UNL     1      22.505   4.021  10.872  1.00  0.00     0.025 C 
HETATM    3  C10 UNL     1      23.162   4.169  12.200  1.00  0.00     0.128 C 
HETATM    4  N1  UNL     1      23.253   5.528  12.687  1.00  0.00    -0.334 N 
HETATM    5  C11 UNL     1      24.291   5.873  13.578  1.00  0.00     0.318 C 
HETATM    6  O3  UNL     1      25.108   4.997  13.920  1.00  0.00    -0.247 OA
HETATM    7  N2  UNL     1      24.402   7.178  14.070  1.00  0.00    -0.343 N 
ATOM      8  H2  UNL     1      23.707   7.860  13.765  1.00  0.00     0.164 HD
HETATM    9  C21 UNL     1      22.315   6.564  12.298  1.00  0.00     0.128 C 
HETATM   10  C22 UNL     1      21.252   6.043  11.358  1.00  0.00     0.025 C 
ENDROOT
BRANCH   1  11
HETATM   11  C7  UNL     1      21.098   4.985   9.097  1.00  0.00     0.063 C 
BRANCH  11  12
HETATM   12  C6  UNL     1      21.802   5.321   7.834  1.00  0.00     0.028 A 
HETATM   13  C5  UNL     1      22.280   6.555   7.457  1.00  0.00     0.063 A 
HETATM   14  C4  UNL     1      22.865   6.455   6.221  1.00  0.00     0.125 A 
HETATM   15  N4  UNL     1      22.737   5.171   5.864  1.00  0.00    -0.295 N 
HETATM   16  N3  UNL     1      22.111   4.489   6.807  1.00  0.00    -0.304 N 
ATOM     17  H4  UNL     1      23.076   4.775   4.988  1.00  0.00     0.187 HD
ATOM     18  H3  UNL     1      21.893   3.493   6.769  1.00  0.00     0.186 HD
BRANCH  14  19
HETATM   19  C3  UNL     1      23.506   7.496   5.415  1.00  0.00     0.311 C 
HETATM   20  O2  UNL     1      23.190   7.635   4.202  1.00  0.00    -0.258 OA
BRANCH  19  21
HETATM   21  O1  UNL     1      24.457   8.353   5.911  1.00  0.00    -0.317 OA
BRANCH  21  22
HETATM   22  C2  UNL     1      25.810   7.936   6.157  1.00  0.00     0.175 C 
HETATM   23  C1  UNL     1      26.078   8.201   7.622  1.00  0.00     0.034 C 
ENDBRANCH  21  22
ENDBRANCH  19  21
ENDBRANCH  14  19
ENDBRANCH  11  12
ENDBRANCH   1  11
BRANCH   7  24
HETATM   24  C12 UNL     1      25.414   7.625  14.964  1.00  0.00     0.129 C 
BRANCH  24  25
HETATM   25  C13 UNL     1      24.819   8.430  16.087  1.00  0.00     0.008 C 
HETATM   26  C14 UNL     1      25.408   7.858  17.365  1.00  0.00     0.007 C 
HETATM   27  C15 UNL     1      24.516   8.061  18.549  1.00  0.00     0.005 C 
HETATM   28  C16 UNL     1      23.069   7.953  18.142  1.00  0.00    -0.010 C 
HETATM   29  C17 UNL     1      22.762   9.127  17.212  1.00  0.00     0.010 C 
HETATM   30  C19 UNL     1      22.944   7.057  16.903  1.00  0.00    -0.010 C 
HETATM   31  C18 UNL     1      23.314   8.272  16.084  1.00  0.00    -0.004 C 
HETATM   32  C20 UNL     1      21.538   6.570  16.731  1.00  0.00     0.011 C 
ENDBRANCH  24  25
ENDBRANCH   7  24
TORSDOF 7
ENDMDL
