MODEL 1
REMARK VINA RESULT: -9.054331398      0.000      0.000
REMARK  7 active torsions:
REMARK  status: ('A' for Active; 'I' for Inactive)
REMARK    1  A    between atoms: C4_6  and  C5_7 
REMARK    2  A    between atoms: C17_26  and  C18_27 
REMARK    3  A    between atoms: C18_27  and  N4_28 
REMARK    4  A    between atoms: C18_27  and  C19_32 
REMARK    5  A    between atoms: C19_32  and  S1_33 
REMARK    6  A    between atoms: S1_33  and  C20_36 
REMARK    7  A    between atoms: C21_37  and  C22_38 
ROOT
HETATM    1  C5  UNL     1      44.158  50.510  22.283  1.00  0.00     0.071 C 
HETATM    2  C6  UNL     1      44.532  50.310  20.797  1.00  0.00     0.045 C 
HETATM    3  N2  UNL     1      44.750  51.847  22.467  1.00  0.00    -0.365 N 
ATOM      4  H2  UNL     1      45.723  52.087  22.278  1.00  0.00     0.162 HD
HETATM    5  C7  UNL     1      43.763  52.757  22.950  1.00  0.00     0.080 C 
HETATM    6  N3  UNL     1      43.807  54.047  22.898  1.00  0.00    -0.388 N 
ATOM      7  H31 UNL     1      43.102  54.697  23.244  1.00  0.00     0.157 HD
ATOM      8  H32 UNL     1      44.520  54.664  22.508  1.00  0.00     0.157 HD
HETATM    9  C8  UNL     1      42.752  51.881  23.504  1.00  0.00     0.025 C 
HETATM   10  C9  UNL     1      41.472  52.422  23.940  1.00  0.00     0.024 C 
HETATM   11  C10 UNL     1      43.391  51.376  24.832  1.00  0.00     0.024 C 
HETATM   12  C11 UNL     1      42.742  50.630  22.572  1.00  0.00     0.056 C 
HETATM   13  C12 UNL     1      41.911  49.728  23.394  1.00  0.00     0.185 C 
HETATM   14  O1  UNL     1      40.863  49.964  22.503  1.00  0.00    -0.378 OA
HETATM   15  C13 UNL     1      41.689  50.580  21.560  1.00  0.00     0.084 C 
HETATM   16  C14 UNL     1      41.300  51.912  20.987  1.00  0.00     0.066 C 
HETATM   17  C15 UNL     1      39.830  52.015  20.599  1.00  0.00     0.170 C 
HETATM   18  O2  UNL     1      39.742  51.198  19.485  1.00  0.00    -0.390 OA
HETATM   19  C16 UNL     1      40.028  49.907  19.979  1.00  0.00     0.177 C 
HETATM   20  C17 UNL     1      41.473  49.718  20.390  1.00  0.00     0.076 C 
ENDROOT
BRANCH   1  21
HETATM   21  C4  UNL     1      45.039  49.545  22.941  1.00  0.00     0.001 A 
HETATM   22  C3  UNL     1      45.614  48.518  22.228  1.00  0.00     0.100 A 
HETATM   23  N1  UNL     1      46.420  47.581  22.769  1.00  0.00    -0.355 N 
HETATM   24  C2  UNL     1      46.690  47.646  24.092  1.00  0.00     0.076 A 
ATOM     25  H1  UNL     1      46.817  46.839  22.193  1.00  0.00     0.166 HD
HETATM   26  C1  UNL     1      47.585  46.599  24.669  1.00  0.00     0.089 C 
HETATM   27  N5  UNL     1      46.139  48.643  24.807  1.00  0.00    -0.355 N 
HETATM   28  C24 UNL     1      45.334  49.582  24.284  1.00  0.00     0.100 A 
ATOM     29  H5  UNL     1      46.345  48.689  25.805  1.00  0.00     0.166 HD
ENDBRANCH   1  21
BRANCH  20  30
HETATM   30  C18 UNL     1      41.667  48.267  20.380  1.00  0.00     0.206 C 
BRANCH  30  31
HETATM   31  N4  UNL     1      40.667  47.576  21.239  1.00  0.00    -0.074 N 
ATOM     32  H43 UNL     1      41.045  46.715  21.633  1.00  0.00     0.274 HD
ATOM     33  H42 UNL     1      40.503  48.088  22.105  1.00  0.00     0.274 HD
ATOM     34  H41 UNL     1      39.795  47.406  20.735  1.00  0.00     0.274 HD
ENDBRANCH  30  31
BRANCH  30  35
HETATM   35  C19 UNL     1      41.265  47.701  18.987  1.00  0.00     0.178 C 
BRANCH  35  36
HETATM   36  S1  UNL     1      42.672  46.958  18.209  1.00  0.00     0.167 S 
HETATM   37  O3  UNL     1      43.889  47.838  18.435  1.00  0.00    -0.223 OA
HETATM   38  O4  UNL     1      42.477  47.023  16.674  1.00  0.00    -0.223 OA
BRANCH  36  39
HETATM   39  C20 UNL     1      43.048  45.334  18.616  1.00  0.00     0.111 C 
HETATM   40  C21 UNL     1      42.396  44.119  18.194  1.00  0.00     0.062 C 
BRANCH  40  41
HETATM   41  C22 UNL     1      41.014  43.740  18.546  1.00  0.00     0.259 C 
HETATM   42  C23 UNL     1      40.054  44.232  17.411  1.00  0.00     0.095 C 
HETATM   43  F1  UNL     1      40.537  44.383  19.657  1.00  0.00    -0.202 F 
HETATM   44  F2  UNL     1      40.828  42.371  18.727  1.00  0.00    -0.202 F 
ENDBRANCH  40  41
ENDBRANCH  36  39
ENDBRANCH  35  36
ENDBRANCH  30  35
ENDBRANCH  20  30
TORSDOF 7
ENDMDL
MODEL 2
REMARK VINA RESULT: -8.999814830      1.339      1.521
REMARK  7 active torsions:
REMARK  status: ('A' for Active; 'I' for Inactive)
REMARK    1  A    between atoms: C4_6  and  C5_7 
REMARK    2  A    between atoms: C17_26  and  C18_27 
REMARK    3  A    between atoms: C18_27  and  N4_28 
REMARK    4  A    between atoms: C18_27  and  C19_32 
REMARK    5  A    between atoms: C19_32  and  S1_33 
REMARK    6  A    between atoms: S1_33  and  C20_36 
REMARK    7  A    between atoms: C21_37  and  C22_38 
ROOT
HETATM    1  C5  UNL     1      43.985  50.770  22.585  1.00  0.00     0.071 C 
HETATM    2  C6  UNL     1      44.490  50.325  21.195  1.00  0.00     0.045 C 
HETATM    3  N2  UNL     1      44.823  51.972  22.737  1.00  0.00    -0.365 N 
ATOM      4  H2  UNL     1      45.841  51.987  22.674  1.00  0.00     0.162 HD
HETATM    5  C7  UNL     1      44.003  53.112  22.986  1.00  0.00     0.080 C 
HETATM    6  N3  UNL     1      44.331  54.352  22.828  1.00  0.00    -0.388 N 
ATOM      7  H31 UNL     1      43.745  55.167  23.007  1.00  0.00     0.157 HD
ATOM      8  H32 UNL     1      45.203  54.763  22.495  1.00  0.00     0.157 HD
HETATM    9  C8  UNL     1      42.765  52.530  23.460  1.00  0.00     0.025 C 
HETATM   10  C9  UNL     1      41.587  53.365  23.652  1.00  0.00     0.024 C 
HETATM   11  C10 UNL     1      43.107  52.066  24.906  1.00  0.00     0.024 C 
HETATM   12  C11 UNL     1      42.603  51.205  22.650  1.00  0.00     0.056 C 
HETATM   13  C12 UNL     1      41.500  50.592  23.416  1.00  0.00     0.185 C 
HETATM   14  O1  UNL     1      40.649  50.929  22.363  1.00  0.00    -0.378 OA
HETATM   15  C13 UNL     1      41.700  51.251  21.502  1.00  0.00     0.084 C 
HETATM   16  C14 UNL     1      41.684  52.558  20.762  1.00  0.00     0.066 C 
HETATM   17  C15 UNL     1      40.332  52.908  20.154  1.00  0.00     0.170 C 
HETATM   18  O2  UNL     1      40.210  52.001  19.115  1.00  0.00    -0.390 OA
HETATM   19  C16 UNL     1      40.146  50.746  19.758  1.00  0.00     0.177 C 
HETATM   20  C17 UNL     1      41.452  50.319  20.393  1.00  0.00     0.076 C 
ENDROOT
BRANCH   1  21
HETATM   21  C4  UNL     1      44.546  49.731  23.450  1.00  0.00     0.001 A 
HETATM   22  C3  UNL     1      45.904  49.509  23.491  1.00  0.00     0.100 A 
HETATM   23  N1  UNL     1      46.491  48.559  24.248  1.00  0.00    -0.355 N 
HETATM   24  C2  UNL     1      45.709  47.772  25.020  1.00  0.00     0.076 A 
ATOM     25  H1  UNL     1      47.504  48.437  24.238  1.00  0.00     0.166 HD
HETATM   26  C1  UNL     1      46.381  46.729  25.850  1.00  0.00     0.089 C 
HETATM   27  N5  UNL     1      44.380  47.974  24.995  1.00  0.00    -0.355 N 
HETATM   28  C24 UNL     1      43.779  48.914  24.247  1.00  0.00     0.100 A 
ATOM     29  H5  UNL     1      43.793  47.379  25.579  1.00  0.00     0.166 HD
ENDBRANCH   1  21
BRANCH  20  30
HETATM   30  C18 UNL     1      41.328  48.868  20.540  1.00  0.00     0.206 C 
BRANCH  30  31
HETATM   31  N4  UNL     1      39.910  48.457  20.721  1.00  0.00    -0.074 N 
ATOM     32  H43 UNL     1      39.305  49.263  20.879  1.00  0.00     0.274 HD
ATOM     33  H42 UNL     1      39.504  48.124  19.847  1.00  0.00     0.274 HD
ATOM     34  H41 UNL     1      39.812  47.765  21.466  1.00  0.00     0.274 HD
ENDBRANCH  30  31
BRANCH  30  35
HETATM   35  C19 UNL     1      41.637  48.182  19.177  1.00  0.00     0.178 C 
BRANCH  35  36
HETATM   36  S1  UNL     1      41.906  46.448  19.422  1.00  0.00     0.167 S 
HETATM   37  O3  UNL     1      42.220  46.194  20.886  1.00  0.00    -0.223 OA
HETATM   38  O4  UNL     1      43.223  46.050  18.711  1.00  0.00    -0.223 OA
BRANCH  36  39
HETATM   39  C20 UNL     1      40.684  45.366  18.895  1.00  0.00     0.111 C 
HETATM   40  C21 UNL     1      40.747  43.934  18.737  1.00  0.00     0.062 C 
BRANCH  40  41
HETATM   41  C22 UNL     1      41.595  43.232  17.755  1.00  0.00     0.259 C 
HETATM   42  C23 UNL     1      40.994  41.809  17.498  1.00  0.00     0.095 C 
HETATM   43  F1  UNL     1      42.855  42.959  18.217  1.00  0.00    -0.202 F 
HETATM   44  F2  UNL     1      41.718  43.893  16.533  1.00  0.00    -0.202 F 
ENDBRANCH  40  41
ENDBRANCH  36  39
ENDBRANCH  35  36
ENDBRANCH  30  35
ENDBRANCH  20  30
TORSDOF 7
ENDMDL
MODEL 3
REMARK VINA RESULT: -8.989354857      0.968      1.183
REMARK  7 active torsions:
REMARK  status: ('A' for Active; 'I' for Inactive)
REMARK    1  A    between atoms: C4_6  and  C5_7 
REMARK    2  A    between atoms: C17_26  and  C18_27 
REMARK    3  A    between atoms: C18_27  and  N4_28 
REMARK    4  A    between atoms: C18_27  and  C19_32 
REMARK    5  A    between atoms: C19_32  and  S1_33 
REMARK    6  A    between atoms: S1_33  and  C20_36 
REMARK    7  A    between atoms: C21_37  and  C22_38 
ROOT
HETATM    1  C5  UNL     1      44.087  50.452  22.677  1.00  0.00     0.071 C 
HETATM    2  C6  UNL     1      44.550  49.948  21.292  1.00  0.00     0.045 C 
HETATM    3  N2  UNL     1      44.924  51.662  22.750  1.00  0.00    -0.365 N 
ATOM      4  H2  UNL     1      45.939  51.678  22.653  1.00  0.00     0.162 HD
HETATM    5  C7  UNL     1      44.106  52.810  22.974  1.00  0.00     0.080 C 
HETATM    6  N3  UNL     1      44.424  54.042  22.751  1.00  0.00    -0.388 N 
ATOM      7  H31 UNL     1      43.839  54.863  22.913  1.00  0.00     0.157 HD
ATOM      8  H32 UNL     1      45.283  54.441  22.373  1.00  0.00     0.157 HD
HETATM    9  C8  UNL     1      42.887  52.245  23.512  1.00  0.00     0.025 C 
HETATM   10  C9  UNL     1      41.712  53.083  23.704  1.00  0.00     0.024 C 
HETATM   11  C10 UNL     1      43.276  51.846  24.966  1.00  0.00     0.024 C 
HETATM   12  C11 UNL     1      42.706  50.885  22.766  1.00  0.00     0.056 C 
HETATM   13  C12 UNL     1      41.630  50.303  23.594  1.00  0.00     0.185 C 
HETATM   14  O1  UNL     1      40.744  50.590  22.554  1.00  0.00    -0.378 OA
HETATM   15  C13 UNL     1      41.767  50.877  21.647  1.00  0.00     0.084 C 
HETATM   16  C14 UNL     1      41.721  52.150  20.852  1.00  0.00     0.066 C 
HETATM   17  C15 UNL     1      40.349  52.469  20.271  1.00  0.00     0.170 C 
HETATM   18  O2  UNL     1      40.199  51.516  19.277  1.00  0.00    -0.390 OA
HETATM   19  C16 UNL     1      40.161  50.291  19.977  1.00  0.00     0.177 C 
HETATM   20  C17 UNL     1      41.488  49.897  20.589  1.00  0.00     0.076 C 
ENDROOT
BRANCH   1  21
HETATM   21  C4  UNL     1      44.679  49.454  23.568  1.00  0.00     0.001 A 
HETATM   22  C3  UNL     1      46.045  49.288  23.628  1.00  0.00     0.100 A 
HETATM   23  N1  UNL     1      46.661  48.377  24.410  1.00  0.00    -0.355 N 
HETATM   24  C2  UNL     1      45.903  47.575  25.190  1.00  0.00     0.076 A 
ATOM     25  H1  UNL     1      47.678  48.296  24.412  1.00  0.00     0.166 HD
HETATM   26  C1  UNL     1      46.607  46.577  26.048  1.00  0.00     0.089 C 
HETATM   27  N5  UNL     1      44.567  47.724  25.148  1.00  0.00    -0.355 N 
HETATM   28  C24 UNL     1      43.938  48.623  24.374  1.00  0.00     0.100 A 
ATOM     29  H5  UNL     1      43.998  47.117  25.739  1.00  0.00     0.166 HD
ENDBRANCH   1  21
BRANCH  20  30
HETATM   30  C18 UNL     1      41.376  48.453  20.803  1.00  0.00     0.206 C 
BRANCH  30  31
HETATM   31  N4  UNL     1      40.012  48.074  21.262  1.00  0.00    -0.074 N 
ATOM     32  H43 UNL     1      39.770  48.538  22.137  1.00  0.00     0.274 HD
ATOM     33  H42 UNL     1      39.292  48.479  20.665  1.00  0.00     0.274 HD
ATOM     34  H41 UNL     1      39.909  47.061  21.335  1.00  0.00     0.274 HD
ENDBRANCH  30  31
BRANCH  30  35
HETATM   35  C19 UNL     1      41.412  47.722  19.429  1.00  0.00     0.178 C 
BRANCH  35  36
HETATM   36  S1  UNL     1      43.007  46.991  19.178  1.00  0.00     0.167 S 
HETATM   37  O3  UNL     1      43.753  46.955  20.501  1.00  0.00    -0.223 OA
HETATM   38  O4  UNL     1      43.862  47.959  18.323  1.00  0.00    -0.223 OA
BRANCH  36  39
HETATM   39  C20 UNL     1      43.071  45.446  18.434  1.00  0.00     0.111 C 
HETATM   40  C21 UNL     1      42.025  44.721  17.757  1.00  0.00     0.062 C 
BRANCH  40  41
HETATM   41  C22 UNL     1      40.805  44.203  18.404  1.00  0.00     0.259 C 
HETATM   42  C23 UNL     1      40.813  42.640  18.313  1.00  0.00     0.095 C 
HETATM   43  F1  UNL     1      39.651  44.547  17.751  1.00  0.00    -0.202 F 
HETATM   44  F2  UNL     1      40.669  44.572  19.742  1.00  0.00    -0.202 F 
ENDBRANCH  40  41
ENDBRANCH  36  39
ENDBRANCH  35  36
ENDBRANCH  30  35
ENDBRANCH  20  30
TORSDOF 7
ENDMDL
MODEL 4
REMARK VINA RESULT: -8.963069519      1.593      1.883
REMARK  7 active torsions:
REMARK  status: ('A' for Active; 'I' for Inactive)
REMARK    1  A    between atoms: C4_6  and  C5_7 
REMARK    2  A    between atoms: C17_26  and  C18_27 
REMARK    3  A    between atoms: C18_27  and  N4_28 
REMARK    4  A    between atoms: C18_27  and  C19_32 
REMARK    5  A    between atoms: C19_32  and  S1_33 
REMARK    6  A    between atoms: S1_33  and  C20_36 
REMARK    7  A    between atoms: C21_37  and  C22_38 
ROOT
HETATM    1  C5  UNL     1      43.768  50.932  22.633  1.00  0.00     0.071 C 
HETATM    2  C6  UNL     1      43.772  50.285  21.230  1.00  0.00     0.045 C 
HETATM    3  N2  UNL     1      44.796  51.960  22.391  1.00  0.00    -0.365 N 
ATOM      4  H2  UNL     1      45.740  51.775  22.054  1.00  0.00     0.162 HD
HETATM    5  C7  UNL     1      44.275  53.253  22.697  1.00  0.00     0.080 C 
HETATM    6  N3  UNL     1      44.738  54.389  22.292  1.00  0.00    -0.388 N 
ATOM      7  H31 UNL     1      44.366  55.314  22.511  1.00  0.00     0.157 HD
ATOM      8  H32 UNL     1      45.530  54.597  21.684  1.00  0.00     0.157 HD
HETATM    9  C8  UNL     1      43.151  52.959  23.560  1.00  0.00     0.025 C 
HETATM   10  C9  UNL     1      42.228  54.016  23.949  1.00  0.00     0.024 C 
HETATM   11  C10 UNL     1      43.818  52.560  24.910  1.00  0.00     0.024 C 
HETATM   12  C11 UNL     1      42.552  51.627  23.008  1.00  0.00     0.056 C 
HETATM   13  C12 UNL     1      41.634  51.302  24.119  1.00  0.00     0.185 C 
HETATM   14  O1  UNL     1      40.580  51.706  23.298  1.00  0.00    -0.378 OA
HETATM   15  C13 UNL     1      41.375  51.748  22.151  1.00  0.00     0.084 C 
HETATM   16  C14 UNL     1      41.355  52.968  21.275  1.00  0.00     0.066 C 
HETATM   17  C15 UNL     1      39.959  53.519  21.013  1.00  0.00     0.170 C 
HETATM   18  O2  UNL     1      39.398  52.568  20.176  1.00  0.00    -0.390 OA
HETATM   19  C16 UNL     1      39.323  51.407  20.974  1.00  0.00     0.177 C 
HETATM   20  C17 UNL     1      40.672  50.793  21.285  1.00  0.00     0.076 C 
ENDROOT
BRANCH   1  21
HETATM   21  C4  UNL     1      44.381  49.880  23.445  1.00  0.00     0.001 A 
HETATM   22  C3  UNL     1      45.746  49.695  23.441  1.00  0.00     0.100 A 
HETATM   23  N1  UNL     1      46.379  48.737  24.147  1.00  0.00    -0.355 N 
HETATM   24  C2  UNL     1      45.642  47.903  24.913  1.00  0.00     0.076 A 
ATOM     25  H1  UNL     1      47.395  48.643  24.105  1.00  0.00     0.166 HD
HETATM   26  C1  UNL     1      46.365  46.851  25.688  1.00  0.00     0.089 C 
HETATM   27  N5  UNL     1      44.307  48.068  24.933  1.00  0.00    -0.355 N 
HETATM   28  C24 UNL     1      43.660  49.016  24.234  1.00  0.00     0.100 A 
ATOM     29  H5  UNL     1      43.754  47.437  25.512  1.00  0.00     0.166 HD
ENDBRANCH   1  21
BRANCH  20  30
HETATM   30  C18 UNL     1      40.365  49.409  21.653  1.00  0.00     0.206 C 
BRANCH  30  31
HETATM   31  N4  UNL     1      39.156  49.328  22.516  1.00  0.00    -0.074 N 
ATOM     32  H43 UNL     1      39.377  49.541  23.488  1.00  0.00     0.274 HD
ATOM     33  H42 UNL     1      38.513  50.097  22.329  1.00  0.00     0.274 HD
ATOM     34  H41 UNL     1      38.692  48.424  22.427  1.00  0.00     0.274 HD
ENDBRANCH  30  31
BRANCH  30  35
HETATM   35  C19 UNL     1      39.854  48.642  20.398  1.00  0.00     0.178 C 
BRANCH  35  36
HETATM   36  S1  UNL     1      41.056  47.440  19.895  1.00  0.00     0.167 S 
HETATM   37  O3  UNL     1      42.051  47.229  21.023  1.00  0.00    -0.223 OA
HETATM   38  O4  UNL     1      41.928  48.057  18.774  1.00  0.00    -0.223 OA
BRANCH  36  39
HETATM   39  C20 UNL     1      40.484  45.923  19.334  1.00  0.00     0.111 C 
HETATM   40  C21 UNL     1      41.197  44.676  19.210  1.00  0.00     0.062 C 
BRANCH  40  41
HETATM   41  C22 UNL     1      42.320  44.437  18.284  1.00  0.00     0.259 C 
HETATM   42  C23 UNL     1      41.850  44.769  16.828  1.00  0.00     0.095 C 
HETATM   43  F1  UNL     1      42.688  43.120  18.199  1.00  0.00    -0.202 F 
HETATM   44  F2  UNL     1      43.461  45.186  18.567  1.00  0.00    -0.202 F 
ENDBRANCH  40  41
ENDBRANCH  36  39
ENDBRANCH  35  36
ENDBRANCH  30  35
ENDBRANCH  20  30
TORSDOF 7
ENDMDL
MODEL 5
REMARK VINA RESULT: -8.882312834      3.426      6.673
REMARK  7 active torsions:
REMARK  status: ('A' for Active; 'I' for Inactive)
REMARK    1  A    between atoms: C4_6  and  C5_7 
REMARK    2  A    between atoms: C17_26  and  C18_27 
REMARK    3  A    between atoms: C18_27  and  N4_28 
REMARK    4  A    between atoms: C18_27  and  C19_32 
REMARK    5  A    between atoms: C19_32  and  S1_33 
REMARK    6  A    between atoms: S1_33  and  C20_36 
REMARK    7  A    between atoms: C21_37  and  C22_38 
ROOT
HETATM    1  C5  UNL     1      40.551  48.202  20.117  1.00  0.00     0.071 C 
HETATM    2  C6  UNL     1      40.394  47.859  21.615  1.00  0.00     0.045 C 
HETATM    3  N2  UNL     1      39.121  48.298  19.774  1.00  0.00    -0.365 N 
ATOM      4  H2  UNL     1      38.432  47.563  19.931  1.00  0.00     0.162 HD
HETATM    5  C7  UNL     1      38.843  49.569  19.190  1.00  0.00     0.080 C 
HETATM    6  N3  UNL     1      37.687  50.138  19.088  1.00  0.00    -0.388 N 
ATOM      7  H31 UNL     1      37.487  51.047  18.670  1.00  0.00     0.157 HD
ATOM      8  H32 UNL     1      36.769  49.820  19.401  1.00  0.00     0.157 HD
HETATM    9  C8  UNL     1      40.144  50.019  18.745  1.00  0.00     0.025 C 
HETATM   10  C9  UNL     1      40.322  51.378  18.252  1.00  0.00     0.024 C 
HETATM   11  C10 UNL     1      40.425  49.148  17.485  1.00  0.00     0.024 C 
HETATM   12  C11 UNL     1      41.146  49.491  19.820  1.00  0.00     0.056 C 
HETATM   13  C12 UNL     1      42.415  49.756  19.112  1.00  0.00     0.185 C 
HETATM   14  O1  UNL     1      42.609  50.838  19.971  1.00  0.00    -0.378 OA
HETATM   15  C13 UNL     1      41.581  50.450  20.833  1.00  0.00     0.084 C 
HETATM   16  C14 UNL     1      40.537  51.449  21.245  1.00  0.00     0.066 C 
HETATM   17  C15 UNL     1      41.101  52.813  21.621  1.00  0.00     0.170 C 
HETATM   18  O2  UNL     1      41.741  52.568  22.825  1.00  0.00    -0.390 OA
HETATM   19  C16 UNL     1      42.787  51.684  22.486  1.00  0.00     0.177 C 
HETATM   20  C17 UNL     1      42.313  50.299  22.097  1.00  0.00     0.076 C 
ENDROOT
BRANCH   1  21
HETATM   21  C4  UNL     1      41.049  46.938  19.575  1.00  0.00     0.001 A 
HETATM   22  C3  UNL     1      40.177  45.985  19.099  1.00  0.00     0.100 A 
HETATM   23  N1  UNL     1      40.561  44.791  18.603  1.00  0.00    -0.355 N 
HETATM   24  C2  UNL     1      41.880  44.501  18.561  1.00  0.00     0.076 A 
ATOM     25  H1  UNL     1      39.870  44.120  18.265  1.00  0.00     0.166 HD
HETATM   26  C1  UNL     1      42.281  43.174  18.007  1.00  0.00     0.089 C 
HETATM   27  N5  UNL     1      42.749  45.419  19.020  1.00  0.00    -0.355 N 
HETATM   28  C24 UNL     1      42.384  46.612  19.519  1.00  0.00     0.100 A 
ATOM     29  H5  UNL     1      43.744  45.197  18.987  1.00  0.00     0.166 HD
ENDBRANCH   1  21
BRANCH  20  30
HETATM   30  C18 UNL     1      43.491  49.448  22.278  1.00  0.00     0.206 C 
BRANCH  30  31
HETATM   31  N4  UNL     1      44.717  50.088  21.731  1.00  0.00    -0.074 N 
ATOM     32  H43 UNL     1      44.636  51.105  21.725  1.00  0.00     0.274 HD
ATOM     33  H42 UNL     1      45.504  49.996  22.373  1.00  0.00     0.274 HD
ATOM     34  H41 UNL     1      44.947  49.727  20.804  1.00  0.00     0.274 HD
ENDBRANCH  30  31
BRANCH  30  35
HETATM   35  C19 UNL     1      43.863  49.395  23.788  1.00  0.00     0.178 C 
BRANCH  35  36
HETATM   36  S1  UNL     1      45.234  48.299  24.034  1.00  0.00     0.167 S 
HETATM   37  O3  UNL     1      46.524  49.102  24.007  1.00  0.00    -0.223 OA
HETATM   38  O4  UNL     1      45.365  47.390  22.787  1.00  0.00    -0.223 OA
BRANCH  36  39
HETATM   39  C20 UNL     1      45.211  47.285  25.416  1.00  0.00     0.111 C 
HETATM   40  C21 UNL     1      46.289  46.948  26.312  1.00  0.00     0.062 C 
BRANCH  40  41
HETATM   41  C22 UNL     1      47.484  46.170  25.935  1.00  0.00     0.259 C 
HETATM   42  C23 UNL     1      47.413  44.770  26.632  1.00  0.00     0.095 C 
HETATM   43  F1  UNL     1      48.654  46.697  26.416  1.00  0.00    -0.202 F 
HETATM   44  F2  UNL     1      47.630  45.979  24.562  1.00  0.00    -0.202 F 
ENDBRANCH  40  41
ENDBRANCH  36  39
ENDBRANCH  35  36
ENDBRANCH  30  35
ENDBRANCH  20  30
TORSDOF 7
ENDMDL
