MODEL 1
REMARK VINA RESULT: -6.643276061      0.000      0.000
REMARK  1 active torsions:
REMARK  status: ('A' for Active; 'I' for Inactive)
REMARK    1  A    between atoms: N1_1  and  C1_5 
ROOT
HETATM    1  C1  UNL     1      24.001  38.940  43.028  1.00  0.00     0.187 C 
HETATM    2  C2  UNL     1      23.424  37.794  42.299  1.00  0.00     0.033 C 
HETATM    3  C3  UNL     1      24.046  37.415  41.021  1.00  0.00     0.007 C 
HETATM    4  C4  UNL     1      25.448  37.882  40.809  1.00  0.00    -0.014 C 
HETATM    5  C5  UNL     1      26.429  37.269  41.779  1.00  0.00     0.005 C 
HETATM    6  C6  UNL     1      26.230  37.982  43.073  1.00  0.00     0.007 C 
HETATM    7  C7  UNL     1      25.455  39.219  42.700  1.00  0.00     0.016 C 
HETATM    8  C8  UNL     1      25.545  39.361  41.198  1.00  0.00     0.011 C 
ENDROOT
BRANCH   1   9
HETATM    9  N1  UNL     1      23.986  38.632  44.465  1.00  0.00    -0.075 N 
ATOM     10  H13 UNL     1      23.289  39.174  44.975  1.00  0.00     0.274 HD
ATOM     11  H12 UNL     1      23.612  37.703  44.662  1.00  0.00     0.274 HD
ATOM     12  H11 UNL     1      24.929  38.762  44.832  1.00  0.00     0.274 HD
ENDBRANCH   1   9
TORSDOF 1
ENDMDL
MODEL 2
REMARK VINA RESULT: -6.425326542      1.213      2.417
REMARK  1 active torsions:
REMARK  status: ('A' for Active; 'I' for Inactive)
REMARK    1  A    between atoms: N1_1  and  C1_5 
ROOT
HETATM    1  C1  UNL     1      23.670  38.034  42.767  1.00  0.00     0.187 C 
HETATM    2  C2  UNL     1      24.530  39.233  42.768  1.00  0.00     0.033 C 
HETATM    3  C3  UNL     1      25.934  39.067  42.365  1.00  0.00     0.007 C 
HETATM    4  C4  UNL     1      26.245  37.854  41.551  1.00  0.00    -0.014 C 
HETATM    5  C5  UNL     1      25.575  37.861  40.199  1.00  0.00     0.005 C 
HETATM    6  C6  UNL     1      24.146  37.512  40.445  1.00  0.00     0.007 C 
HETATM    7  C7  UNL     1      24.139  36.932  41.835  1.00  0.00     0.016 C 
HETATM    8  C8  UNL     1      25.576  36.635  42.198  1.00  0.00     0.011 C 
ENDROOT
BRANCH   1   9
HETATM    9  N1  UNL     1      22.341  38.415  42.268  1.00  0.00    -0.075 N 
ATOM     10  H13 UNL     1      21.714  38.717  43.013  1.00  0.00     0.274 HD
ATOM     11  H12 UNL     1      22.357  39.287  41.737  1.00  0.00     0.274 HD
ATOM     12  H11 UNL     1      21.963  37.635  41.729  1.00  0.00     0.274 HD
ENDBRANCH   1   9
TORSDOF 1
ENDMDL
MODEL 3
REMARK VINA RESULT: -6.140297467      1.600      2.671
REMARK  1 active torsions:
REMARK  status: ('A' for Active; 'I' for Inactive)
REMARK    1  A    between atoms: N1_1  and  C1_5 
ROOT
HETATM    1  C1  UNL     1      24.309  37.034  41.692  1.00  0.00     0.187 C 
HETATM    2  C2  UNL     1      23.503  37.870  42.603  1.00  0.00     0.033 C 
HETATM    3  C3  UNL     1      24.219  38.686  43.595  1.00  0.00     0.007 C 
HETATM    4  C4  UNL     1      25.654  38.972  43.297  1.00  0.00    -0.014 C 
HETATM    5  C5  UNL     1      25.845  39.819  42.063  1.00  0.00     0.005 C 
HETATM    6  C6  UNL     1      25.631  38.909  40.901  1.00  0.00     0.007 C 
HETATM    7  C7  UNL     1      25.730  37.526  41.489  1.00  0.00     0.016 C 
HETATM    8  C8  UNL     1      26.342  37.672  42.863  1.00  0.00     0.011 C 
ENDROOT
BRANCH   1   9
HETATM    9  N1  UNL     1      23.696  37.078  40.357  1.00  0.00    -0.075 N 
ATOM     10  H13 UNL     1      23.000  37.818  40.269  1.00  0.00     0.274 HD
ATOM     11  H12 UNL     1      24.343  37.409  39.640  1.00  0.00     0.274 HD
ATOM     12  H11 UNL     1      23.316  36.155  40.146  1.00  0.00     0.274 HD
ENDBRANCH   1   9
TORSDOF 1
ENDMDL
MODEL 4
REMARK VINA RESULT: -6.047540295      1.654      2.780
REMARK  1 active torsions:
REMARK  status: ('A' for Active; 'I' for Inactive)
REMARK    1  A    between atoms: N1_1  and  C1_5 
ROOT
HETATM    1  C1  UNL     1      25.040  37.760  40.663  1.00  0.00     0.187 C 
HETATM    2  C2  UNL     1      25.922  36.916  41.492  1.00  0.00     0.033 C 
HETATM    3  C3  UNL     1      26.665  37.567  42.581  1.00  0.00     0.007 C 
HETATM    4  C4  UNL     1      26.122  38.874  43.057  1.00  0.00    -0.014 C 
HETATM    5  C5  UNL     1      24.759  38.752  43.695  1.00  0.00     0.005 C 
HETATM    6  C6  UNL     1      23.791  38.589  42.572  1.00  0.00     0.007 C 
HETATM    7  C7  UNL     1      24.561  39.024  41.352  1.00  0.00     0.016 C 
HETATM    8  C8  UNL     1      25.793  39.749  41.841  1.00  0.00     0.011 C 
ENDROOT
BRANCH   1   9
HETATM    9  N1  UNL     1      23.817  37.002  40.364  1.00  0.00    -0.075 N 
ATOM     10  H13 UNL     1      23.042  37.249  40.979  1.00  0.00     0.274 HD
ATOM     11  H12 UNL     1      23.389  37.280  39.481  1.00  0.00     0.274 HD
ATOM     12  H11 UNL     1      24.039  36.006  40.396  1.00  0.00     0.274 HD
ENDBRANCH   1   9
TORSDOF 1
ENDMDL
MODEL 5
REMARK VINA RESULT: -5.862271686      1.214      1.637
REMARK  1 active torsions:
REMARK  status: ('A' for Active; 'I' for Inactive)
REMARK    1  A    between atoms: N1_1  and  C1_5 
ROOT
HETATM    1  C1  UNL     1      24.838  39.559  41.936  1.00  0.00     0.187 C 
HETATM    2  C2  UNL     1      23.846  38.791  42.714  1.00  0.00     0.033 C 
HETATM    3  C3  UNL     1      23.593  37.399  42.312  1.00  0.00     0.007 C 
HETATM    4  C4  UNL     1      24.661  36.745  41.500  1.00  0.00    -0.014 C 
HETATM    5  C5  UNL     1      25.958  36.576  42.254  1.00  0.00     0.005 C 
HETATM    6  C6  UNL     1      26.597  37.924  42.282  1.00  0.00     0.007 C 
HETATM    7  C7  UNL     1      25.866  38.703  41.221  1.00  0.00     0.016 C 
HETATM    8  C8  UNL     1      25.098  37.704  40.387  1.00  0.00     0.011 C 
ENDROOT
BRANCH   1   9
HETATM    9  N1  UNL     1      25.615  40.391  42.866  1.00  0.00    -0.075 N 
ATOM     10  H13 UNL     1      26.423  40.826  42.422  1.00  0.00     0.274 HD
ATOM     11  H12 UNL     1      25.124  41.246  43.130  1.00  0.00     0.274 HD
ATOM     12  H11 UNL     1      25.871  39.821  43.673  1.00  0.00     0.274 HD
ENDBRANCH   1   9
TORSDOF 1
ENDMDL
