MODEL 1
REMARK VINA RESULT: -2.537961532      0.000      0.000
REMARK  2 active torsions:
REMARK  status: ('A' for Active; 'I' for Inactive)
REMARK    1  A    between atoms: N1_1  and  N2_4 
REMARK    2  A    between atoms: N2_4  and  N3_6 
ROOT
HETATM    1  N3  UNL     1      52.192  17.822  19.137  1.00  0.00    -0.190 NA
HETATM    2  C1  UNL     1      51.999  17.674  17.713  1.00  0.00     0.144 C 
HETATM    3  C2  UNL     1      50.495  17.362  17.661  1.00  0.00     0.250 C 
HETATM    4  N4  UNL     1      50.385  16.410  18.744  1.00  0.00    -0.061 N 
ATOM      5  H41 UNL     1      50.459  15.439  18.439  1.00  0.00     0.278 HD
ATOM      6  H42 UNL     1      49.444  16.348  19.133  1.00  0.00     0.278 HD
HETATM    7  C3  UNL     1      51.394  16.784  19.729  1.00  0.00     0.347 C 
ENDROOT
BRANCH   1   8
HETATM    8  N2  UNL     1      53.496  17.858  19.538  1.00  0.00    -0.267 N 
ATOM      9  H2  UNL     1      53.761  17.804  20.521  1.00  0.00     0.201 HD
BRANCH   8  10
HETATM   10  N1  UNL     1      54.435  17.972  18.535  1.00  0.00    -0.335 N 
ATOM     11  H12 UNL     1      54.156  18.006  17.554  1.00  0.00     0.177 HD
ATOM     12  H11 UNL     1      55.408  18.019  18.835  1.00  0.00     0.177 HD
ENDBRANCH   8  10
ENDBRANCH   1   8
TORSDOF 2
ENDMDL
MODEL 2
REMARK VINA RESULT: -2.464500306      1.866      2.713
REMARK  2 active torsions:
REMARK  status: ('A' for Active; 'I' for Inactive)
REMARK    1  A    between atoms: N1_1  and  N2_4 
REMARK    2  A    between atoms: N2_4  and  N3_6 
ROOT
HETATM    1  N3  UNL     1      51.362  17.294  17.735  1.00  0.00    -0.190 NA
HETATM    2  C1  UNL     1      50.201  16.452  17.564  1.00  0.00     0.144 C 
HETATM    3  C2  UNL     1      50.084  16.437  16.032  1.00  0.00     0.250 C 
HETATM    4  N4  UNL     1      50.302  17.835  15.736  1.00  0.00    -0.061 N 
ATOM      5  H41 UNL     1      49.438  18.373  15.661  1.00  0.00     0.278 HD
ATOM      6  H42 UNL     1      50.636  18.000  14.786  1.00  0.00     0.278 HD
HETATM    7  C3  UNL     1      51.208  18.339  16.762  1.00  0.00     0.347 C 
ENDROOT
BRANCH   1   8
HETATM    8  N2  UNL     1      51.583  17.713  19.015  1.00  0.00    -0.267 N 
ATOM      9  H2  UNL     1      52.000  18.620  19.222  1.00  0.00     0.201 HD
BRANCH   8  10
HETATM   10  N1  UNL     1      51.207  16.838  20.012  1.00  0.00    -0.335 N 
ATOM     11  H12 UNL     1      50.299  16.374  19.991  1.00  0.00     0.177 HD
ATOM     12  H11 UNL     1      51.888  16.690  20.757  1.00  0.00     0.177 HD
ENDBRANCH   8  10
ENDBRANCH   1   8
TORSDOF 2
ENDMDL
MODEL 3
REMARK VINA RESULT: -2.388434907      1.845      2.411
REMARK  2 active torsions:
REMARK  status: ('A' for Active; 'I' for Inactive)
REMARK    1  A    between atoms: N1_1  and  N2_4 
REMARK    2  A    between atoms: N2_4  and  N3_6 
ROOT
HETATM    1  N3  UNL     1      50.839  17.571  17.850  1.00  0.00    -0.190 NA
HETATM    2  C1  UNL     1      51.493  17.969  16.626  1.00  0.00     0.144 C 
HETATM    3  C2  UNL     1      50.443  17.541  15.590  1.00  0.00     0.250 C 
HETATM    4  N4  UNL     1      50.084  16.237  16.101  1.00  0.00    -0.061 N 
ATOM      5  H41 UNL     1      50.615  15.476  15.676  1.00  0.00     0.278 HD
ATOM      6  H42 UNL     1      49.158  15.927  15.802  1.00  0.00     0.278 HD
HETATM    7  C3  UNL     1      50.230  16.305  17.550  1.00  0.00     0.347 C 
ENDROOT
BRANCH   1   8
HETATM    8  N2  UNL     1      51.636  17.589  18.958  1.00  0.00    -0.267 N 
ATOM      9  H2  UNL     1      52.502  18.126  18.993  1.00  0.00     0.201 HD
BRANCH   8  10
HETATM   10  N1  UNL     1      51.199  16.839  20.029  1.00  0.00    -0.335 N 
ATOM     11  H12 UNL     1      50.367  16.252  19.958  1.00  0.00     0.177 HD
ATOM     12  H11 UNL     1      51.756  16.909  20.881  1.00  0.00     0.177 HD
ENDBRANCH   8  10
ENDBRANCH   1   8
TORSDOF 2
ENDMDL
MODEL 4
REMARK VINA RESULT: -2.247330194      0.945      1.555
REMARK  2 active torsions:
REMARK  status: ('A' for Active; 'I' for Inactive)
REMARK    1  A    between atoms: N1_1  and  N2_4 
REMARK    2  A    between atoms: N2_4  and  N3_6 
ROOT
HETATM    1  N3  UNL     1      52.550  17.566  18.376  1.00  0.00    -0.190 NA
HETATM    2  C1  UNL     1      51.796  17.279  19.574  1.00  0.00     0.144 C 
HETATM    3  C2  UNL     1      50.621  16.483  18.986  1.00  0.00     0.250 C 
HETATM    4  N4  UNL     1      50.306  17.291  17.829  1.00  0.00    -0.061 N 
ATOM      5  H41 UNL     1      49.574  17.981  18.004  1.00  0.00     0.278 HD
ATOM      6  H42 UNL     1      49.819  16.775  17.095  1.00  0.00     0.278 HD
HETATM    7  C3  UNL     1      51.562  17.883  17.383  1.00  0.00     0.347 C 
ENDROOT
BRANCH   1   8
HETATM    8  N2  UNL     1      53.542  18.491  18.531  1.00  0.00    -0.267 N 
ATOM      9  H2  UNL     1      53.341  19.469  18.736  1.00  0.00     0.201 HD
BRANCH   8  10
HETATM   10  N1  UNL     1      54.832  18.023  18.393  1.00  0.00    -0.335 N 
ATOM     11  H12 UNL     1      55.390  18.253  17.571  1.00  0.00     0.177 HD
ATOM     12  H11 UNL     1      55.182  17.444  19.156  1.00  0.00     0.177 HD
ENDBRANCH   8  10
ENDBRANCH   1   8
TORSDOF 2
ENDMDL
MODEL 5
REMARK VINA RESULT: -2.235612720      1.852      3.347
REMARK  2 active torsions:
REMARK  status: ('A' for Active; 'I' for Inactive)
REMARK    1  A    between atoms: N1_1  and  N2_4 
REMARK    2  A    between atoms: N2_4  and  N3_6 
ROOT
HETATM    1  N3  UNL     1      52.828  17.935  19.526  1.00  0.00    -0.190 NA
HETATM    2  C1  UNL     1      54.121  17.668  20.110  1.00  0.00     0.144 C 
HETATM    3  C2  UNL     1      55.043  18.342  19.083  1.00  0.00     0.250 C 
HETATM    4  N4  UNL     1      54.440  17.889  17.849  1.00  0.00    -0.061 N 
ATOM      5  H41 UNL     1      54.869  17.042  17.476  1.00  0.00     0.278 HD
ATOM      6  H42 UNL     1      54.643  18.495  17.054  1.00  0.00     0.278 HD
HETATM    7  C3  UNL     1      53.013  17.745  18.114  1.00  0.00     0.347 C 
ENDROOT
BRANCH   1   8
HETATM    8  N2  UNL     1      51.793  17.239  20.080  1.00  0.00    -0.267 N 
ATOM      9  H2  UNL     1      51.721  17.087  21.086  1.00  0.00     0.201 HD
BRANCH   8  10
HETATM   10  N1  UNL     1      50.851  16.752  19.199  1.00  0.00    -0.335 N 
ATOM     11  H12 UNL     1      50.671  15.750  19.120  1.00  0.00     0.177 HD
ATOM     12  H11 UNL     1      50.356  17.449  18.643  1.00  0.00     0.177 HD
ENDBRANCH   8  10
ENDBRANCH   1   8
TORSDOF 2
ENDMDL
