MODEL 1
REMARK VINA RESULT: -7.013258949      0.000      0.000
REMARK  11 active torsions:
REMARK  status: ('A' for Active; 'I' for Inactive)
REMARK       I    between atoms: C2_2  and  N1_4 
REMARK    1  A    between atoms: N1_4  and  C3_6 
REMARK    2  A    between atoms: N3_10  and  N4_12 
REMARK    3  A    between atoms: C5_14  and  N5_15 
REMARK    4  A    between atoms: C5_14  and  C6_20 
REMARK    5  A    between atoms: N5_15  and  N6_17 
REMARK    6  A    between atoms: C7_23  and  N8_24 
REMARK    7  A    between atoms: C10_29  and  N10_30 
REMARK    8  A    between atoms: C13_42  and  C14_43 
REMARK    9  A    between atoms: C14_43  and  O4_44 
REMARK   10  A    between atoms: C14_43  and  C15_46 
REMARK   11  A    between atoms: C15_46  and  O5_47 
ROOT
HETATM    1  N4  UNL     1      22.323  67.990 -16.289  1.00  0.00    -0.278 N 
ATOM      2  H4  UNL     1      22.234  68.866 -15.774  1.00  0.00     0.189 HD
HETATM    3  C5  UNL     1      23.328  67.253 -16.054  1.00  0.00     0.180 C 
ENDROOT
BRANCH   3   4
HETATM    4  N5  UNL     1      23.494  66.035 -16.742  1.00  0.00    -0.288 N 
ATOM      5  H5  UNL     1      23.894  66.027 -17.680  1.00  0.00     0.188 HD
BRANCH   4   6
HETATM    6  N6  UNL     1      23.112  64.851 -16.139  1.00  0.00    -0.343 N 
ATOM      7  H62 UNL     1      22.431  64.876 -15.381  1.00  0.00     0.176 HD
ATOM      8  H61 UNL     1      23.514  63.969 -16.458  1.00  0.00     0.176 HD
ENDBRANCH   4   6
ENDBRANCH   3   4
BRANCH   3   9
HETATM    9  C6  UNL     1      24.337  67.657 -15.065  1.00  0.00     0.172 A 
HETATM   10  N7  UNL     1      25.187  68.669 -15.312  1.00  0.00    -0.172 N 
HETATM   11  C7  UNL     1      26.098  69.021 -14.398  1.00  0.00     0.691 A 
ATOM     12  H7  UNL     1      25.137  69.169 -16.200  1.00  0.00     0.186 HD
HETATM   13  N11 UNL     1      26.171  68.368 -13.226  1.00  0.00    -0.141 N 
HETATM   14  C12 UNL     1      25.336  67.350 -12.944  1.00  0.00     0.340 A 
ATOM     15  H11 UNL     1      26.869  68.648 -12.538  1.00  0.00     0.189 HD
HETATM   16  O2  UNL     1      25.433  66.762 -11.839  1.00  0.00    -0.246 OA
HETATM   17  N12 UNL     1      24.437  67.028 -13.888  1.00  0.00    -0.290 N 
ATOM     18  H12 UNL     1      23.793  66.260 -13.697  1.00  0.00     0.172 HD
BRANCH  11  19
HETATM   19  N8  UNL     1      27.022  70.085 -14.610  1.00  0.00    -0.177 N 
HETATM   20  C8  UNL     1      27.959  70.405 -13.565  1.00  0.00     0.196 C 
HETATM   21  N9  UNL     1      29.135  70.847 -13.856  1.00  0.00    -0.383 N 
HETATM   22  C9  UNL     1      29.440  70.996 -15.268  1.00  0.00     0.154 C 
ATOM     23  H9  UNL     1      29.815  71.080 -13.132  1.00  0.00     0.160 HD
HETATM   24  C10 UNL     1      28.278  71.709 -15.945  1.00  0.00     0.219 C 
HETATM   25  C11 UNL     1      27.040  70.845 -15.844  1.00  0.00     0.182 C 
BRANCH  24  26
HETATM   26  N10 UNL     1      28.620  71.900 -17.359  1.00  0.00    -0.072 N 
ATOM     27 3H10 UNL     1      29.626  71.896 -17.524  1.00  0.00     0.274 HD
ATOM     28 2H10 UNL     1      28.383  71.092 -17.934  1.00  0.00     0.274 HD
ATOM     29 1H10 UNL     1      28.172  72.757 -17.682  1.00  0.00     0.274 HD
ENDBRANCH  24  26
ENDBRANCH  11  19
ENDBRANCH   3   9
BRANCH   1  30
HETATM   30  N3  UNL     1      21.337  67.664 -17.211  1.00  0.00    -0.263 N 
HETATM   31  C4  UNL     1      20.384  66.826 -16.957  1.00  0.00     0.245 A 
HETATM   32  N2  UNL     1      19.385  66.437 -17.763  1.00  0.00    -0.304 N 
HETATM   33  O3  UNL     1      20.263  66.202 -15.790  1.00  0.00    -0.276 OA
HETATM   34  C3  UNL     1      18.617  65.560 -17.118  1.00  0.00     0.144 A 
ATOM     35  H2  UNL     1      19.237  66.762 -18.719  1.00  0.00     0.171 HD
HETATM   36  C13 UNL     1      19.203  65.430 -15.861  1.00  0.00     0.131 A 
ATOM     37  H3  UNL     1      21.365  68.105 -18.131  1.00  0.00     0.190 HD
BRANCH  34  38
HETATM   38  N1  UNL     1      17.441  64.857 -17.526  1.00  0.00    -0.311 N 
HETATM   39  C2  UNL     1      16.291  65.450 -18.072  1.00  0.00     0.219 C 
HETATM   40  C1  UNL     1      15.130  64.648 -18.462  1.00  0.00     0.117 C 
HETATM   41  O1  UNL     1      16.235  66.686 -18.238  1.00  0.00    -0.274 OA
ATOM     42  H1  UNL     1      17.437  63.844 -17.411  1.00  0.00     0.170 HD
ENDBRANCH  34  38
BRANCH  36  43
HETATM   43  C14 UNL     1      18.671  64.532 -14.775  1.00  0.00     0.202 C 
BRANCH  43  44
HETATM   44  O4  UNL     1      19.658  64.305 -13.799  1.00  0.00    -0.387 OA
ATOM     45  H4  UNL     1      19.446  63.534 -13.286  1.00  0.00     0.210 HD
ENDBRANCH  43  44
BRANCH  43  46
HETATM   46  C15 UNL     1      17.552  65.273 -14.073  1.00  0.00     0.203 C 
BRANCH  46  47
HETATM   47  O5  UNL     1      18.184  66.286 -13.318  1.00  0.00    -0.398 OA
ATOM     48  H5  UNL     1      17.882  66.164 -12.426  1.00  0.00     0.209 HD
ENDBRANCH  46  47
ENDBRANCH  43  46
ENDBRANCH  36  43
ENDBRANCH   1  30
TORSDOF 11
ENDMDL
MODEL 2
REMARK VINA RESULT: -6.787540125      1.486      1.824
REMARK  11 active torsions:
REMARK  status: ('A' for Active; 'I' for Inactive)
REMARK       I    between atoms: C2_2  and  N1_4 
REMARK    1  A    between atoms: N1_4  and  C3_6 
REMARK    2  A    between atoms: N3_10  and  N4_12 
REMARK    3  A    between atoms: C5_14  and  N5_15 
REMARK    4  A    between atoms: C5_14  and  C6_20 
REMARK    5  A    between atoms: N5_15  and  N6_17 
REMARK    6  A    between atoms: C7_23  and  N8_24 
REMARK    7  A    between atoms: C10_29  and  N10_30 
REMARK    8  A    between atoms: C13_42  and  C14_43 
REMARK    9  A    between atoms: C14_43  and  O4_44 
REMARK   10  A    between atoms: C14_43  and  C15_46 
REMARK   11  A    between atoms: C15_46  and  O5_47 
ROOT
HETATM    1  N4  UNL     1      23.154  65.604 -16.202  1.00  0.00    -0.278 N 
ATOM      2  H4  UNL     1      23.544  64.979 -15.496  1.00  0.00     0.189 HD
HETATM    3  C5  UNL     1      23.454  66.835 -16.147  1.00  0.00     0.180 C 
ENDROOT
BRANCH   3   4
HETATM    4  N5  UNL     1      22.938  67.736 -17.098  1.00  0.00    -0.288 N 
ATOM      5  H5  UNL     1      23.342  67.781 -18.034  1.00  0.00     0.188 HD
BRANCH   4   6
HETATM    6  N6  UNL     1      21.880  68.559 -16.760  1.00  0.00    -0.343 N 
ATOM      7  H62 UNL     1      21.628  68.665 -15.778  1.00  0.00     0.176 HD
ATOM      8  H61 UNL     1      21.366  69.049 -17.492  1.00  0.00     0.176 HD
ENDBRANCH   4   6
ENDBRANCH   3   4
BRANCH   3   9
HETATM    9  C6  UNL     1      24.341  67.343 -15.092  1.00  0.00     0.172 A 
HETATM   10  N7  UNL     1      25.152  68.392 -15.312  1.00  0.00    -0.172 N 
HETATM   11  C7  UNL     1      25.953  68.840 -14.338  1.00  0.00     0.691 A 
ATOM     12  H7  UNL     1      25.157  68.849 -16.224  1.00  0.00     0.186 HD
HETATM   13  N11 UNL     1      25.953  68.246 -13.133  1.00  0.00    -0.141 N 
HETATM   14  C12 UNL     1      25.154  67.193 -12.877  1.00  0.00     0.340 A 
ATOM     15  H11 UNL     1      26.568  68.598 -12.400  1.00  0.00     0.189 HD
HETATM   16  O2  UNL     1      25.182  66.662 -11.739  1.00  0.00    -0.246 OA
HETATM   17  N12 UNL     1      24.367  66.774 -13.881  1.00  0.00    -0.290 N 
ATOM     18  H12 UNL     1      23.752  65.978 -13.710  1.00  0.00     0.172 HD
BRANCH  11  19
HETATM   19  N8  UNL     1      26.831  69.947 -14.519  1.00  0.00    -0.177 N 
HETATM   20  C8  UNL     1      27.790  70.245 -13.487  1.00  0.00     0.196 C 
HETATM   21  N9  UNL     1      28.939  70.746 -13.789  1.00  0.00    -0.383 N 
HETATM   22  C9  UNL     1      29.192  70.983 -15.198  1.00  0.00     0.154 C 
ATOM     23  H9  UNL     1      29.633  70.964 -13.074  1.00  0.00     0.160 HD
HETATM   24  C10 UNL     1      27.984  71.687 -15.799  1.00  0.00     0.219 C 
HETATM   25  C11 UNL     1      26.782  70.774 -15.709  1.00  0.00     0.182 C 
BRANCH  24  26
HETATM   26  N10 UNL     1      28.274  71.968 -17.211  1.00  0.00    -0.072 N 
ATOM     27 3H10 UNL     1      29.081  71.451 -17.557  1.00  0.00     0.274 HD
ATOM     28 2H10 UNL     1      27.576  71.573 -17.841  1.00  0.00     0.274 HD
ATOM     29 1H10 UNL     1      28.375  72.977 -17.320  1.00  0.00     0.274 HD
ENDBRANCH  24  26
ENDBRANCH  11  19
ENDBRANCH   3   9
BRANCH   1  30
HETATM   30  N3  UNL     1      22.321  65.063 -17.173  1.00  0.00    -0.263 N 
HETATM   31  C4  UNL     1      21.072  64.799 -16.963  1.00  0.00     0.245 A 
HETATM   32  N2  UNL     1      20.179  64.280 -17.818  1.00  0.00    -0.304 N 
HETATM   33  O3  UNL     1      20.474  65.021 -15.797  1.00  0.00    -0.276 OA
HETATM   34  C3  UNL     1      19.001  64.165 -17.206  1.00  0.00     0.144 A 
ATOM     35  H2  UNL     1      20.372  64.015 -18.784  1.00  0.00     0.171 HD
HETATM   36  C13 UNL     1      19.221  64.646 -15.917  1.00  0.00     0.131 A 
ATOM     37  H3  UNL     1      22.712  64.866 -18.095  1.00  0.00     0.190 HD
BRANCH  34  38
HETATM   38  N1  UNL     1      17.740  63.678 -17.670  1.00  0.00    -0.311 N 
HETATM   39  C2  UNL     1      17.249  62.377 -17.467  1.00  0.00     0.219 C 
HETATM   40  C1  UNL     1      15.943  61.965 -17.982  1.00  0.00     0.117 C 
HETATM   41  O1  UNL     1      17.924  61.539 -16.836  1.00  0.00    -0.274 OA
ATOM     42  H1  UNL     1      17.150  64.326 -18.192  1.00  0.00     0.170 HD
ENDBRANCH  34  38
BRANCH  36  43
HETATM   43  C14 UNL     1      18.158  64.711 -14.852  1.00  0.00     0.202 C 
BRANCH  43  44
HETATM   44  O4  UNL     1      17.875  63.424 -14.362  1.00  0.00    -0.387 OA
ATOM     45  H4  UNL     1      17.063  63.428 -13.869  1.00  0.00     0.210 HD
ENDBRANCH  43  44
BRANCH  43  46
HETATM   46  C15 UNL     1      18.726  65.488 -13.683  1.00  0.00     0.203 C 
BRANCH  46  47
HETATM   47  O5  UNL     1      17.704  66.381 -13.289  1.00  0.00    -0.398 OA
ATOM     48  H5  UNL     1      17.650  66.305 -12.343  1.00  0.00     0.209 HD
ENDBRANCH  46  47
ENDBRANCH  43  46
ENDBRANCH  36  43
ENDBRANCH   1  30
TORSDOF 11
ENDMDL
MODEL 3
REMARK VINA RESULT: -6.483940125      4.812      6.440
REMARK  11 active torsions:
REMARK  status: ('A' for Active; 'I' for Inactive)
REMARK       I    between atoms: C2_2  and  N1_4 
REMARK    1  A    between atoms: N1_4  and  C3_6 
REMARK    2  A    between atoms: N3_10  and  N4_12 
REMARK    3  A    between atoms: C5_14  and  N5_15 
REMARK    4  A    between atoms: C5_14  and  C6_20 
REMARK    5  A    between atoms: N5_15  and  N6_17 
REMARK    6  A    between atoms: C7_23  and  N8_24 
REMARK    7  A    between atoms: C10_29  and  N10_30 
REMARK    8  A    between atoms: C13_42  and  C14_43 
REMARK    9  A    between atoms: C14_43  and  O4_44 
REMARK   10  A    between atoms: C14_43  and  C15_46 
REMARK   11  A    between atoms: C15_46  and  O5_47 
ROOT
HETATM    1  N4  UNL     1      21.470  62.745 -16.988  1.00  0.00    -0.278 N 
ATOM      2  H4  UNL     1      21.572  63.701 -16.648  1.00  0.00     0.189 HD
HETATM    3  C5  UNL     1      22.485  61.984 -16.957  1.00  0.00     0.180 C 
ENDROOT
BRANCH   3   4
HETATM    4  N5  UNL     1      22.393  60.656 -17.417  1.00  0.00    -0.288 N 
ATOM      5  H5  UNL     1      22.710  60.416 -18.356  1.00  0.00     0.188 HD
BRANCH   4   6
HETATM    6  N6  UNL     1      21.871  59.679 -16.590  1.00  0.00    -0.343 N 
ATOM      7  H62 UNL     1      22.502  59.006 -16.156  1.00  0.00     0.176 HD
ATOM      8  H61 UNL     1      20.865  59.641 -16.424  1.00  0.00     0.176 HD
ENDBRANCH   4   6
ENDBRANCH   3   4
BRANCH   3   9
HETATM    9  C6  UNL     1      23.772  62.473 -16.442  1.00  0.00     0.172 A 
HETATM   10  N7  UNL     1      24.691  61.624 -15.950  1.00  0.00    -0.172 N 
HETATM   11  C7  UNL     1      25.857  62.089 -15.486  1.00  0.00     0.691 A 
ATOM     12  H7  UNL     1      24.498  60.623 -15.929  1.00  0.00     0.186 HD
HETATM   13  N11 UNL     1      26.119  63.407 -15.511  1.00  0.00    -0.141 N 
HETATM   14  C12 UNL     1      25.223  64.286 -15.997  1.00  0.00     0.340 A 
ATOM     15  H11 UNL     1      27.012  63.747 -15.155  1.00  0.00     0.189 HD
HETATM   16  O2  UNL     1      25.502  65.510 -16.003  1.00  0.00    -0.246 OA
HETATM   17  N12 UNL     1      24.065  63.778 -16.451  1.00  0.00    -0.290 N 
ATOM     18  H12 UNL     1      23.370  64.425 -16.825  1.00  0.00     0.172 HD
BRANCH  11  19
HETATM   19  N8  UNL     1      26.863  61.234 -14.954  1.00  0.00    -0.177 N 
HETATM   20  C8  UNL     1      28.110  61.108 -15.664  1.00  0.00     0.196 C 
HETATM   21  N9  UNL     1      29.210  60.911 -15.020  1.00  0.00    -0.383 N 
HETATM   22  C9  UNL     1      29.109  60.827 -13.574  1.00  0.00     0.154 C 
ATOM     23  H9  UNL     1      30.104  60.820 -15.502  1.00  0.00     0.160 HD
HETATM   24  C10 UNL     1      27.958  59.896 -13.219  1.00  0.00     0.219 C 
HETATM   25  C11 UNL     1      26.664  60.493 -13.724  1.00  0.00     0.182 C 
BRANCH  24  26
HETATM   26  N10 UNL     1      27.900  59.778 -11.758  1.00  0.00    -0.072 N 
ATOM     27 3H10 UNL     1      28.128  60.651 -11.283  1.00  0.00     0.274 HD
ATOM     28 2H10 UNL     1      26.946  59.677 -11.409  1.00  0.00     0.274 HD
ATOM     29 1H10 UNL     1      28.505  59.007 -11.477  1.00  0.00     0.274 HD
ENDBRANCH  24  26
ENDBRANCH  11  19
ENDBRANCH   3   9
BRANCH   1  30
HETATM   30  N3  UNL     1      20.229  62.342 -17.461  1.00  0.00    -0.263 N 
HETATM   31  C4  UNL     1      19.113  62.749 -16.947  1.00  0.00     0.245 A 
HETATM   32  N2  UNL     1      17.864  62.429 -17.318  1.00  0.00    -0.304 N 
HETATM   33  O3  UNL     1      19.055  63.589 -15.919  1.00  0.00    -0.276 OA
HETATM   34  C3  UNL     1      16.997  63.063 -16.529  1.00  0.00     0.144 A 
ATOM     35  H2  UNL     1      17.618  61.801 -18.083  1.00  0.00     0.171 HD
HETATM   36  C13 UNL     1      17.787  63.796 -15.646  1.00  0.00     0.131 A 
ATOM     37  H3  UNL     1      20.194  61.695 -18.250  1.00  0.00     0.190 HD
BRANCH  34  38
HETATM   38  N1  UNL     1      15.568  63.064 -16.508  1.00  0.00    -0.311 N 
HETATM   39  C2  UNL     1      14.762  61.990 -16.094  1.00  0.00     0.219 C 
HETATM   40  C1  UNL     1      13.302  62.081 -16.108  1.00  0.00     0.117 C 
HETATM   41  O1  UNL     1      15.282  60.925 -15.703  1.00  0.00    -0.274 OA
ATOM     42  H1  UNL     1      15.095  63.913 -16.819  1.00  0.00     0.170 HD
ENDBRANCH  34  38
BRANCH  36  43
HETATM   43  C14 UNL     1      17.235  64.679 -14.559  1.00  0.00     0.202 C 
BRANCH  43  44
HETATM   44  O4  UNL     1      16.625  63.902 -13.558  1.00  0.00    -0.387 OA
ATOM     45  H4  UNL     1      15.684  64.036 -13.562  1.00  0.00     0.210 HD
ENDBRANCH  43  44
BRANCH  43  46
HETATM   46  C15 UNL     1      18.404  65.375 -13.894  1.00  0.00     0.203 C 
BRANCH  46  47
HETATM   47  O5  UNL     1      17.839  66.426 -13.138  1.00  0.00    -0.398 OA
ATOM     48  H5  UNL     1      17.481  67.033 -13.775  1.00  0.00     0.209 HD
ENDBRANCH  46  47
ENDBRANCH  43  46
ENDBRANCH  36  43
ENDBRANCH   1  30
TORSDOF 11
ENDMDL
MODEL 4
REMARK VINA RESULT: -6.327553748      3.847     10.408
REMARK  11 active torsions:
REMARK  status: ('A' for Active; 'I' for Inactive)
REMARK       I    between atoms: C2_2  and  N1_4 
REMARK    1  A    between atoms: N1_4  and  C3_6 
REMARK    2  A    between atoms: N3_10  and  N4_12 
REMARK    3  A    between atoms: C5_14  and  N5_15 
REMARK    4  A    between atoms: C5_14  and  C6_20 
REMARK    5  A    between atoms: N5_15  and  N6_17 
REMARK    6  A    between atoms: C7_23  and  N8_24 
REMARK    7  A    between atoms: C10_29  and  N10_30 
REMARK    8  A    between atoms: C13_42  and  C14_43 
REMARK    9  A    between atoms: C14_43  and  O4_44 
REMARK   10  A    between atoms: C14_43  and  C15_46 
REMARK   11  A    between atoms: C15_46  and  O5_47 
ROOT
HETATM    1  N4  UNL     1      21.480  63.485 -15.462  1.00  0.00    -0.278 N 
ATOM      2  H4  UNL     1      21.469  63.798 -14.491  1.00  0.00     0.189 HD
HETATM    3  C5  UNL     1      20.389  63.499 -16.111  1.00  0.00     0.180 C 
ENDROOT
BRANCH   3   4
HETATM    4  N5  UNL     1      20.354  63.075 -17.453  1.00  0.00    -0.288 N 
ATOM      5  H5  UNL     1      20.390  62.080 -17.677  1.00  0.00     0.188 HD
BRANCH   4   6
HETATM    6  N6  UNL     1      20.272  64.012 -18.466  1.00  0.00    -0.343 N 
ATOM      7  H62 UNL     1      19.740  64.868 -18.309  1.00  0.00     0.176 HD
ATOM      8  H61 UNL     1      20.740  63.838 -19.355  1.00  0.00     0.176 HD
ENDBRANCH   4   6
ENDBRANCH   3   4
BRANCH   3   9
HETATM    9  C6  UNL     1      19.146  63.957 -15.475  1.00  0.00     0.172 A 
HETATM   10  N7  UNL     1      17.965  63.387 -15.770  1.00  0.00    -0.172 N 
HETATM   11  C7  UNL     1      16.843  63.818 -15.179  1.00  0.00     0.691 A 
ATOM     12  H7  UNL     1      17.923  62.625 -16.446  1.00  0.00     0.186 HD
HETATM   13  N11 UNL     1      16.890  64.822 -14.287  1.00  0.00    -0.141 N 
HETATM   14  C12 UNL     1      18.055  65.415 -13.967  1.00  0.00     0.340 A 
ATOM     15  H11 UNL     1      16.028  65.139 -13.844  1.00  0.00     0.189 HD
HETATM   16  O2  UNL     1      18.060  66.351 -13.130  1.00  0.00    -0.246 OA
HETATM   17  N12 UNL     1      19.156  64.954 -14.582  1.00  0.00    -0.290 N 
ATOM     18  H12 UNL     1      20.051  65.388 -14.355  1.00  0.00     0.172 HD
BRANCH  11  19
HETATM   19  N8  UNL     1      15.567  63.250 -15.457  1.00  0.00    -0.177 N 
HETATM   20  C8  UNL     1      15.499  62.082 -16.296  1.00  0.00     0.196 C 
HETATM   21  N9  UNL     1      14.584  61.193 -16.103  1.00  0.00    -0.383 N 
HETATM   22  C9  UNL     1      13.656  61.444 -15.015  1.00  0.00     0.154 C 
ATOM     23  H9  UNL     1      14.517  60.358 -16.684  1.00  0.00     0.160 HD
HETATM   24  C10 UNL     1      13.171  62.884 -15.110  1.00  0.00     0.219 C 
HETATM   25  C11 UNL     1      14.346  63.816 -14.919  1.00  0.00     0.182 C 
BRANCH  24  26
HETATM   26  N10 UNL     1      12.195  63.109 -14.037  1.00  0.00    -0.072 N 
ATOM     27 3H10 UNL     1      11.262  62.774 -14.277  1.00  0.00     0.274 HD
ATOM     28 2H10 UNL     1      12.353  62.507 -13.228  1.00  0.00     0.274 HD
ATOM     29 1H10 UNL     1      12.208  64.100 -13.799  1.00  0.00     0.274 HD
ENDBRANCH  24  26
ENDBRANCH  11  19
ENDBRANCH   3   9
BRANCH   1  30
HETATM   30  N3  UNL     1      22.686  63.064 -16.007  1.00  0.00    -0.263 N 
HETATM   31  C4  UNL     1      23.685  63.863 -16.208  1.00  0.00     0.245 A 
HETATM   32  N2  UNL     1      24.888  63.571 -16.723  1.00  0.00    -0.304 N 
HETATM   33  O3  UNL     1      23.645  65.157 -15.911  1.00  0.00    -0.276 OA
HETATM   34  C3  UNL     1      25.628  64.679 -16.761  1.00  0.00     0.144 A 
ATOM     35  H2  UNL     1      25.188  62.648 -17.037  1.00  0.00     0.171 HD
HETATM   36  C13 UNL     1      24.808  65.674 -16.235  1.00  0.00     0.131 A 
ATOM     37  H3  UNL     1      22.790  62.081 -16.260  1.00  0.00     0.190 HD
BRANCH  34  38
HETATM   38  N1  UNL     1      26.966  64.903 -17.213  1.00  0.00    -0.311 N 
HETATM   39  C2  UNL     1      27.969  63.924 -17.296  1.00  0.00     0.219 C 
HETATM   40  C1  UNL     1      29.315  64.247 -17.771  1.00  0.00     0.117 C 
HETATM   41  O1  UNL     1      27.730  62.745 -16.961  1.00  0.00    -0.274 OA
ATOM     42  H1  UNL     1      27.211  65.851 -17.498  1.00  0.00     0.170 HD
ENDBRANCH  34  38
BRANCH  36  43
HETATM   43  C14 UNL     1      25.227  67.112 -16.079  1.00  0.00     0.202 C 
BRANCH  43  44
HETATM   44  O4  UNL     1      24.409  67.949 -16.860  1.00  0.00    -0.387 OA
ATOM     45  H4  UNL     1      23.967  68.586 -16.311  1.00  0.00     0.210 HD
ENDBRANCH  43  44
BRANCH  43  46
HETATM   46  C15 UNL     1      24.978  67.510 -14.639  1.00  0.00     0.203 C 
BRANCH  46  47
HETATM   47  O5  UNL     1      25.499  66.453 -13.860  1.00  0.00    -0.398 OA
ATOM     48  H5  UNL     1      26.094  66.862 -13.243  1.00  0.00     0.209 HD
ENDBRANCH  46  47
ENDBRANCH  43  46
ENDBRANCH  36  43
ENDBRANCH   1  30
TORSDOF 11
ENDMDL
MODEL 5
REMARK VINA RESULT: -6.287043485      4.233      6.674
REMARK  11 active torsions:
REMARK  status: ('A' for Active; 'I' for Inactive)
REMARK       I    between atoms: C2_2  and  N1_4 
REMARK    1  A    between atoms: N1_4  and  C3_6 
REMARK    2  A    between atoms: N3_10  and  N4_12 
REMARK    3  A    between atoms: C5_14  and  N5_15 
REMARK    4  A    between atoms: C5_14  and  C6_20 
REMARK    5  A    between atoms: N5_15  and  N6_17 
REMARK    6  A    between atoms: C7_23  and  N8_24 
REMARK    7  A    between atoms: C10_29  and  N10_30 
REMARK    8  A    between atoms: C13_42  and  C14_43 
REMARK    9  A    between atoms: C14_43  and  O4_44 
REMARK   10  A    between atoms: C14_43  and  C15_46 
REMARK   11  A    between atoms: C15_46  and  O5_47 
ROOT
HETATM    1  N4  UNL     1      20.224  64.480 -14.478  1.00  0.00    -0.278 N 
ATOM      2  H4  UNL     1      20.609  63.624 -14.078  1.00  0.00     0.189 HD
HETATM    3  C5  UNL     1      20.968  65.182 -15.229  1.00  0.00     0.180 C 
ENDROOT
BRANCH   3   4
HETATM    4  N5  UNL     1      20.480  66.372 -15.802  1.00  0.00    -0.288 N 
ATOM      5  H5  UNL     1      20.368  67.208 -15.230  1.00  0.00     0.188 HD
BRANCH   4   6
HETATM    6  N6  UNL     1      20.153  66.401 -17.145  1.00  0.00    -0.343 N 
ATOM      7  H62 UNL     1      19.777  65.561 -17.583  1.00  0.00     0.176 HD
ATOM      8  H61 UNL     1      20.291  67.258 -17.681  1.00  0.00     0.176 HD
ENDBRANCH   4   6
ENDBRANCH   3   4
BRANCH   3   9
HETATM    9  C6  UNL     1      22.349  64.767 -15.511  1.00  0.00     0.172 A 
HETATM   10  N7  UNL     1      22.639  63.498 -15.848  1.00  0.00    -0.172 N 
HETATM   11  C7  UNL     1      23.903  63.141 -16.102  1.00  0.00     0.691 A 
ATOM     12  H7  UNL     1      21.892  62.806 -15.910  1.00  0.00     0.186 HD
HETATM   13  N11 UNL     1      24.892  64.047 -16.024  1.00  0.00    -0.141 N 
HETATM   14  C12 UNL     1      24.640  65.326 -15.690  1.00  0.00     0.340 A 
ATOM     15  H11 UNL     1      25.851  63.760 -16.221  1.00  0.00     0.189 HD
HETATM   16  O2  UNL     1      25.590  66.145 -15.626  1.00  0.00    -0.246 OA
HETATM   17  N12 UNL     1      23.358  65.643 -15.442  1.00  0.00    -0.290 N 
ATOM     18  H12 UNL     1      23.142  66.607 -15.188  1.00  0.00     0.172 HD
BRANCH  11  19
HETATM   19  N8  UNL     1      24.263  61.811 -16.462  1.00  0.00    -0.177 N 
HETATM   20  C8  UNL     1      24.374  61.478 -17.859  1.00  0.00     0.196 C 
HETATM   21  N9  UNL     1      25.232  60.602 -18.255  1.00  0.00    -0.383 N 
HETATM   22  C9  UNL     1      26.055  59.990 -17.227  1.00  0.00     0.154 C 
ATOM     23  H9  UNL     1      25.328  60.351 -19.239  1.00  0.00     0.160 HD
HETATM   24  C10 UNL     1      25.158  59.565 -16.073  1.00  0.00     0.219 C 
HETATM   25  C11 UNL     1      24.520  60.792 -15.463  1.00  0.00     0.182 C 
BRANCH  24  26
HETATM   26  N10 UNL     1      25.994  58.902 -15.065  1.00  0.00    -0.072 N 
ATOM     27 3H10 UNL     1      26.392  58.025 -15.399  1.00  0.00     0.274 HD
ATOM     28 2H10 UNL     1      26.870  59.395 -14.894  1.00  0.00     0.274 HD
ATOM     29 1H10 UNL     1      25.437  58.784 -14.219  1.00  0.00     0.274 HD
ENDBRANCH  24  26
ENDBRANCH  11  19
ENDBRANCH   3   9
BRANCH   1  30
HETATM   30  N3  UNL     1      18.912  64.818 -14.173  1.00  0.00    -0.263 N 
HETATM   31  C4  UNL     1      17.891  64.212 -14.688  1.00  0.00     0.245 A 
HETATM   32  N2  UNL     1      16.589  64.450 -14.470  1.00  0.00    -0.304 N 
HETATM   33  O3  UNL     1      18.006  63.212 -15.556  1.00  0.00    -0.276 OA
HETATM   34  C3  UNL     1      15.860  63.603 -15.198  1.00  0.00     0.144 A 
ATOM     35  H2  UNL     1      16.216  65.166 -13.847  1.00  0.00     0.171 HD
HETATM   36  C13 UNL     1      16.794  62.825 -15.879  1.00  0.00     0.131 A 
ATOM     37  H3  UNL     1      18.745  65.578 -13.514  1.00  0.00     0.190 HD
BRANCH  34  38
HETATM   38  N1  UNL     1      14.446  63.443 -15.322  1.00  0.00    -0.311 N 
HETATM   39  C2  UNL     1      13.484  64.381 -14.908  1.00  0.00     0.219 C 
HETATM   40  C1  UNL     1      12.052  64.130 -15.075  1.00  0.00     0.117 C 
HETATM   41  O1  UNL     1      13.837  65.458 -14.385  1.00  0.00    -0.274 OA
ATOM     42  H1  UNL     1      14.107  62.579 -15.744  1.00  0.00     0.170 HD
ENDBRANCH  34  38
BRANCH  36  43
HETATM   43  C14 UNL     1      16.428  61.719 -16.834  1.00  0.00     0.202 C 
BRANCH  43  44
HETATM   44  O4  UNL     1      15.354  62.113 -17.652  1.00  0.00    -0.387 OA
ATOM     45  H4  UNL     1      14.722  61.407 -17.732  1.00  0.00     0.210 HD
ENDBRANCH  43  44
BRANCH  43  46
HETATM   46  C15 UNL     1      17.605  61.506 -17.762  1.00  0.00     0.203 C 
BRANCH  46  47
HETATM   47  O5  UNL     1      18.551  60.774 -17.011  1.00  0.00    -0.398 OA
ATOM     48  H5  UNL     1      19.376  61.231 -17.127  1.00  0.00     0.209 HD
ENDBRANCH  46  47
ENDBRANCH  43  46
ENDBRANCH  36  43
ENDBRANCH   1  30
TORSDOF 11
ENDMDL
