MODEL 1
REMARK VINA RESULT: -5.532630449      0.000      0.000
REMARK  10 active torsions:
REMARK  status: ('A' for Active; 'I' for Inactive)
REMARK    1  A    between atoms: C1_2  and  C2_4 
REMARK    2  A    between atoms: C4_8  and  N3_9 
REMARK    3  A    between atoms: N3_9  and  C5_11 
REMARK    4  A    between atoms: C6_15  and  N7_16 
REMARK    5  A    between atoms: C8_21  and  S2_22 
REMARK    6  A    between atoms: S2_22  and  C9_23 
REMARK    7  A    between atoms: C9_23  and  C10_24 
REMARK    8  A    between atoms: C10_24  and  O1_25 
REMARK    9  A    between atoms: C10_24  and  O2_27 
REMARK   10  A    between atoms: N9_32  and  C12_33 
ROOT
HETATM    1  C2  UNL     1      24.013  65.863 -15.334  1.00  0.00     0.138 A 
HETATM    2  N2  UNL     1      24.486  64.739 -15.879  1.00  0.00    -0.345 N 
ATOM      3  H2  UNL     1      25.495  64.605 -15.957  1.00  0.00     0.166 HD
HETATM    4  C3  UNL     1      23.663  63.792 -16.322  1.00  0.00     0.105 A 
HETATM    5  C4  UNL     1      24.190  62.641 -16.882  1.00  0.00     0.063 A 
HETATM    6  C7  UNL     1      23.239  61.692 -17.324  1.00  0.00     0.068 A 
HETATM    7  C8  UNL     1      21.891  61.898 -17.207  1.00  0.00     0.073 A 
HETATM    8  N8  UNL     1      21.431  63.032 -16.656  1.00  0.00    -0.334 N 
ATOM      9  H8  UNL     1      20.425  63.177 -16.572  1.00  0.00     0.168 HD
HETATM   10  C11 UNL     1      22.287  63.994 -16.207  1.00  0.00     0.162 A 
HETATM   11  N9  UNL     1      21.788  65.119 -15.660  1.00  0.00    -0.089 N 
HETATM   12  C13 UNL     1      22.655  66.047 -15.227  1.00  0.00     0.297 A 
HETATM   13  O3  UNL     1      22.156  67.096 -14.718  1.00  0.00    -0.264 OA
ENDROOT
BRANCH   5  14
HETATM   14  N3  UNL     1      25.419  62.392 -17.014  1.00  0.00    -0.366 N 
ATOM     15  H3  UNL     1      25.816  62.828 -17.847  1.00  0.00     0.161 HD
BRANCH  14  16
HETATM   16  C5  UNL     1      26.369  61.661 -16.294  1.00  0.00     0.242 C 
HETATM   17  N4  UNL     1      26.370  62.154 -14.909  1.00  0.00    -0.101 NA
HETATM   18  N5  UNL     1      27.074  63.359 -14.949  1.00  0.00    -0.036 NA
HETATM   19  N6  UNL     1      28.015  63.284 -15.966  1.00  0.00    -0.093 NA
HETATM   20  C6  UNL     1      27.803  62.040 -16.677  1.00  0.00     0.332 C 
BRANCH  20  21
HETATM   21  N7  UNL     1      28.679  61.046 -16.083  1.00  0.00    -0.057 N 
ATOM     22  H73 UNL     1      28.237  60.524 -15.326  1.00  0.00     0.276 HD
ATOM     23  H72 UNL     1      28.862  60.254 -16.699  1.00  0.00     0.276 HD
ATOM     24  H71 UNL     1      29.528  61.531 -15.792  1.00  0.00     0.276 HD
ENDBRANCH  20  21
ENDBRANCH  14  16
ENDBRANCH   5  14
BRANCH   7  25
HETATM   25  S2  UNL     1      20.738  60.655 -17.791  1.00  0.00    -0.107 SA
BRANCH  25  26
HETATM   26  C9  UNL     1      19.396  61.493 -18.710  1.00  0.00     0.141 C 
BRANCH  26  27
HETATM   27  C10 UNL     1      18.251  61.756 -17.776  1.00  0.00     0.263 C 
BRANCH  27  28
HETATM   28  O1  UNL     1      18.521  62.950 -17.101  1.00  0.00    -0.371 OA
ATOM     29  H1  UNL     1      17.802  63.111 -16.501  1.00  0.00     0.212 HD
ENDBRANCH  27  28
BRANCH  27  30
HETATM   30  O2  UNL     1      18.202  60.748 -16.827  1.00  0.00    -0.371 OA
ATOM     31  H2  UNL     1      17.474  60.170 -17.027  1.00  0.00     0.212 HD
ENDBRANCH  27  30
ENDBRANCH  26  27
ENDBRANCH  25  26
ENDBRANCH   7  25
BRANCH   1  32
HETATM   32  C1  UNL     1      24.926  66.906 -14.845  1.00  0.00     0.145 C 
HETATM   33  N1  UNL     1      25.477  66.775 -13.565  1.00  0.00    -0.087 NA
HETATM   34  S1  UNL     1      25.283  68.185 -15.782  1.00  0.00    -0.061 SA
ENDBRANCH   1  32
BRANCH  11  35
HETATM   35  C12 UNL     1      20.393  65.260 -15.572  1.00  0.00     0.722 A 
HETATM   36  N10 UNL     1      19.599  65.876 -16.463  1.00  0.00    -0.113 N 
HETATM   37  N11 UNL     1      18.348  65.802 -16.037  1.00  0.00     0.009 NA
ATOM     38  H10 UNL     1      19.909  66.327 -17.324  1.00  0.00     0.203 HD
HETATM   39  N12 UNL     1      18.312  65.151 -14.888  1.00  0.00    -0.211 N 
HETATM   40  N13 UNL     1      19.560  64.826 -14.615  1.00  0.00    -0.117 N 
ATOM     41  H12 UNL     1      17.486  64.942 -14.326  1.00  0.00     0.206 HD
ATOM     42  H13 UNL     1      19.853  64.312 -13.784  1.00  0.00     0.207 HD
ENDBRANCH  11  35
TORSDOF 10
ENDMDL
MODEL 2
REMARK VINA RESULT: -5.459194536      2.451      7.727
REMARK  10 active torsions:
REMARK  status: ('A' for Active; 'I' for Inactive)
REMARK    1  A    between atoms: C1_2  and  C2_4 
REMARK    2  A    between atoms: C4_8  and  N3_9 
REMARK    3  A    between atoms: N3_9  and  C5_11 
REMARK    4  A    between atoms: C6_15  and  N7_16 
REMARK    5  A    between atoms: C8_21  and  S2_22 
REMARK    6  A    between atoms: S2_22  and  C9_23 
REMARK    7  A    between atoms: C9_23  and  C10_24 
REMARK    8  A    between atoms: C10_24  and  O1_25 
REMARK    9  A    between atoms: C10_24  and  O2_27 
REMARK   10  A    between atoms: N9_32  and  C12_33 
ROOT
HETATM    1  C2  UNL     1      22.271  61.298 -16.961  1.00  0.00     0.138 A 
HETATM    2  N2  UNL     1      21.350  62.179 -16.563  1.00  0.00    -0.345 N 
ATOM      3  H2  UNL     1      20.367  61.904 -16.545  1.00  0.00     0.166 HD
HETATM    4  C3  UNL     1      21.692  63.409 -16.191  1.00  0.00     0.105 A 
HETATM    5  C4  UNL     1      20.709  64.295 -15.786  1.00  0.00     0.063 A 
HETATM    6  C7  UNL     1      21.168  65.579 -15.410  1.00  0.00     0.068 A 
HETATM    7  C8  UNL     1      22.492  65.922 -15.445  1.00  0.00     0.073 A 
HETATM    8  N8  UNL     1      23.407  65.025 -15.846  1.00  0.00    -0.334 N 
ATOM      9  H8  UNL     1      24.392  65.289 -15.867  1.00  0.00     0.168 HD
HETATM   10  C11 UNL     1      23.041  63.768 -16.224  1.00  0.00     0.162 A 
HETATM   11  N9  UNL     1      23.987  62.895 -16.621  1.00  0.00    -0.089 N 
HETATM   12  C13 UNL     1      23.596  61.665 -16.987  1.00  0.00     0.297 A 
HETATM   13  O3  UNL     1      24.508  60.866 -17.357  1.00  0.00    -0.264 OA
ENDROOT
BRANCH   5  14
HETATM   14  N3  UNL     1      19.475  64.039 -15.730  1.00  0.00    -0.366 N 
ATOM     15  H3  UNL     1      19.260  63.094 -16.046  1.00  0.00     0.161 HD
BRANCH  14  16
HETATM   16  C5  UNL     1      18.331  64.741 -15.338  1.00  0.00     0.242 C 
HETATM   17  N4  UNL     1      18.149  64.546 -13.893  1.00  0.00    -0.101 NA
HETATM   18  N5  UNL     1      17.617  63.261 -13.761  1.00  0.00    -0.036 NA
HETATM   19  N6  UNL     1      16.866  62.979 -14.893  1.00  0.00    -0.093 NA
HETATM   20  C6  UNL     1      17.044  64.071 -15.828  1.00  0.00     0.332 C 
BRANCH  20  21
HETATM   21  N7  UNL     1      15.962  65.012 -15.607  1.00  0.00    -0.057 N 
ATOM     22  H73 UNL     1      15.038  64.583 -15.670  1.00  0.00     0.276 HD
ATOM     23  H72 UNL     1      15.895  65.324 -14.638  1.00  0.00     0.276 HD
ATOM     24  H71 UNL     1      16.092  65.779 -16.266  1.00  0.00     0.276 HD
ENDBRANCH  20  21
ENDBRANCH  14  16
ENDBRANCH   5  14
BRANCH   7  25
HETATM   25  S2  UNL     1      23.008  67.569 -14.957  1.00  0.00    -0.107 SA
BRANCH  25  26
HETATM   26  C9  UNL     1      24.252  68.168 -16.157  1.00  0.00     0.141 C 
BRANCH  26  27
HETATM   27  C10 UNL     1      25.607  67.667 -15.752  1.00  0.00     0.263 C 
BRANCH  27  28
HETATM   28  O1  UNL     1      25.920  66.581 -16.575  1.00  0.00    -0.371 OA
ATOM     29  H1  UNL     1      25.825  65.790 -16.057  1.00  0.00     0.212 HD
ENDBRANCH  27  28
BRANCH  27  30
HETATM   30  O2  UNL     1      25.543  67.193 -14.452  1.00  0.00    -0.371 OA
ATOM     31  H2  UNL     1      24.742  66.693 -14.343  1.00  0.00     0.212 HD
ENDBRANCH  27  30
ENDBRANCH  26  27
ENDBRANCH  25  26
ENDBRANCH   7  25
BRANCH   1  32
HETATM   32  C1  UNL     1      21.888  59.939 -17.370  1.00  0.00     0.145 C 
HETATM   33  N1  UNL     1      22.219  58.865 -16.535  1.00  0.00    -0.087 NA
HETATM   34  S1  UNL     1      21.096  59.698 -18.768  1.00  0.00    -0.061 SA
ENDBRANCH   1  32
BRANCH  11  35
HETATM   35  C12 UNL     1      25.326  63.317 -16.628  1.00  0.00     0.722 A 
HETATM   36  N10 UNL     1      26.128  63.434 -15.557  1.00  0.00    -0.113 N 
HETATM   37  N11 UNL     1      27.316  63.858 -15.961  1.00  0.00     0.009 NA
ATOM     38  H10 UNL     1      25.866  63.231 -14.593  1.00  0.00     0.203 HD
HETATM   39  N12 UNL     1      27.302  64.018 -17.273  1.00  0.00    -0.211 N 
HETATM   40  N13 UNL     1      26.089  63.688 -17.667  1.00  0.00    -0.117 N 
ATOM     41  H12 UNL     1      28.074  64.334 -17.861  1.00  0.00     0.206 HD
ATOM     42  H13 UNL     1      25.772  63.710 -18.636  1.00  0.00     0.207 HD
ENDBRANCH  11  35
TORSDOF 10
ENDMDL
MODEL 3
REMARK VINA RESULT: -5.356394238      4.704      6.535
REMARK  10 active torsions:
REMARK  status: ('A' for Active; 'I' for Inactive)
REMARK    1  A    between atoms: C1_2  and  C2_4 
REMARK    2  A    between atoms: C4_8  and  N3_9 
REMARK    3  A    between atoms: N3_9  and  C5_11 
REMARK    4  A    between atoms: C6_15  and  N7_16 
REMARK    5  A    between atoms: C8_21  and  S2_22 
REMARK    6  A    between atoms: S2_22  and  C9_23 
REMARK    7  A    between atoms: C9_23  and  C10_24 
REMARK    8  A    between atoms: C10_24  and  O1_25 
REMARK    9  A    between atoms: C10_24  and  O2_27 
REMARK   10  A    between atoms: N9_32  and  C12_33 
ROOT
HETATM    1  C2  UNL     1      18.469  64.207 -15.635  1.00  0.00     0.138 A 
HETATM    2  N2  UNL     1      18.475  63.468 -16.746  1.00  0.00    -0.345 N 
ATOM      3  H2  UNL     1      19.359  63.283 -17.221  1.00  0.00     0.166 HD
HETATM    4  C3  UNL     1      17.347  62.969 -17.245  1.00  0.00     0.105 A 
HETATM    5  C4  UNL     1      17.393  62.208 -18.400  1.00  0.00     0.063 A 
HETATM    6  C7  UNL     1      16.145  61.720 -18.854  1.00  0.00     0.068 A 
HETATM    7  C8  UNL     1      14.974  61.985 -18.198  1.00  0.00     0.073 A 
HETATM    8  N8  UNL     1      14.983  62.729 -17.081  1.00  0.00    -0.334 N 
ATOM      9  H8  UNL     1      14.105  62.920 -16.598  1.00  0.00     0.168 HD
HETATM   10  C11 UNL     1      16.147  63.233 -16.582  1.00  0.00     0.162 A 
HETATM   11  N9  UNL     1      16.118  63.977 -15.459  1.00  0.00    -0.089 N 
HETATM   12  C13 UNL     1      17.279  64.459 -14.992  1.00  0.00     0.297 A 
HETATM   13  O3  UNL     1      17.221  65.155 -13.934  1.00  0.00    -0.264 OA
ENDROOT
BRANCH   5  14
HETATM   14  N3  UNL     1      18.438  61.928 -19.047  1.00  0.00    -0.366 N 
ATOM     15  H3  UNL     1      18.687  62.656 -19.717  1.00  0.00     0.161 HD
BRANCH  14  16
HETATM   16  C5  UNL     1      19.339  60.858 -19.068  1.00  0.00     0.242 C 
HETATM   17  N4  UNL     1      19.897  60.706 -17.716  1.00  0.00    -0.101 NA
HETATM   18  N5  UNL     1      20.843  61.725 -17.594  1.00  0.00    -0.036 NA
HETATM   19  N6  UNL     1      21.369  61.989 -18.851  1.00  0.00    -0.093 NA
HETATM   20  C6  UNL     1      20.630  61.202 -19.816  1.00  0.00     0.332 C 
BRANCH  20  21
HETATM   21  N7  UNL     1      21.355  59.959 -20.008  1.00  0.00    -0.057 N 
ATOM     22  H73 UNL     1      21.029  59.207 -19.400  1.00  0.00     0.276 HD
ATOM     23  H72 UNL     1      21.146  59.507 -20.898  1.00  0.00     0.276 HD
ATOM     24  H71 UNL     1      22.346  60.169 -19.889  1.00  0.00     0.276 HD
ENDBRANCH  20  21
ENDBRANCH  14  16
ENDBRANCH   5  14
BRANCH   7  25
HETATM   25  S2  UNL     1      13.425  61.339 -18.829  1.00  0.00    -0.107 SA
BRANCH  25  26
HETATM   26  C9  UNL     1      12.134  62.621 -18.625  1.00  0.00     0.141 C 
BRANCH  26  27
HETATM   27  C10 UNL     1      11.573  62.536 -17.236  1.00  0.00     0.263 C 
BRANCH  27  28
HETATM   28  O1  UNL     1      12.061  63.630 -16.515  1.00  0.00    -0.371 OA
ATOM     29  H1  UNL     1      13.003  63.656 -16.633  1.00  0.00     0.212 HD
ENDBRANCH  27  28
BRANCH  27  30
HETATM   30  O2  UNL     1      12.056  61.391 -16.624  1.00  0.00    -0.371 OA
ATOM     31  H2  UNL     1      12.210  60.727 -17.286  1.00  0.00     0.212 HD
ENDBRANCH  27  30
ENDBRANCH  26  27
ENDBRANCH  25  26
ENDBRANCH   7  25
BRANCH   1  32
HETATM   32  C1  UNL     1      19.718  64.756 -15.086  1.00  0.00     0.145 C 
HETATM   33  N1  UNL     1      20.347  64.080 -14.034  1.00  0.00    -0.087 NA
HETATM   34  S1  UNL     1      20.349  66.123 -15.698  1.00  0.00    -0.061 SA
ENDBRANCH   1  32
BRANCH  11  35
HETATM   35  C12 UNL     1      14.879  64.204 -14.839  1.00  0.00     0.722 A 
HETATM   36  N10 UNL     1      14.192  65.358 -14.835  1.00  0.00    -0.113 N 
HETATM   37  N11 UNL     1      13.072  65.183 -14.151  1.00  0.00     0.009 NA
ATOM     38  H10 UNL     1      14.485  66.226 -15.285  1.00  0.00     0.203 HD
HETATM   39  N12 UNL     1      13.017  63.939 -13.710  1.00  0.00    -0.211 N 
HETATM   40  N13 UNL     1      14.118  63.354 -14.134  1.00  0.00    -0.117 N 
ATOM     41  H12 UNL     1      12.272  63.517 -13.155  1.00  0.00     0.206 HD
ATOM     42  H13 UNL     1      14.362  62.380 -13.948  1.00  0.00     0.207 HD
ENDBRANCH  11  35
TORSDOF 10
ENDMDL
MODEL 4
REMARK VINA RESULT: -5.189852004      6.282      8.081
REMARK  10 active torsions:
REMARK  status: ('A' for Active; 'I' for Inactive)
REMARK    1  A    between atoms: C1_2  and  C2_4 
REMARK    2  A    between atoms: C4_8  and  N3_9 
REMARK    3  A    between atoms: N3_9  and  C5_11 
REMARK    4  A    between atoms: C6_15  and  N7_16 
REMARK    5  A    between atoms: C8_21  and  S2_22 
REMARK    6  A    between atoms: S2_22  and  C9_23 
REMARK    7  A    between atoms: C9_23  and  C10_24 
REMARK    8  A    between atoms: C10_24  and  O1_25 
REMARK    9  A    between atoms: C10_24  and  O2_27 
REMARK   10  A    between atoms: N9_32  and  C12_33 
ROOT
HETATM    1  C2  UNL     1      17.191  65.030 -15.248  1.00  0.00     0.138 A 
HETATM    2  N2  UNL     1      17.085  65.581 -16.460  1.00  0.00    -0.345 N 
ATOM      3  H2  UNL     1      17.792  66.249 -16.771  1.00  0.00     0.166 HD
HETATM    4  C3  UNL     1      16.074  65.273 -17.268  1.00  0.00     0.105 A 
HETATM    5  C4  UNL     1      15.997  65.866 -18.516  1.00  0.00     0.063 A 
HETATM    6  C7  UNL     1      14.888  65.478 -19.304  1.00  0.00     0.068 A 
HETATM    7  C8  UNL     1      13.955  64.580 -18.862  1.00  0.00     0.073 A 
HETATM    8  N8  UNL     1      14.075  64.033 -17.641  1.00  0.00    -0.334 N 
ATOM      9  H8  UNL     1      13.376  63.364 -17.320  1.00  0.00     0.168 HD
HETATM   10  C11 UNL     1      15.118  64.358 -16.825  1.00  0.00     0.162 A 
HETATM   11  N9  UNL     1      15.206  63.790 -15.607  1.00  0.00    -0.089 N 
HETATM   12  C13 UNL     1      16.242  64.129 -14.826  1.00  0.00     0.297 A 
HETATM   13  O3  UNL     1      16.297  63.579 -13.685  1.00  0.00    -0.264 OA
ENDROOT
BRANCH   5  14
HETATM   14  N3  UNL     1      16.825  66.696 -18.981  1.00  0.00    -0.366 N 
ATOM     15  H3  UNL     1      16.636  67.649 -18.668  1.00  0.00     0.161 HD
BRANCH  14  16
HETATM   16  C5  UNL     1      17.938  66.625 -19.823  1.00  0.00     0.242 C 
HETATM   17  N4  UNL     1      18.899  65.683 -19.231  1.00  0.00    -0.101 NA
HETATM   18  N5  UNL     1      19.512  66.388 -18.194  1.00  0.00    -0.036 NA
HETATM   19  N6  UNL     1      19.537  67.734 -18.532  1.00  0.00    -0.093 NA
HETATM   20  C6  UNL     1      18.792  67.896 -19.764  1.00  0.00     0.332 C 
BRANCH  20  21
HETATM   21  N7  UNL     1      19.743  67.822 -20.858  1.00  0.00    -0.057 N 
ATOM     22  H73 UNL     1      20.545  67.227 -20.652  1.00  0.00     0.276 HD
ATOM     23  H72 UNL     1      19.392  67.296 -21.658  1.00  0.00     0.276 HD
ATOM     24  H71 UNL     1      20.004  68.780 -21.093  1.00  0.00     0.276 HD
ENDBRANCH  20  21
ENDBRANCH  14  16
ENDBRANCH   5  14
BRANCH   7  25
HETATM   25  S2  UNL     1      12.570  64.133 -19.909  1.00  0.00    -0.107 SA
BRANCH  25  26
HETATM   26  C9  UNL     1      12.563  62.315 -20.119  1.00  0.00     0.141 C 
BRANCH  26  27
HETATM   27  C10 UNL     1      11.991  61.680 -18.885  1.00  0.00     0.263 C 
BRANCH  27  28
HETATM   28  O1  UNL     1      11.356  62.684 -18.148  1.00  0.00    -0.371 OA
ATOM     29  H1  UNL     1      11.074  62.303 -17.324  1.00  0.00     0.212 HD
ENDBRANCH  27  28
BRANCH  27  30
HETATM   30  O2  UNL     1      13.028  61.190 -18.107  1.00  0.00    -0.371 OA
ATOM     31  H2  UNL     1      13.612  60.680 -18.656  1.00  0.00     0.212 HD
ENDBRANCH  27  30
ENDBRANCH  26  27
ENDBRANCH  25  26
ENDBRANCH   7  25
BRANCH   1  32
HETATM   32  C1  UNL     1      18.311  65.372 -14.359  1.00  0.00     0.145 C 
HETATM   33  N1  UNL     1      18.080  66.245 -13.289  1.00  0.00    -0.087 NA
HETATM   34  S1  UNL     1      19.785  64.741 -14.621  1.00  0.00    -0.061 SA
ENDBRANCH   1  32
BRANCH  11  35
HETATM   35  C12 UNL     1      14.212  62.875 -15.222  1.00  0.00     0.722 A 
HETATM   36  N10 UNL     1      14.224  61.550 -15.442  1.00  0.00    -0.113 N 
HETATM   37  N11 UNL     1      13.120  61.026 -14.934  1.00  0.00     0.009 NA
ATOM     38  H10 UNL     1      14.962  61.033 -15.921  1.00  0.00     0.203 HD
HETATM   39  N12 UNL     1      12.390  61.983 -14.388  1.00  0.00    -0.211 N 
HETATM   40  N13 UNL     1      13.062  63.101 -14.570  1.00  0.00    -0.117 N 
ATOM     41  H12 UNL     1      11.488  61.877 -13.922  1.00  0.00     0.206 HD
ATOM     42  H13 UNL     1      12.749  64.019 -14.255  1.00  0.00     0.207 HD
ENDBRANCH  11  35
TORSDOF 10
ENDMDL
MODEL 5
REMARK VINA RESULT: -5.167632341      6.781     10.217
REMARK  10 active torsions:
REMARK  status: ('A' for Active; 'I' for Inactive)
REMARK    1  A    between atoms: C1_2  and  C2_4 
REMARK    2  A    between atoms: C4_8  and  N3_9 
REMARK    3  A    between atoms: N3_9  and  C5_11 
REMARK    4  A    between atoms: C6_15  and  N7_16 
REMARK    5  A    between atoms: C8_21  and  S2_22 
REMARK    6  A    between atoms: S2_22  and  C9_23 
REMARK    7  A    between atoms: C9_23  and  C10_24 
REMARK    8  A    between atoms: C10_24  and  O1_25 
REMARK    9  A    between atoms: C10_24  and  O2_27 
REMARK   10  A    between atoms: N9_32  and  C12_33 
ROOT
HETATM    1  C2  UNL     1      16.693  61.974 -18.742  1.00  0.00     0.138 A 
HETATM    2  N2  UNL     1      15.440  61.513 -18.744  1.00  0.00    -0.345 N 
ATOM      3  H2  UNL     1      15.127  60.917 -19.511  1.00  0.00     0.166 HD
HETATM    4  C3  UNL     1      14.595  61.817 -17.763  1.00  0.00     0.105 A 
HETATM    5  C4  UNL     1      13.304  61.321 -17.801  1.00  0.00     0.063 A 
HETATM    6  C7  UNL     1      12.478  61.698 -16.716  1.00  0.00     0.068 A 
HETATM    7  C8  UNL     1      12.925  62.499 -15.700  1.00  0.00     0.073 A 
HETATM    8  N8  UNL     1      14.188  62.954 -15.711  1.00  0.00    -0.334 N 
ATOM      9  H8  UNL     1      14.513  63.550 -14.949  1.00  0.00     0.168 HD
HETATM   10  C11 UNL     1      15.042  62.633 -16.723  1.00  0.00     0.162 A 
HETATM   11  N9  UNL     1      16.303  63.109 -16.700  1.00  0.00    -0.089 N 
HETATM   12  C13 UNL     1      17.120  62.777 -17.710  1.00  0.00     0.297 A 
HETATM   13  O3  UNL     1      18.299  63.240 -17.662  1.00  0.00    -0.264 OA
ENDROOT
BRANCH   5  14
HETATM   14  N3  UNL     1      12.834  60.578 -18.705  1.00  0.00    -0.366 N 
ATOM     15  H3  UNL     1      13.055  59.594 -18.553  1.00  0.00     0.161 HD
BRANCH  14  16
HETATM   16  C5  UNL     1      12.082  60.780 -19.867  1.00  0.00     0.242 C 
HETATM   17  N4  UNL     1      12.625  59.908 -20.919  1.00  0.00    -0.101 NA
HETATM   18  N5  UNL     1      13.790  60.543 -21.355  1.00  0.00    -0.036 NA
HETATM   19  N6  UNL     1      13.629  61.913 -21.200  1.00  0.00    -0.093 NA
HETATM   20  C6  UNL     1      12.371  62.137 -20.516  1.00  0.00     0.332 C 
BRANCH  20  21
HETATM   21  N7  UNL     1      11.357  62.348 -21.533  1.00  0.00    -0.057 N 
ATOM     22  H73 UNL     1      11.112  61.496 -22.037  1.00  0.00     0.276 HD
ATOM     23  H72 UNL     1      10.434  62.539 -21.143  1.00  0.00     0.276 HD
ATOM     24  H71 UNL     1      11.695  63.092 -22.143  1.00  0.00     0.276 HD
ENDBRANCH  20  21
ENDBRANCH  14  16
ENDBRANCH   5  14
BRANCH   7  25
HETATM   25  S2  UNL     1      11.826  62.942 -14.355  1.00  0.00    -0.107 SA
BRANCH  25  26
HETATM   26  C9  UNL     1      11.499  64.741 -14.440  1.00  0.00     0.141 C 
BRANCH  26  27
HETATM   27  C10 UNL     1      12.521  65.465 -13.613  1.00  0.00     0.263 C 
BRANCH  27  28
HETATM   28  O1  UNL     1      12.118  66.800 -13.515  1.00  0.00    -0.371 OA
ATOM     29  H1  UNL     1      11.774  67.060 -14.362  1.00  0.00     0.212 HD
ENDBRANCH  27  28
BRANCH  27  30
HETATM   30  O2  UNL     1      13.735  65.449 -14.281  1.00  0.00    -0.371 OA
ATOM     31  H2  UNL     1      13.573  65.426 -15.217  1.00  0.00     0.212 HD
ENDBRANCH  27  30
ENDBRANCH  26  27
ENDBRANCH  25  26
ENDBRANCH   7  25
BRANCH   1  32
HETATM   32  C1  UNL     1      17.625  61.634 -19.827  1.00  0.00     0.145 C 
HETATM   33  N1  UNL     1      18.475  60.534 -19.667  1.00  0.00    -0.087 NA
HETATM   34  S1  UNL     1      17.659  62.525 -21.185  1.00  0.00    -0.061 SA
ENDBRANCH   1  32
BRANCH  11  35
HETATM   35  C12 UNL     1      16.691  63.924 -15.624  1.00  0.00     0.722 A 
HETATM   36  N10 UNL     1      16.374  65.218 -15.452  1.00  0.00    -0.113 N 
HETATM   37  N11 UNL     1      16.920  65.641 -14.323  1.00  0.00     0.009 NA
ATOM     38  H10 UNL     1      15.808  65.781 -16.087  1.00  0.00     0.203 HD
HETATM   39  N12 UNL     1      17.584  64.650 -13.757  1.00  0.00    -0.211 N 
HETATM   40  N13 UNL     1      17.439  63.612 -14.555  1.00  0.00    -0.117 N 
ATOM     41  H12 UNL     1      18.105  64.681 -12.880  1.00  0.00     0.206 HD
ATOM     42  H13 UNL     1      17.843  62.691 -14.383  1.00  0.00     0.207 HD
ENDBRANCH  11  35
TORSDOF 10
ENDMDL
