MODEL 1
REMARK VINA RESULT: -6.150592421      0.000      0.000
REMARK  10 active torsions:
REMARK  status: ('A' for Active; 'I' for Inactive)
REMARK    1  A    between atoms: C2_2  and  O1_4 
REMARK    2  A    between atoms: C2_2  and  C4_6 
REMARK    3  A    between atoms: C4_6  and  O2_7 
REMARK    4  A    between atoms: C4_6  and  C5_9 
REMARK    5  A    between atoms: C4_6  and  C11_29 
REMARK    6  A    between atoms: C7_11  and  O3_12 
REMARK    7  A    between atoms: C11_29  and  C12_30 
REMARK    8  A    between atoms: C11_29  and  N6_33 
REMARK    9  A    between atoms: C12_30  and  O5_31 
REMARK   10  A    between atoms: C14_35  and  C15_36 
ROOT
HETATM    1  C4  UNL     1      20.548  64.073 -16.710  1.00  0.00     0.140 C 
ENDROOT
BRANCH   1   2
HETATM    2  C2  UNL     1      21.329  62.838 -16.949  1.00  0.00     0.086 C 
HETATM    3  C1  UNL     1      22.387  62.560 -15.869  1.00  0.00     0.049 C 
HETATM    4  C3  UNL     1      22.204  63.075 -18.198  1.00  0.00     0.049 C 
BRANCH   2   5
HETATM    5  O1  UNL     1      20.602  61.718 -17.248  1.00  0.00    -0.387 OA
ATOM      6  H1  UNL     1      19.669  61.865 -17.142  1.00  0.00     0.210 HD
ENDBRANCH   2   5
ENDBRANCH   1   2
BRANCH   1   7
HETATM    7  O2  UNL     1      20.934  64.421 -15.364  1.00  0.00    -0.382 OA
ATOM      8  H2  UNL     1      21.190  63.580 -15.004  1.00  0.00     0.210 HD
ENDBRANCH   1   7
BRANCH   1   9
HETATM    9  C5  UNL     1      19.074  64.023 -16.654  1.00  0.00     0.233 C 
HETATM   10  C6  UNL     1      18.315  64.902 -15.776  1.00  0.00     0.109 C 
HETATM   11  C7  UNL     1      17.170  64.056 -15.180  1.00  0.00     0.219 C 
HETATM   12  O4  UNL     1      16.055  64.821 -14.885  1.00  0.00    -0.291 OA
HETATM   13  C10 UNL     1      17.052  63.006 -16.202  1.00  0.00     0.362 C 
HETATM   14  C8  UNL     1      14.736  64.833 -15.315  1.00  0.00     0.182 C 
HETATM   15  N1  UNL     1      13.816  65.233 -14.523  1.00  0.00    -0.377 N 
HETATM   16  C9  UNL     1      14.341  64.394 -16.672  1.00  0.00     0.181 C 
ATOM     17  H12 UNL     1      14.088  65.536 -13.588  1.00  0.00     0.158 HD
ATOM     18  H11 UNL     1      12.846  65.242 -14.839  1.00  0.00     0.158 HD
HETATM   19  N2  UNL     1      13.022  64.734 -17.040  1.00  0.00    -0.077 NA
HETATM   20  N3  UNL     1      15.035  63.747 -17.558  1.00  0.00    -0.287 N 
HETATM   21  N4  UNL     1      16.349  63.321 -17.394  1.00  0.00    -0.300 N 
ATOM     22  H3  UNL     1      14.580  63.534 -18.446  1.00  0.00     0.188 HD
ATOM     23  H4  UNL     1      16.885  63.219 -18.255  1.00  0.00     0.182 HD
HETATM   24  N5  UNL     1      18.467  62.719 -16.524  1.00  0.00    -0.040 N 
ATOM     25  H52 UNL     1      18.596  62.115 -17.336  1.00  0.00     0.280 HD
ATOM     26  H51 UNL     1      18.932  62.106 -15.853  1.00  0.00     0.280 HD
BRANCH  11  27
HETATM   27  O3  UNL     1      17.578  63.449 -13.980  1.00  0.00    -0.362 OA
ATOM     28  H3  UNL     1      17.543  62.503 -14.057  1.00  0.00     0.213 HD
ENDBRANCH  11  27
ENDBRANCH   1   9
BRANCH   1  29
HETATM   29  C11 UNL     1      21.115  65.273 -17.458  1.00  0.00     0.172 C 
BRANCH  29  30
HETATM   30  C12 UNL     1      20.215  66.015 -18.346  1.00  0.00     0.194 C 
BRANCH  30  31
HETATM   31  O5  UNL     1      20.803  67.282 -18.650  1.00  0.00    -0.399 OA
ATOM     32  H5  UNL     1      21.383  67.182 -19.396  1.00  0.00     0.209 HD
ENDBRANCH  30  31
ENDBRANCH  29  30
BRANCH  29  33
HETATM   33  N6  UNL     1      21.817  66.147 -16.525  1.00  0.00    -0.277 N 
HETATM   34  C13 UNL     1      23.145  66.137 -16.352  1.00  0.00     0.146 A 
HETATM   35  C14 UNL     1      23.441  67.093 -15.394  1.00  0.00     0.102 A 
HETATM   36  N8  UNL     1      22.276  67.639 -15.030  1.00  0.00    -0.282 N 
HETATM   37  N9  UNL     1      21.310  67.062 -15.717  1.00  0.00    -0.240 N 
ATOM     38  H8  UNL     1      22.155  68.378 -14.337  1.00  0.00     0.188 HD
ATOM     39  H9  UNL     1      20.319  67.288 -15.636  1.00  0.00     0.208 HD
BRANCH  35  40
HETATM   40  C15 UNL     1      24.796  67.375 -14.937  1.00  0.00     0.142 C 
HETATM   41  N7  UNL     1      25.423  66.513 -13.995  1.00  0.00    -0.087 NA
HETATM   42  S1  UNL     1      25.604  68.680 -15.499  1.00  0.00    -0.061 SA
ENDBRANCH  35  40
ENDBRANCH  29  33
ENDBRANCH   1  29
TORSDOF 10
ENDMDL
MODEL 2
REMARK VINA RESULT: -6.060074469      1.122      1.164
REMARK  10 active torsions:
REMARK  status: ('A' for Active; 'I' for Inactive)
REMARK    1  A    between atoms: C2_2  and  O1_4 
REMARK    2  A    between atoms: C2_2  and  C4_6 
REMARK    3  A    between atoms: C4_6  and  O2_7 
REMARK    4  A    between atoms: C4_6  and  C5_9 
REMARK    5  A    between atoms: C4_6  and  C11_29 
REMARK    6  A    between atoms: C7_11  and  O3_12 
REMARK    7  A    between atoms: C11_29  and  C12_30 
REMARK    8  A    between atoms: C11_29  and  N6_33 
REMARK    9  A    between atoms: C12_30  and  O5_31 
REMARK   10  A    between atoms: C14_35  and  C15_36 
ROOT
HETATM    1  C4  UNL     1      20.267  64.297 -16.737  1.00  0.00     0.140 C 
ENDROOT
BRANCH   1   2
HETATM    2  C2  UNL     1      21.024  63.067 -17.064  1.00  0.00     0.086 C 
HETATM    3  C1  UNL     1      22.175  62.775 -16.088  1.00  0.00     0.049 C 
HETATM    4  C3  UNL     1      21.782  63.323 -18.383  1.00  0.00     0.049 C 
BRANCH   2   5
HETATM    5  O1  UNL     1      20.273  61.950 -17.312  1.00  0.00    -0.387 OA
ATOM      6  H1  UNL     1      20.303  61.337 -16.587  1.00  0.00     0.210 HD
ENDBRANCH   2   5
ENDBRANCH   1   2
BRANCH   1   7
HETATM    7  O2  UNL     1      20.691  64.564 -15.384  1.00  0.00    -0.382 OA
ATOM      8  H2  UNL     1      19.956  64.242 -14.876  1.00  0.00     0.210 HD
ENDBRANCH   1   7
BRANCH   1   9
HETATM    9  C5  UNL     1      18.794  64.263 -16.648  1.00  0.00     0.233 C 
HETATM   10  C6  UNL     1      18.115  63.686 -15.497  1.00  0.00     0.109 C 
HETATM   11  C7  UNL     1      16.902  62.902 -16.043  1.00  0.00     0.219 C 
HETATM   12  O4  UNL     1      15.857  62.861 -15.136  1.00  0.00    -0.291 OA
HETATM   13  C10 UNL     1      16.694  63.589 -17.325  1.00  0.00     0.362 C 
HETATM   14  C8  UNL     1      14.543  63.306 -15.138  1.00  0.00     0.182 C 
HETATM   15  N1  UNL     1      13.662  62.681 -14.457  1.00  0.00    -0.377 N 
HETATM   16  C9  UNL     1      14.110  64.493 -15.909  1.00  0.00     0.181 C 
ATOM     17  H12 UNL     1      13.960  61.863 -13.926  1.00  0.00     0.158 HD
ATOM     18  H11 UNL     1      12.695  63.008 -14.458  1.00  0.00     0.158 HD
HETATM   19  N2  UNL     1      12.825  64.973 -15.579  1.00  0.00    -0.077 NA
HETATM   20  N3  UNL     1      14.745  65.145 -16.834  1.00  0.00    -0.287 N 
HETATM   21  N4  UNL     1      16.019  64.837 -17.304  1.00  0.00    -0.300 N 
ATOM     22  H3  UNL     1      14.273  65.947 -17.252  1.00  0.00     0.188 HD
ATOM     23  H4  UNL     1      16.542  65.623 -17.689  1.00  0.00     0.182 HD
HETATM   24  N5  UNL     1      18.078  63.785 -17.807  1.00  0.00    -0.040 N 
ATOM     25  H52 UNL     1      18.155  64.391 -18.624  1.00  0.00     0.280 HD
ATOM     26  H51 UNL     1      18.490  62.959 -18.242  1.00  0.00     0.280 HD
BRANCH  11  27
HETATM   27  O3  UNL     1      17.258  61.571 -16.317  1.00  0.00    -0.362 OA
ATOM     28  H3  UNL     1      17.234  61.405 -17.252  1.00  0.00     0.213 HD
ENDBRANCH  11  27
ENDBRANCH   1   9
BRANCH   1  29
HETATM   29  C11 UNL     1      20.834  65.529 -17.432  1.00  0.00     0.172 C 
BRANCH  29  30
HETATM   30  C12 UNL     1      19.905  66.384 -18.177  1.00  0.00     0.194 C 
BRANCH  30  31
HETATM   31  O5  UNL     1      20.435  67.710 -18.230  1.00  0.00    -0.399 OA
ATOM     32  H5  UNL     1      19.815  68.273 -18.677  1.00  0.00     0.209 HD
ENDBRANCH  30  31
ENDBRANCH  29  30
BRANCH  29  33
HETATM   33  N6  UNL     1      21.653  66.289 -16.493  1.00  0.00    -0.277 N 
HETATM   34  C13 UNL     1      22.991  66.252 -16.475  1.00  0.00     0.146 A 
HETATM   35  C14 UNL     1      23.411  67.092 -15.458  1.00  0.00     0.102 A 
HETATM   36  N8  UNL     1      22.305  67.600 -14.904  1.00  0.00    -0.282 N 
HETATM   37  N9  UNL     1      21.257  67.109 -15.535  1.00  0.00    -0.240 N 
ATOM     38  H8  UNL     1      22.277  68.258 -14.124  1.00  0.00     0.188 HD
ATOM     39  H9  UNL     1      20.286  67.330 -15.317  1.00  0.00     0.208 HD
BRANCH  35  40
HETATM   40  C15 UNL     1      24.814  67.314 -15.130  1.00  0.00     0.142 C 
HETATM   41  N7  UNL     1      25.467  66.471 -14.187  1.00  0.00    -0.087 NA
HETATM   42  S1  UNL     1      25.648  68.528 -15.839  1.00  0.00    -0.061 SA
ENDBRANCH  35  40
ENDBRANCH  29  33
ENDBRANCH   1  29
TORSDOF 10
ENDMDL
MODEL 3
REMARK VINA RESULT: -5.880299992      3.050      4.160
REMARK  10 active torsions:
REMARK  status: ('A' for Active; 'I' for Inactive)
REMARK    1  A    between atoms: C2_2  and  O1_4 
REMARK    2  A    between atoms: C2_2  and  C4_6 
REMARK    3  A    between atoms: C4_6  and  O2_7 
REMARK    4  A    between atoms: C4_6  and  C5_9 
REMARK    5  A    between atoms: C4_6  and  C11_29 
REMARK    6  A    between atoms: C7_11  and  O3_12 
REMARK    7  A    between atoms: C11_29  and  C12_30 
REMARK    8  A    between atoms: C11_29  and  N6_33 
REMARK    9  A    between atoms: C12_30  and  O5_31 
REMARK   10  A    between atoms: C14_35  and  C15_36 
ROOT
HETATM    1  C4  UNL     1      22.850  66.901 -16.332  1.00  0.00     0.140 C 
ENDROOT
BRANCH   1   2
HETATM    2  C2  UNL     1      24.117  66.415 -15.739  1.00  0.00     0.086 C 
HETATM    3  C1  UNL     1      24.232  66.681 -14.229  1.00  0.00     0.049 C 
HETATM    4  C3  UNL     1      25.259  67.285 -16.304  1.00  0.00     0.049 C 
BRANCH   2   5
HETATM    5  O1  UNL     1      24.474  65.133 -16.057  1.00  0.00    -0.387 OA
ATOM      6  H1  UNL     1      25.410  64.995 -15.971  1.00  0.00     0.210 HD
ENDBRANCH   2   5
ENDBRANCH   1   2
BRANCH   1   7
HETATM    7  O2  UNL     1      22.554  68.053 -15.516  1.00  0.00    -0.382 OA
ATOM      8  H2  UNL     1      23.042  68.741 -15.954  1.00  0.00     0.210 HD
ENDBRANCH   1   7
BRANCH   1   9
HETATM    9  C5  UNL     1      21.625  66.081 -16.246  1.00  0.00     0.233 C 
HETATM   10  C6  UNL     1      20.735  66.162 -15.096  1.00  0.00     0.109 C 
HETATM   11  C7  UNL     1      20.282  64.720 -14.782  1.00  0.00     0.219 C 
HETATM   12  O4  UNL     1      19.023  64.682 -14.208  1.00  0.00    -0.291 OA
HETATM   13  C10 UNL     1      20.475  64.086 -16.095  1.00  0.00     0.362 C 
HETATM   14  C8  UNL     1      17.802  64.125 -14.562  1.00  0.00     0.182 C 
HETATM   15  N1  UNL     1      16.986  63.757 -13.651  1.00  0.00    -0.377 N 
HETATM   16  C9  UNL     1      17.399  63.935 -15.974  1.00  0.00     0.181 C 
ATOM     17  H12 UNL     1      17.264  63.888 -12.679  1.00  0.00     0.158 HD
ATOM     18  H11 UNL     1      16.089  63.347 -13.912  1.00  0.00     0.158 HD
HETATM   19  N2  UNL     1      16.034  63.628 -16.159  1.00  0.00    -0.077 NA
HETATM   20  N3  UNL     1      18.121  64.012 -17.050  1.00  0.00    -0.287 N 
HETATM   21  N4  UNL     1      19.481  64.302 -17.085  1.00  0.00    -0.300 N 
ATOM     22  H3  UNL     1      17.654  63.846 -17.941  1.00  0.00     0.188 HD
ATOM     23  H4  UNL     1      19.813  64.732 -17.948  1.00  0.00     0.182 HD
HETATM   24  N5  UNL     1      21.756  64.674 -16.544  1.00  0.00    -0.040 N 
ATOM     25  H52 UNL     1      21.990  64.473 -17.516  1.00  0.00     0.280 HD
ATOM     26  H51 UNL     1      22.582  64.235 -16.137  1.00  0.00     0.280 HD
BRANCH  11  27
HETATM   27  O3  UNL     1      21.164  64.112 -13.874  1.00  0.00    -0.362 OA
ATOM     28  H3  UNL     1      20.902  63.214 -13.704  1.00  0.00     0.213 HD
ENDBRANCH  11  27
ENDBRANCH   1   9
BRANCH   1  29
HETATM   29  C11 UNL     1      23.063  67.586 -17.676  1.00  0.00     0.172 C 
BRANCH  29  30
HETATM   30  C12 UNL     1      22.709  66.841 -18.889  1.00  0.00     0.194 C 
BRANCH  30  31
HETATM   31  O5  UNL     1      23.561  65.698 -18.996  1.00  0.00    -0.399 OA
ATOM     32  H5  UNL     1      24.357  65.948 -19.450  1.00  0.00     0.209 HD
ENDBRANCH  30  31
ENDBRANCH  29  30
BRANCH  29  33
HETATM   33  N6  UNL     1      22.464  68.916 -17.649  1.00  0.00    -0.277 N 
HETATM   34  C13 UNL     1      23.162  70.048 -17.804  1.00  0.00     0.146 A 
HETATM   35  C14 UNL     1      22.264  71.098 -17.719  1.00  0.00     0.102 A 
HETATM   36  N8  UNL     1      21.060  70.553 -17.517  1.00  0.00    -0.282 N 
HETATM   37  N9  UNL     1      21.195  69.242 -17.477  1.00  0.00    -0.240 N 
ATOM     38  H8  UNL     1      20.184  71.065 -17.411  1.00  0.00     0.188 HD
ATOM     39  H9  UNL     1      20.434  68.579 -17.334  1.00  0.00     0.208 HD
BRANCH  35  40
HETATM   40  C15 UNL     1      22.654  72.498 -17.841  1.00  0.00     0.142 C 
HETATM   41  N7  UNL     1      23.029  73.235 -16.683  1.00  0.00    -0.087 NA
HETATM   42  S1  UNL     1      22.664  73.231 -19.301  1.00  0.00    -0.061 SA
ENDBRANCH  35  40
ENDBRANCH  29  33
ENDBRANCH   1  29
TORSDOF 10
ENDMDL
MODEL 4
REMARK VINA RESULT: -5.875113723      2.683      3.738
REMARK  10 active torsions:
REMARK  status: ('A' for Active; 'I' for Inactive)
REMARK    1  A    between atoms: C2_2  and  O1_4 
REMARK    2  A    between atoms: C2_2  and  C4_6 
REMARK    3  A    between atoms: C4_6  and  O2_7 
REMARK    4  A    between atoms: C4_6  and  C5_9 
REMARK    5  A    between atoms: C4_6  and  C11_29 
REMARK    6  A    between atoms: C7_11  and  O3_12 
REMARK    7  A    between atoms: C11_29  and  C12_30 
REMARK    8  A    between atoms: C11_29  and  N6_33 
REMARK    9  A    between atoms: C12_30  and  O5_31 
REMARK   10  A    between atoms: C14_35  and  C15_36 
ROOT
HETATM    1  C4  UNL     1      17.800  63.120 -17.555  1.00  0.00     0.140 C 
ENDROOT
BRANCH   1   2
HETATM    2  C2  UNL     1      17.798  62.298 -18.787  1.00  0.00     0.086 C 
HETATM    3  C1  UNL     1      18.744  61.088 -18.720  1.00  0.00     0.049 C 
HETATM    4  C3  UNL     1      18.437  63.140 -19.910  1.00  0.00     0.049 C 
BRANCH   2   5
HETATM    5  O1  UNL     1      16.567  61.953 -19.275  1.00  0.00    -0.387 OA
ATOM      6  H1  UNL     1      16.367  62.412 -20.083  1.00  0.00     0.210 HD
ENDBRANCH   2   5
ENDBRANCH   1   2
BRANCH   1   7
HETATM    7  O2  UNL     1      18.481  62.261 -16.616  1.00  0.00    -0.382 OA
ATOM      8  H2  UNL     1      18.264  61.396 -16.942  1.00  0.00     0.210 HD
ENDBRANCH   1   7
BRANCH   1   9
HETATM    9  C5  UNL     1      16.530  63.449 -16.878  1.00  0.00     0.233 C 
HETATM   10  C6  UNL     1      15.840  62.478 -16.041  1.00  0.00     0.109 C 
HETATM   11  C7  UNL     1      14.332  62.628 -16.336  1.00  0.00     0.219 C 
HETATM   12  O4  UNL     1      13.552  62.295 -15.243  1.00  0.00    -0.291 OA
HETATM   13  C10 UNL     1      14.292  64.010 -16.833  1.00  0.00     0.362 C 
HETATM   14  C8  UNL     1      12.638  62.974 -14.449  1.00  0.00     0.182 C 
HETATM   15  N1  UNL     1      11.680  62.335 -13.898  1.00  0.00    -0.377 N 
HETATM   16  C9  UNL     1      12.727  64.432 -14.212  1.00  0.00     0.181 C 
ATOM     17  H12 UNL     1      11.618  61.330 -14.061  1.00  0.00     0.158 HD
ATOM     18  H11 UNL     1      11.008  62.834 -13.315  1.00  0.00     0.158 HD
HETATM   19  N2  UNL     1      11.905  64.910 -13.169  1.00  0.00    -0.077 NA
HETATM   20  N3  UNL     1      13.449  65.320 -14.825  1.00  0.00    -0.287 N 
HETATM   21  N4  UNL     1      14.322  65.058 -15.876  1.00  0.00    -0.300 N 
ATOM     22  H3  UNL     1      13.370  66.287 -14.511  1.00  0.00     0.188 HD
ATOM     23  H4  UNL     1      15.097  65.714 -15.972  1.00  0.00     0.182 HD
HETATM   24  N5  UNL     1      15.504  64.078 -17.677  1.00  0.00    -0.040 N 
ATOM     25  H52 UNL     1      15.740  65.018 -17.996  1.00  0.00     0.280 HD
ATOM     26  H51 UNL     1      15.390  63.670 -18.606  1.00  0.00     0.280 HD
BRANCH  11  27
HETATM   27  O3  UNL     1      13.949  61.778 -17.387  1.00  0.00    -0.362 OA
ATOM     28  H3  UNL     1      13.018  61.860 -17.559  1.00  0.00     0.213 HD
ENDBRANCH  11  27
ENDBRANCH   1   9
BRANCH   1  29
HETATM   29  C11 UNL     1      18.799  64.268 -17.625  1.00  0.00     0.172 C 
BRANCH  29  30
HETATM   30  C12 UNL     1      18.279  65.636 -17.530  1.00  0.00     0.194 C 
BRANCH  30  31
HETATM   31  O5  UNL     1      19.377  66.541 -17.391  1.00  0.00    -0.399 OA
ATOM     32  H5  UNL     1      19.167  67.353 -17.837  1.00  0.00     0.209 HD
ENDBRANCH  30  31
ENDBRANCH  29  30
BRANCH  29  33
HETATM   33  N6  UNL     1      19.892  64.025 -16.689  1.00  0.00    -0.277 N 
HETATM   34  C13 UNL     1      21.046  63.438 -17.030  1.00  0.00     0.146 A 
HETATM   35  C14 UNL     1      21.829  63.380 -15.890  1.00  0.00     0.102 A 
HETATM   36  N8  UNL     1      21.112  63.936 -14.908  1.00  0.00    -0.282 N 
HETATM   37  N9  UNL     1      19.951  64.319 -15.402  1.00  0.00    -0.240 N 
ATOM     38  H8  UNL     1      21.412  64.045 -13.939  1.00  0.00     0.188 HD
ATOM     39  H9  UNL     1      19.210  64.774 -14.870  1.00  0.00     0.208 HD
BRANCH  35  40
HETATM   40  C15 UNL     1      23.168  62.803 -15.866  1.00  0.00     0.142 C 
HETATM   41  N7  UNL     1      23.352  61.449 -15.467  1.00  0.00    -0.087 NA
HETATM   42  S1  UNL     1      24.464  63.700 -16.296  1.00  0.00    -0.061 SA
ENDBRANCH  35  40
ENDBRANCH  29  33
ENDBRANCH   1  29
TORSDOF 10
ENDMDL
MODEL 5
REMARK VINA RESULT: -5.839361467      3.450      7.848
REMARK  10 active torsions:
REMARK  status: ('A' for Active; 'I' for Inactive)
REMARK    1  A    between atoms: C2_2  and  O1_4 
REMARK    2  A    between atoms: C2_2  and  C4_6 
REMARK    3  A    between atoms: C4_6  and  O2_7 
REMARK    4  A    between atoms: C4_6  and  C5_9 
REMARK    5  A    between atoms: C4_6  and  C11_29 
REMARK    6  A    between atoms: C7_11  and  O3_12 
REMARK    7  A    between atoms: C11_29  and  C12_30 
REMARK    8  A    between atoms: C11_29  and  N6_33 
REMARK    9  A    between atoms: C12_30  and  O5_31 
REMARK   10  A    between atoms: C14_35  and  C15_36 
ROOT
HETATM    1  C4  UNL     1      17.940  64.723 -16.555  1.00  0.00     0.140 C 
ENDROOT
BRANCH   1   2
HETATM    2  C2  UNL     1      17.328  64.162 -17.781  1.00  0.00     0.086 C 
HETATM    3  C1  UNL     1      17.424  62.631 -17.871  1.00  0.00     0.049 C 
HETATM    4  C3  UNL     1      18.192  64.607 -18.979  1.00  0.00     0.049 C 
BRANCH   2   5
HETATM    5  O1  UNL     1      16.070  64.610 -18.081  1.00  0.00    -0.387 OA
ATOM      6  H1  UNL     1      15.715  65.155 -17.388  1.00  0.00     0.210 HD
ENDBRANCH   2   5
ENDBRANCH   1   2
BRANCH   1   7
HETATM    7  O2  UNL     1      17.354  66.041 -16.497  1.00  0.00    -0.382 OA
ATOM      8  H2  UNL     1      17.638  66.349 -15.645  1.00  0.00     0.210 HD
ENDBRANCH   1   7
BRANCH   1   9
HETATM    9  C5  UNL     1      19.393  64.978 -16.498  1.00  0.00     0.233 C 
HETATM   10  C6  UNL     1      20.352  63.889 -16.373  1.00  0.00     0.109 C 
HETATM   11  C7  UNL     1      21.443  64.367 -15.391  1.00  0.00     0.219 C 
HETATM   12  O4  UNL     1      22.672  63.787 -15.655  1.00  0.00    -0.291 OA
HETATM   13  C10 UNL     1      21.310  65.825 -15.531  1.00  0.00     0.362 C 
HETATM   14  C8  UNL     1      23.924  64.266 -16.012  1.00  0.00     0.182 C 
HETATM   15  N1  UNL     1      24.971  63.627 -15.657  1.00  0.00    -0.377 N 
HETATM   16  C9  UNL     1      24.101  65.507 -16.799  1.00  0.00     0.181 C 
ATOM     17  H12 UNL     1      24.849  62.773 -15.115  1.00  0.00     0.158 HD
ATOM     18  H11 UNL     1      25.892  63.980 -15.919  1.00  0.00     0.158 HD
HETATM   19  N2  UNL     1      25.401  65.697 -17.315  1.00  0.00    -0.077 NA
HETATM   20  N3  UNL     1      23.234  66.433 -17.076  1.00  0.00    -0.287 N 
HETATM   21  N4  UNL     1      21.905  66.437 -16.665  1.00  0.00    -0.300 N 
ATOM     22  H3  UNL     1      23.553  67.221 -17.640  1.00  0.00     0.188 HD
ATOM     23  H4  UNL     1      21.265  66.955 -17.267  1.00  0.00     0.182 HD
HETATM   24  N5  UNL     1      19.843  66.004 -15.586  1.00  0.00    -0.040 N 
ATOM     25  H52 UNL     1      19.546  66.946 -15.838  1.00  0.00     0.280 HD
ATOM     26  H51 UNL     1      19.385  65.983 -14.674  1.00  0.00     0.280 HD
BRANCH  11  27
HETATM   27  O3  UNL     1      21.104  64.026 -14.072  1.00  0.00    -0.362 OA
ATOM     28  H3  UNL     1      20.494  64.658 -13.710  1.00  0.00     0.213 HD
ENDBRANCH  11  27
ENDBRANCH   1   9
BRANCH   1  29
HETATM   29  C11 UNL     1      17.349  64.124 -15.284  1.00  0.00     0.172 C 
BRANCH  29  30
HETATM   30  C12 UNL     1      17.871  64.595 -13.997  1.00  0.00     0.194 C 
BRANCH  30  31
HETATM   31  O5  UNL     1      17.343  65.897 -13.732  1.00  0.00    -0.399 OA
ATOM     32  H5  UNL     1      17.923  66.548 -14.108  1.00  0.00     0.209 HD
ENDBRANCH  30  31
ENDBRANCH  29  30
BRANCH  29  33
HETATM   33  N6  UNL     1      15.893  64.181 -15.346  1.00  0.00    -0.277 N 
HETATM   34  C13 UNL     1      15.101  63.108 -15.226  1.00  0.00     0.146 A 
HETATM   35  C14 UNL     1      13.793  63.549 -15.336  1.00  0.00     0.102 A 
HETATM   36  N8  UNL     1      13.853  64.873 -15.518  1.00  0.00    -0.282 N 
HETATM   37  N9  UNL     1      15.119  65.238 -15.521  1.00  0.00    -0.240 N 
ATOM     38  H8  UNL     1      13.052  65.495 -15.634  1.00  0.00     0.188 HD
ATOM     39  H9  UNL     1      15.453  66.195 -15.642  1.00  0.00     0.208 HD
BRANCH  35  40
HETATM   40  C15 UNL     1      12.639  62.662 -15.256  1.00  0.00     0.142 C 
HETATM   41  N7  UNL     1      11.725  62.779 -14.172  1.00  0.00    -0.087 NA
HETATM   42  S1  UNL     1      12.385  61.528 -16.405  1.00  0.00    -0.061 SA
ENDBRANCH  35  40
ENDBRANCH  29  33
ENDBRANCH   1  29
TORSDOF 10
ENDMDL
