MODEL 1
REMARK VINA RESULT: -5.880492779      0.000      0.000
REMARK  16 active torsions:
REMARK  status: ('A' for Active; 'I' for Inactive)
REMARK    1  A    between atoms: N1_2  and  C3_4 
REMARK    2  A    between atoms: C4_5  and  O1_6 
REMARK    3  A    between atoms: C5_8  and  O2_9 
REMARK    4  A    between atoms: C6_11  and  O3_12 
REMARK    5  A    between atoms: C7_14  and  C8_15 
REMARK    6  A    between atoms: C8_15  and  O4_16 
REMARK    7  A    between atoms: C8_15  and  C9_18 
REMARK    8  A    between atoms: N2_20  and  C11_21 
REMARK    9  A    between atoms: C11_21  and  N3_22 
REMARK   10  A    between atoms: C11_21  and  C12_26 
REMARK   11  A    between atoms: C12_26  and  O5_27 
REMARK   12  A    between atoms: C12_26  and  N4_29 
REMARK   13  A    between atoms: N4_29  and  N5_30 
REMARK   14  A    between atoms: N4_29  and  O6_33 
REMARK   15  A    between atoms: N6_39  and  O9_40 
REMARK   16  A    between atoms: C15_42  and  O10_43 
ROOT
HETATM    1  C9  UNL     1      23.960  64.478 -16.110  1.00  0.00     0.116 A 
HETATM    2  C10 UNL     1      22.579  64.549 -15.958  1.00  0.00     0.132 A 
HETATM    3  N2  UNL     1      21.922  65.639 -15.531  1.00  0.00    -0.285 N 
HETATM    4  C13 UNL     1      22.665  66.721 -15.239  1.00  0.00     0.320 A 
HETATM    5  O7  UNL     1      22.093  67.759 -14.838  1.00  0.00    -0.262 OA
HETATM    6  C14 UNL     1      24.050  66.683 -15.382  1.00  0.00     0.340 A 
HETATM    7  O8  UNL     1      24.742  67.701 -15.106  1.00  0.00    -0.260 OA
HETATM    8  N6  UNL     1      24.689  65.592 -15.807  1.00  0.00    -0.179 N 
ENDROOT
BRANCH   1   9
HETATM    9  C8  UNL     1      24.657  63.355 -16.663  1.00  0.00     0.112 C 
BRANCH   9  10
HETATM   10  C7  UNL     1      25.138  62.133 -16.074  1.00  0.00     0.071 A 
HETATM   11  C6  UNL     1      24.510  60.930 -16.362  1.00  0.00     0.117 A 
HETATM   12  C5  UNL     1      24.951  59.720 -15.924  1.00  0.00     0.136 A 
HETATM   13  C4  UNL     1      26.106  59.693 -15.133  1.00  0.00     0.131 A 
HETATM   14  C3  UNL     1      26.768  60.836 -14.815  1.00  0.00     0.100 A 
HETATM   15  C15 UNL     1      26.287  62.095 -15.291  1.00  0.00     0.111 A 
BRANCH  11  16
HETATM   16  O3  UNL     1      23.358  61.046 -17.161  1.00  0.00    -0.357 OA
ATOM     17  H3  UNL     1      23.089  61.881 -17.526  1.00  0.00     0.217 HD
ENDBRANCH  11  16
BRANCH  12  18
HETATM   18  O2  UNL     1      24.302  58.562 -16.232  1.00  0.00    -0.356 OA
ATOM     19  H2  UNL     1      23.436  58.587 -16.621  1.00  0.00     0.218 HD
ENDBRANCH  12  18
BRANCH  13  20
HETATM   20  O1  UNL     1      26.505  58.404 -14.710  1.00  0.00    -0.356 OA
ATOM     21  H1  UNL     1      27.382  58.056 -14.821  1.00  0.00     0.218 HD
ENDBRANCH  13  20
BRANCH  14  22
HETATM   22  N1  UNL     1      27.930  60.767 -14.010  1.00  0.00    -0.385 N 
HETATM   23  C1  UNL     1      29.236  60.603 -14.624  1.00  0.00     0.149 C 
HETATM   24  C2  UNL     1      27.897  60.852 -12.551  1.00  0.00     0.149 C 
ENDBRANCH  14  22
BRANCH  15  25
HETATM   25  O10 UNL     1      26.975  63.147 -14.961  1.00  0.00    -0.357 OA
ATOM     26  H10 UNL     1      27.897  63.143 -15.188  1.00  0.00     0.217 HD
ENDBRANCH  15  25
ENDBRANCH   9  10
BRANCH   9  27
HETATM   27  O4  UNL     1      24.903  63.446 -17.943  1.00  0.00    -0.357 OA
ATOM     28  H4  UNL     1      25.201  64.307 -18.210  1.00  0.00     0.217 HD
ENDBRANCH   9  27
ENDBRANCH   1   9
BRANCH   8  29
HETATM   29  O9  UNL     1      26.072  65.559 -15.947  1.00  0.00    -0.279 OA
ATOM     30  H9  UNL     1      26.580  66.333 -15.731  1.00  0.00     0.245 HD
ENDBRANCH   8  29
BRANCH   3  31
HETATM   31  C11 UNL     1      20.481  65.688 -15.383  1.00  0.00     0.338 C 
BRANCH  31  32
HETATM   32  N3  UNL     1      19.821  66.126 -16.579  1.00  0.00    -0.054 N 
ATOM     33  H33 UNL     1      18.812  66.000 -16.508  1.00  0.00     0.277 HD
ATOM     34  H32 UNL     1      19.854  67.142 -16.666  1.00  0.00     0.277 HD
ATOM     35  H31 UNL     1      20.190  65.674 -17.416  1.00  0.00     0.277 HD
ENDBRANCH  31  32
BRANCH  31  36
HETATM   36  C12 UNL     1      19.932  64.346 -14.930  1.00  0.00     0.290 C 
BRANCH  36  37
HETATM   37  O5  UNL     1      19.175  63.749 -15.954  1.00  0.00    -0.373 OA
ATOM     38  H5  UNL     1      18.310  63.516 -15.638  1.00  0.00     0.212 HD
ENDBRANCH  36  37
BRANCH  36  39
HETATM   39  N4  UNL     1      19.040  64.504 -13.797  1.00  0.00    -0.080 NA
BRANCH  39  40
HETATM   40  N5  UNL     1      18.558  65.800 -13.828  1.00  0.00    -0.338 NA
ATOM     41  H52 UNL     1      17.814  65.870 -13.134  1.00  0.00     0.173 HD
ATOM     42  H51 UNL     1      18.230  65.981 -14.777  1.00  0.00     0.173 HD
ENDBRANCH  39  40
BRANCH  39  43
HETATM   43  O6  UNL     1      17.981  63.670 -13.849  1.00  0.00    -0.292 OA
ATOM     44  H6  UNL     1      17.155  64.119 -13.712  1.00  0.00     0.239 HD
ENDBRANCH  39  43
ENDBRANCH  36  39
ENDBRANCH  31  36
ENDBRANCH   3  31
TORSDOF 16
ENDMDL
MODEL 2
REMARK VINA RESULT: -5.802987997      4.782      6.171
REMARK  16 active torsions:
REMARK  status: ('A' for Active; 'I' for Inactive)
REMARK    1  A    between atoms: N1_2  and  C3_4 
REMARK    2  A    between atoms: C4_5  and  O1_6 
REMARK    3  A    between atoms: C5_8  and  O2_9 
REMARK    4  A    between atoms: C6_11  and  O3_12 
REMARK    5  A    between atoms: C7_14  and  C8_15 
REMARK    6  A    between atoms: C8_15  and  O4_16 
REMARK    7  A    between atoms: C8_15  and  C9_18 
REMARK    8  A    between atoms: N2_20  and  C11_21 
REMARK    9  A    between atoms: C11_21  and  N3_22 
REMARK   10  A    between atoms: C11_21  and  C12_26 
REMARK   11  A    between atoms: C12_26  and  O5_27 
REMARK   12  A    between atoms: C12_26  and  N4_29 
REMARK   13  A    between atoms: N4_29  and  N5_30 
REMARK   14  A    between atoms: N4_29  and  O6_33 
REMARK   15  A    between atoms: N6_39  and  O9_40 
REMARK   16  A    between atoms: C15_42  and  O10_43 
ROOT
HETATM    1  C9  UNL     1      21.731  66.812 -17.298  1.00  0.00     0.116 A 
HETATM    2  C10 UNL     1      20.824  66.089 -16.529  1.00  0.00     0.132 A 
HETATM    3  N2  UNL     1      19.498  66.077 -16.740  1.00  0.00    -0.285 N 
HETATM    4  C13 UNL     1      19.039  66.816 -17.764  1.00  0.00     0.320 A 
HETATM    5  O7  UNL     1      17.809  66.834 -17.995  1.00  0.00    -0.262 OA
HETATM    6  C14 UNL     1      19.921  67.551 -18.553  1.00  0.00     0.340 A 
HETATM    7  O8  UNL     1      19.483  68.243 -19.513  1.00  0.00    -0.260 OA
HETATM    8  N6  UNL     1      21.235  67.554 -18.332  1.00  0.00    -0.179 N 
ENDROOT
BRANCH   1   9
HETATM    9  C8  UNL     1      23.154  66.749 -17.144  1.00  0.00     0.112 C 
BRANCH   9  10
HETATM   10  C7  UNL     1      24.059  67.424 -16.252  1.00  0.00     0.071 A 
HETATM   11  C6  UNL     1      24.346  66.876 -15.010  1.00  0.00     0.117 A 
HETATM   12  C5  UNL     1      25.256  67.397 -14.144  1.00  0.00     0.136 A 
HETATM   13  C4  UNL     1      25.940  68.555 -14.532  1.00  0.00     0.131 A 
HETATM   14  C3  UNL     1      25.705  69.140 -15.735  1.00  0.00     0.100 A 
HETATM   15  C15 UNL     1      24.747  68.572 -16.630  1.00  0.00     0.111 A 
BRANCH  11  16
HETATM   16  O3  UNL     1      23.616  65.714 -14.698  1.00  0.00    -0.357 OA
ATOM     17  H3  UNL     1      22.864  65.447 -15.214  1.00  0.00     0.217 HD
ENDBRANCH  11  16
BRANCH  12  18
HETATM   18  O2  UNL     1      25.506  66.825 -12.931  1.00  0.00    -0.356 OA
ATOM     19  H2  UNL     1      25.431  65.884 -12.821  1.00  0.00     0.218 HD
ENDBRANCH  12  18
BRANCH  13  20
HETATM   20  O1  UNL     1      26.867  69.043 -13.582  1.00  0.00    -0.356 OA
ATOM     21  H1  UNL     1      26.952  68.703 -12.699  1.00  0.00     0.218 HD
ENDBRANCH  13  20
BRANCH  14  22
HETATM   22  N1  UNL     1      26.414  70.314 -16.089  1.00  0.00    -0.385 N 
HETATM   23  C1  UNL     1      27.678  70.218 -16.797  1.00  0.00     0.149 C 
HETATM   24  C2  UNL     1      25.938  71.659 -15.774  1.00  0.00     0.149 C 
ENDBRANCH  14  22
BRANCH  15  25
HETATM   25  O10 UNL     1      24.581  69.175 -17.770  1.00  0.00    -0.357 OA
ATOM     26  H10 UNL     1      25.114  68.872 -18.495  1.00  0.00     0.217 HD
ENDBRANCH  15  25
ENDBRANCH   9  10
BRANCH   9  27
HETATM   27  O4  UNL     1      23.750  65.921 -17.961  1.00  0.00    -0.357 OA
ATOM     28  H4  UNL     1      23.194  65.624 -18.671  1.00  0.00     0.217 HD
ENDBRANCH   9  27
ENDBRANCH   1   9
BRANCH   8  29
HETATM   29  O9  UNL     1      22.111  68.290 -19.122  1.00  0.00    -0.279 OA
ATOM     30  H9  UNL     1      22.273  69.202 -18.911  1.00  0.00     0.245 HD
ENDBRANCH   8  29
BRANCH   3  31
HETATM   31  C11 UNL     1      18.574  65.313 -15.926  1.00  0.00     0.338 C 
BRANCH  31  32
HETATM   32  N3  UNL     1      18.505  63.936 -16.320  1.00  0.00    -0.054 N 
ATOM     33  H33 UNL     1      18.153  63.844 -17.273  1.00  0.00     0.277 HD
ATOM     34  H32 UNL     1      19.438  63.545 -16.452  1.00  0.00     0.277 HD
ATOM     35  H31 UNL     1      17.959  63.370 -15.670  1.00  0.00     0.277 HD
ENDBRANCH  31  32
BRANCH  31  36
HETATM   36  C12 UNL     1      18.919  65.429 -14.450  1.00  0.00     0.290 C 
BRANCH  36  37
HETATM   37  O5  UNL     1      19.603  64.282 -14.009  1.00  0.00    -0.373 OA
ATOM     38  H5  UNL     1      19.292  64.017 -13.151  1.00  0.00     0.212 HD
ENDBRANCH  36  37
BRANCH  36  39
HETATM   39  N4  UNL     1      17.720  65.531 -13.641  1.00  0.00    -0.080 NA
BRANCH  39  40
HETATM   40  N5  UNL     1      17.842  66.668 -12.863  1.00  0.00    -0.338 NA
ATOM     41  H52 UNL     1      17.340  66.503 -11.991  1.00  0.00     0.173 HD
ATOM     42  H51 UNL     1      17.456  67.446 -13.398  1.00  0.00     0.173 HD
ENDBRANCH  39  40
BRANCH  39  43
HETATM   43  O6  UNL     1      16.601  65.659 -14.383  1.00  0.00    -0.292 OA
ATOM     44  H6  UNL     1      16.303  66.559 -14.444  1.00  0.00     0.239 HD
ENDBRANCH  39  43
ENDBRANCH  36  39
ENDBRANCH  31  36
ENDBRANCH   3  31
TORSDOF 16
ENDMDL
MODEL 3
REMARK VINA RESULT: -5.707462521      2.567      7.429
REMARK  16 active torsions:
REMARK  status: ('A' for Active; 'I' for Inactive)
REMARK    1  A    between atoms: N1_2  and  C3_4 
REMARK    2  A    between atoms: C4_5  and  O1_6 
REMARK    3  A    between atoms: C5_8  and  O2_9 
REMARK    4  A    between atoms: C6_11  and  O3_12 
REMARK    5  A    between atoms: C7_14  and  C8_15 
REMARK    6  A    between atoms: C8_15  and  O4_16 
REMARK    7  A    between atoms: C8_15  and  C9_18 
REMARK    8  A    between atoms: N2_20  and  C11_21 
REMARK    9  A    between atoms: C11_21  and  N3_22 
REMARK   10  A    between atoms: C11_21  and  C12_26 
REMARK   11  A    between atoms: C12_26  and  O5_27 
REMARK   12  A    between atoms: C12_26  and  N4_29 
REMARK   13  A    between atoms: N4_29  and  N5_30 
REMARK   14  A    between atoms: N4_29  and  O6_33 
REMARK   15  A    between atoms: N6_39  and  O9_40 
REMARK   16  A    between atoms: C15_42  and  O10_43 
ROOT
HETATM    1  C9  UNL     1      24.820  62.022 -16.264  1.00  0.00     0.116 A 
HETATM    2  C10 UNL     1      25.950  61.898 -15.461  1.00  0.00     0.132 A 
HETATM    3  N2  UNL     1      26.384  60.738 -14.944  1.00  0.00    -0.285 N 
HETATM    4  C13 UNL     1      25.668  59.638 -15.234  1.00  0.00     0.320 A 
HETATM    5  O7  UNL     1      26.037  58.535 -14.773  1.00  0.00    -0.262 OA
HETATM    6  C14 UNL     1      24.532  59.728 -16.036  1.00  0.00     0.340 A 
HETATM    7  O8  UNL     1      23.865  58.692 -16.305  1.00  0.00    -0.260 OA
HETATM    8  N6  UNL     1      24.113  60.888 -16.542  1.00  0.00    -0.179 N 
ENDROOT
BRANCH   1   9
HETATM    9  C8  UNL     1      24.410  63.238 -16.903  1.00  0.00     0.112 C 
BRANCH   9  10
HETATM   10  C7  UNL     1      23.921  64.485 -16.379  1.00  0.00     0.071 A 
HETATM   11  C6  UNL     1      22.556  64.732 -16.334  1.00  0.00     0.117 A 
HETATM   12  C5  UNL     1      22.004  65.841 -15.774  1.00  0.00     0.136 A 
HETATM   13  C4  UNL     1      22.867  66.788 -15.211  1.00  0.00     0.131 A 
HETATM   14  C3  UNL     1      24.213  66.605 -15.221  1.00  0.00     0.100 A 
HETATM   15  C15 UNL     1      24.770  65.430 -15.812  1.00  0.00     0.111 A 
BRANCH  11  16
HETATM   16  O3  UNL     1      21.759  63.731 -16.922  1.00  0.00    -0.357 OA
ATOM     17  H3  UNL     1      21.576  62.915 -16.472  1.00  0.00     0.217 HD
ENDBRANCH  11  16
BRANCH  12  18
HETATM   18  O2  UNL     1      20.655  66.043 -15.754  1.00  0.00    -0.356 OA
ATOM     19  H2  UNL     1      20.213  66.404 -16.513  1.00  0.00     0.218 HD
ENDBRANCH  12  18
BRANCH  13  20
HETATM   20  O1  UNL     1      22.226  67.916 -14.650  1.00  0.00    -0.356 OA
ATOM     21  H1  UNL     1      21.656  68.500 -15.136  1.00  0.00     0.218 HD
ENDBRANCH  13  20
BRANCH  14  22
HETATM   22  N1  UNL     1      25.054  67.589 -14.645  1.00  0.00    -0.385 N 
HETATM   23  C1  UNL     1      25.388  67.528 -13.233  1.00  0.00     0.149 C 
HETATM   24  C2  UNL     1      25.623  68.698 -15.407  1.00  0.00     0.149 C 
ENDBRANCH  14  22
BRANCH  15  25
HETATM   25  O10 UNL     1      26.064  65.313 -15.776  1.00  0.00    -0.357 OA
ATOM     26  H10 UNL     1      26.454  65.142 -14.927  1.00  0.00     0.217 HD
ENDBRANCH  15  25
ENDBRANCH   9  10
BRANCH   9  27
HETATM   27  O4  UNL     1      24.499  63.221 -18.207  1.00  0.00    -0.357 OA
ATOM     28  H4  UNL     1      23.868  63.785 -18.636  1.00  0.00     0.217 HD
ENDBRANCH   9  27
ENDBRANCH   1   9
BRANCH   8  29
HETATM   29  O9  UNL     1      22.978  60.972 -17.342  1.00  0.00    -0.279 OA
ATOM     30  H9  UNL     1      22.557  60.174 -17.636  1.00  0.00     0.245 HD
ENDBRANCH   8  29
BRANCH   3  31
HETATM   31  C11 UNL     1      27.565  60.635 -14.112  1.00  0.00     0.338 C 
BRANCH  31  32
HETATM   32  N3  UNL     1      28.556  59.761 -14.671  1.00  0.00    -0.054 N 
ATOM     33  H33 UNL     1      28.615  58.889 -14.146  1.00  0.00     0.277 HD
ATOM     34  H32 UNL     1      28.252  59.390 -15.572  1.00  0.00     0.277 HD
ATOM     35  H31 UNL     1      29.471  60.206 -14.748  1.00  0.00     0.277 HD
ENDBRANCH  31  32
BRANCH  31  36
HETATM   36  C12 UNL     1      28.159  62.005 -13.831  1.00  0.00     0.290 C 
BRANCH  36  37
HETATM   37  O5  UNL     1      29.506  62.054 -14.234  1.00  0.00    -0.373 OA
ATOM     38  H5  UNL     1      29.991  61.323 -13.870  1.00  0.00     0.212 HD
ENDBRANCH  36  37
BRANCH  36  39
HETATM   39  N4  UNL     1      28.143  62.299 -12.412  1.00  0.00    -0.080 NA
BRANCH  39  40
HETATM   40  N5  UNL     1      27.688  61.167 -11.760  1.00  0.00    -0.338 NA
ATOM     41  H52 UNL     1      28.003  60.356 -12.291  1.00  0.00     0.173 HD
ATOM     42  H51 UNL     1      26.672  61.234 -11.707  1.00  0.00     0.173 HD
ENDBRANCH  39  40
BRANCH  39  43
HETATM   43  O6  UNL     1      29.368  62.589 -11.926  1.00  0.00    -0.292 OA
ATOM     44  H6  UNL     1      29.562  62.122 -11.122  1.00  0.00     0.239 HD
ENDBRANCH  39  43
ENDBRANCH  36  39
ENDBRANCH  31  36
ENDBRANCH   3  31
TORSDOF 16
ENDMDL
MODEL 4
REMARK VINA RESULT: -5.661490476      3.281      5.643
REMARK  16 active torsions:
REMARK  status: ('A' for Active; 'I' for Inactive)
REMARK    1  A    between atoms: N1_2  and  C3_4 
REMARK    2  A    between atoms: C4_5  and  O1_6 
REMARK    3  A    between atoms: C5_8  and  O2_9 
REMARK    4  A    between atoms: C6_11  and  O3_12 
REMARK    5  A    between atoms: C7_14  and  C8_15 
REMARK    6  A    between atoms: C8_15  and  O4_16 
REMARK    7  A    between atoms: C8_15  and  C9_18 
REMARK    8  A    between atoms: N2_20  and  C11_21 
REMARK    9  A    between atoms: C11_21  and  N3_22 
REMARK   10  A    between atoms: C11_21  and  C12_26 
REMARK   11  A    between atoms: C12_26  and  O5_27 
REMARK   12  A    between atoms: C12_26  and  N4_29 
REMARK   13  A    between atoms: N4_29  and  N5_30 
REMARK   14  A    between atoms: N4_29  and  O6_33 
REMARK   15  A    between atoms: N6_39  and  O9_40 
REMARK   16  A    between atoms: C15_42  and  O10_43 
ROOT
HETATM    1  C9  UNL     1      19.955  66.537 -17.315  1.00  0.00     0.116 A 
HETATM    2  C10 UNL     1      19.268  65.678 -16.463  1.00  0.00     0.132 A 
HETATM    3  N2  UNL     1      18.124  65.053 -16.785  1.00  0.00    -0.285 N 
HETATM    4  C13 UNL     1      17.630  65.284 -18.013  1.00  0.00     0.320 A 
HETATM    5  O7  UNL     1      16.566  64.721 -18.354  1.00  0.00    -0.262 OA
HETATM    6  C14 UNL     1      18.295  66.138 -18.891  1.00  0.00     0.340 A 
HETATM    7  O8  UNL     1      17.826  66.350 -20.042  1.00  0.00    -0.260 OA
HETATM    8  N6  UNL     1      19.430  66.752 -18.557  1.00  0.00    -0.179 N 
ENDROOT
BRANCH   1   9
HETATM    9  C8  UNL     1      21.228  67.126 -17.018  1.00  0.00     0.112 C 
BRANCH   9  10
HETATM   10  C7  UNL     1      22.491  66.552 -16.639  1.00  0.00     0.071 A 
HETATM   11  C6  UNL     1      23.073  66.894 -15.426  1.00  0.00     0.117 A 
HETATM   12  C5  UNL     1      24.216  66.333 -14.949  1.00  0.00     0.136 A 
HETATM   13  C4  UNL     1      24.840  65.353 -15.730  1.00  0.00     0.131 A 
HETATM   14  C3  UNL     1      24.320  64.973 -16.926  1.00  0.00     0.100 A 
HETATM   15  C15 UNL     1      23.116  65.574 -17.405  1.00  0.00     0.111 A 
BRANCH  11  16
HETATM   16  O3  UNL     1      22.383  67.886 -14.704  1.00  0.00    -0.357 OA
ATOM     17  H3  UNL     1      22.784  68.724 -14.505  1.00  0.00     0.217 HD
ENDBRANCH  11  16
BRANCH  12  18
HETATM   18  O2  UNL     1      24.753  66.701 -13.750  1.00  0.00    -0.356 OA
ATOM     19  H2  UNL     1      24.221  67.152 -13.105  1.00  0.00     0.218 HD
ENDBRANCH  12  18
BRANCH  13  20
HETATM   20  O1  UNL     1      26.023  64.816 -15.174  1.00  0.00    -0.356 OA
ATOM     21  H1  UNL     1      26.528  65.238 -14.489  1.00  0.00     0.218 HD
ENDBRANCH  13  20
BRANCH  14  22
HETATM   22  N1  UNL     1      24.983  63.981 -17.689  1.00  0.00    -0.385 N 
HETATM   23  C1  UNL     1      24.653  62.578 -17.509  1.00  0.00     0.149 C 
HETATM   24  C2  UNL     1      26.014  64.292 -18.678  1.00  0.00     0.149 C 
ENDBRANCH  14  22
BRANCH  15  25
HETATM   25  O10 UNL     1      22.667  65.154 -18.551  1.00  0.00    -0.357 OA
ATOM     26  H10 UNL     1      21.742  65.286 -18.722  1.00  0.00     0.217 HD
ENDBRANCH  15  25
ENDBRANCH   9  10
BRANCH   9  27
HETATM   27  O4  UNL     1      21.256  68.429 -17.113  1.00  0.00    -0.357 OA
ATOM     28  H4  UNL     1      20.636  68.864 -16.540  1.00  0.00     0.217 HD
ENDBRANCH   9  27
ENDBRANCH   1   9
BRANCH   8  29
HETATM   29  O9  UNL     1      20.090  67.604 -19.436  1.00  0.00    -0.279 OA
ATOM     30  H9  UNL     1      19.782  67.676 -20.333  1.00  0.00     0.245 HD
ENDBRANCH   8  29
BRANCH   3  31
HETATM   31  C11 UNL     1      17.428  64.161 -15.879  1.00  0.00     0.338 C 
BRANCH  31  32
HETATM   32  N3  UNL     1      17.574  62.783 -16.248  1.00  0.00    -0.054 N 
ATOM     33  H33 UNL     1      17.694  62.683 -17.255  1.00  0.00     0.277 HD
ATOM     34  H32 UNL     1      18.473  62.413 -15.938  1.00  0.00     0.277 HD
ATOM     35  H31 UNL     1      16.803  62.205 -15.910  1.00  0.00     0.277 HD
ENDBRANCH  31  32
BRANCH  31  36
HETATM   36  C12 UNL     1      17.875  64.381 -14.444  1.00  0.00     0.290 C 
BRANCH  36  37
HETATM   37  O5  UNL     1      17.742  63.196 -13.697  1.00  0.00    -0.373 OA
ATOM     38  H5  UNL     1      18.105  63.307 -12.826  1.00  0.00     0.212 HD
ENDBRANCH  36  37
BRANCH  36  39
HETATM   39  N4  UNL     1      17.049  65.376 -13.787  1.00  0.00    -0.080 NA
BRANCH  39  40
HETATM   40  N5  UNL     1      17.891  66.371 -13.324  1.00  0.00    -0.338 NA
ATOM     41  H52 UNL     1      17.310  67.114 -12.936  1.00  0.00     0.173 HD
ATOM     42  H51 UNL     1      18.457  66.684 -14.113  1.00  0.00     0.173 HD
ENDBRANCH  39  40
BRANCH  39  43
HETATM   43  O6  UNL     1      16.159  65.948 -14.624  1.00  0.00    -0.292 OA
ATOM     44  H6  UNL     1      16.547  66.203 -15.453  1.00  0.00     0.239 HD
ENDBRANCH  39  43
ENDBRANCH  36  39
ENDBRANCH  31  36
ENDBRANCH   3  31
TORSDOF 16
ENDMDL
MODEL 5
REMARK VINA RESULT: -5.660807841      2.270      3.884
REMARK  16 active torsions:
REMARK  status: ('A' for Active; 'I' for Inactive)
REMARK    1  A    between atoms: N1_2  and  C3_4 
REMARK    2  A    between atoms: C4_5  and  O1_6 
REMARK    3  A    between atoms: C5_8  and  O2_9 
REMARK    4  A    between atoms: C6_11  and  O3_12 
REMARK    5  A    between atoms: C7_14  and  C8_15 
REMARK    6  A    between atoms: C8_15  and  O4_16 
REMARK    7  A    between atoms: C8_15  and  C9_18 
REMARK    8  A    between atoms: N2_20  and  C11_21 
REMARK    9  A    between atoms: C11_21  and  N3_22 
REMARK   10  A    between atoms: C11_21  and  C12_26 
REMARK   11  A    between atoms: C12_26  and  O5_27 
REMARK   12  A    between atoms: C12_26  and  N4_29 
REMARK   13  A    between atoms: N4_29  and  N5_30 
REMARK   14  A    between atoms: N4_29  and  O6_33 
REMARK   15  A    between atoms: N6_39  and  O9_40 
REMARK   16  A    between atoms: C15_42  and  O10_43 
ROOT
HETATM    1  C9  UNL     1      21.775  65.716 -15.965  1.00  0.00     0.116 A 
HETATM    2  C10 UNL     1      20.659  64.974 -15.591  1.00  0.00     0.132 A 
HETATM    3  N2  UNL     1      19.424  65.170 -16.079  1.00  0.00    -0.285 N 
HETATM    4  C13 UNL     1      19.278  66.150 -16.987  1.00  0.00     0.320 A 
HETATM    5  O7  UNL     1      18.144  66.367 -17.469  1.00  0.00    -0.262 OA
HETATM    6  C14 UNL     1      20.376  66.910 -17.385  1.00  0.00     0.340 A 
HETATM    7  O8  UNL     1      20.232  67.828 -18.238  1.00  0.00    -0.260 OA
HETATM    8  N6  UNL     1      21.596  66.704 -16.891  1.00  0.00    -0.179 N 
ENDROOT
BRANCH   1   9
HETATM    9  C8  UNL     1      23.112  65.446 -15.527  1.00  0.00     0.112 C 
BRANCH   9  10
HETATM   10  C7  UNL     1      24.119  64.538 -16.008  1.00  0.00     0.071 A 
HETATM   11  C6  UNL     1      25.323  65.030 -16.494  1.00  0.00     0.117 A 
HETATM   12  C5  UNL     1      26.362  64.243 -16.881  1.00  0.00     0.136 A 
HETATM   13  C4  UNL     1      26.204  62.855 -16.784  1.00  0.00     0.131 A 
HETATM   14  C3  UNL     1      25.051  62.311 -16.315  1.00  0.00     0.100 A 
HETATM   15  C15 UNL     1      23.974  63.158 -15.911  1.00  0.00     0.111 A 
BRANCH  11  16
HETATM   16  O3  UNL     1      25.399  66.433 -16.559  1.00  0.00    -0.357 OA
ATOM     17  H3  UNL     1      25.346  66.895 -17.388  1.00  0.00     0.217 HD
ENDBRANCH  11  16
BRANCH  12  18
HETATM   18  O2  UNL     1      27.527  64.770 -17.354  1.00  0.00    -0.356 OA
ATOM     19  H2  UNL     1      27.620  65.710 -17.460  1.00  0.00     0.218 HD
ENDBRANCH  12  18
BRANCH  13  20
HETATM   20  O1  UNL     1      27.321  62.100 -17.207  1.00  0.00    -0.356 OA
ATOM     21  H1  UNL     1      27.675  61.360 -16.728  1.00  0.00     0.218 HD
ENDBRANCH  13  20
BRANCH  14  22
HETATM   22  N1  UNL     1      24.928  60.902 -16.236  1.00  0.00    -0.385 N 
HETATM   23  C1  UNL     1      25.351  60.198 -15.038  1.00  0.00     0.149 C 
HETATM   24  C2  UNL     1      24.386  60.086 -17.320  1.00  0.00     0.149 C 
ENDBRANCH  14  22
BRANCH  15  25
HETATM   25  O10 UNL     1      22.905  62.571 -15.460  1.00  0.00    -0.357 OA
ATOM     26  H10 UNL     1      22.138  63.117 -15.335  1.00  0.00     0.217 HD
ENDBRANCH  15  25
ENDBRANCH   9  10
BRANCH   9  27
HETATM   27  O4  UNL     1      23.501  66.159 -14.503  1.00  0.00    -0.357 OA
ATOM     28  H4  UNL     1      22.861  66.805 -14.228  1.00  0.00     0.217 HD
ENDBRANCH   9  27
ENDBRANCH   1   9
BRANCH   8  29
HETATM   29  O9  UNL     1      22.689  67.467 -17.291  1.00  0.00    -0.279 OA
ATOM     30  H9  UNL     1      22.543  68.263 -17.788  1.00  0.00     0.245 HD
ENDBRANCH   8  29
BRANCH   3  31
HETATM   31  C11 UNL     1      18.278  64.382 -15.673  1.00  0.00     0.338 C 
BRANCH  31  32
HETATM   32  N3  UNL     1      18.338  63.034 -16.162  1.00  0.00    -0.054 N 
ATOM     33  H33 UNL     1      19.168  62.890 -16.737  1.00  0.00     0.277 HD
ATOM     34  H32 UNL     1      18.545  62.379 -15.408  1.00  0.00     0.277 HD
ATOM     35  H31 UNL     1      17.492  62.763 -16.662  1.00  0.00     0.277 HD
ENDBRANCH  31  32
BRANCH  31  36
HETATM   36  C12 UNL     1      18.111  64.395 -14.163  1.00  0.00     0.290 C 
BRANCH  36  37
HETATM   37  O5  UNL     1      17.590  63.170 -13.711  1.00  0.00    -0.373 OA
ATOM     38  H5  UNL     1      17.396  63.211 -12.782  1.00  0.00     0.212 HD
ENDBRANCH  36  37
BRANCH  36  39
HETATM   39  N4  UNL     1      17.172  65.420 -13.751  1.00  0.00    -0.080 NA
BRANCH  39  40
HETATM   40  N5  UNL     1      17.903  66.447 -13.182  1.00  0.00    -0.338 NA
ATOM     41  H52 UNL     1      18.866  66.357 -13.504  1.00  0.00     0.173 HD
ATOM     42  H51 UNL     1      17.816  66.358 -12.169  1.00  0.00     0.173 HD
ENDBRANCH  39  40
BRANCH  39  43
HETATM   43  O6  UNL     1      16.477  65.935 -14.786  1.00  0.00    -0.292 OA
ATOM     44  H6  UNL     1      17.036  66.358 -15.427  1.00  0.00     0.239 HD
ENDBRANCH  39  43
ENDBRANCH  36  39
ENDBRANCH  31  36
ENDBRANCH   3  31
TORSDOF 16
ENDMDL
