MODEL 1
REMARK VINA RESULT: -7.661820655      0.000      0.000
REMARK  10 active torsions:
REMARK  status: ('A' for Active; 'I' for Inactive)
REMARK    1  A    between atoms: N2_4  and  O1_6 
REMARK    2  A    between atoms: O1_6  and  C3_7 
REMARK    3  A    between atoms: C3_7  and  O2_8 
REMARK    4  A    between atoms: C6_14  and  O5_15 
REMARK    5  A    between atoms: C6_14  and  C7_17 
REMARK    6  A    between atoms: C7_17  and  O6_18 
REMARK    7  A    between atoms: C8_20  and  C9_21 
REMARK    8  A    between atoms: C9_21  and  S1_22 
REMARK    9  A    between atoms: S1_22  and  C10_23 
REMARK   10  A    between atoms: C12_32  and  O7_33 
ROOT
HETATM    1  C1  UNL     1      22.464  62.876 -16.389  1.00  0.00     0.153 C 
HETATM    2  N1  UNL     1      23.076  64.101 -15.967  1.00  0.00    -0.337 N 
HETATM    3  C2  UNL     1      22.216  65.204 -15.634  1.00  0.00     0.141 C 
HETATM    4  N2  UNL     1      21.066  64.931 -15.141  1.00  0.00    -0.247 N 
ATOM      5  H2  UNL     1      20.850  63.941 -15.023  1.00  0.00     0.196 HD
HETATM    6  C6  UNL     1      22.724  66.584 -15.882  1.00  0.00     0.178 C 
HETATM    7  C8  UNL     1      24.234  66.578 -15.788  1.00  0.00     0.222 C 
HETATM    8  N6  UNL     1      24.654  65.446 -14.953  1.00  0.00    -0.028 N 
ATOM      9  H61 UNL     1      24.139  65.353 -14.077  1.00  0.00     0.281 HD
ATOM     10  H62 UNL     1      25.574  65.555 -14.525  1.00  0.00     0.281 HD
HETATM   11  C13 UNL     1      24.534  64.288 -15.856  1.00  0.00     0.365 C 
HETATM   12  C14 UNL     1      25.129  64.815 -17.088  1.00  0.00     0.224 C 
HETATM   13  O8  UNL     1      25.730  64.135 -17.959  1.00  0.00    -0.287 OA
HETATM   14  C15 UNL     1      24.875  66.249 -17.071  1.00  0.00     0.094 C 
HETATM   15  N7  UNL     1      25.153  67.090 -18.000  1.00  0.00    -0.397 N 
ATOM     16  H71 UNL     1      25.598  66.863 -18.890  1.00  0.00     0.156 HD
ATOM     17  H72 UNL     1      24.975  68.095 -17.988  1.00  0.00     0.156 HD
ENDROOT
BRANCH   7  18
HETATM   18  C9  UNL     1      24.779  67.805 -15.132  1.00  0.00     0.130 C 
BRANCH  18  19
HETATM   19  S1  UNL     1      25.257  67.565 -13.418  1.00  0.00    -0.104 SA
BRANCH  19  20
HETATM   20  C10 UNL     1      26.595  68.696 -13.062  1.00  0.00     0.137 A 
HETATM   21  N3  UNL     1      27.165  69.604 -13.877  1.00  0.00    -0.182 N 
HETATM   22  C11 UNL     1      28.157  70.276 -13.237  1.00  0.00     0.678 A 
ATOM     23  H3  UNL     1      26.890  69.765 -14.846  1.00  0.00     0.185 HD
HETATM   24  N4  UNL     1      28.904  71.221 -13.751  1.00  0.00    -0.234 N 
HETATM   25  N5  UNL     1      28.221  69.787 -11.992  1.00  0.00    -0.168 N 
ATOM     26  H42 UNL     1      28.856  71.593 -14.699  1.00  0.00     0.174 HD
ATOM     27  H41 UNL     1      29.649  71.725 -13.270  1.00  0.00     0.174 HD
HETATM   28  C12 UNL     1      27.292  68.832 -11.852  1.00  0.00     0.189 A 
ATOM     29  H5  UNL     1      28.871  70.093 -11.268  1.00  0.00     0.186 HD
BRANCH  28  30
HETATM   30  O7  UNL     1      26.981  68.047 -10.753  1.00  0.00    -0.344 OA
ATOM     31  H7  UNL     1      26.782  68.437  -9.909  1.00  0.00     0.219 HD
ENDBRANCH  28  30
ENDBRANCH  19  20
ENDBRANCH  18  19
ENDBRANCH   7  18
BRANCH   6  32
HETATM   32  O5  UNL     1      22.214  67.403 -14.884  1.00  0.00    -0.377 OA
ATOM     33  H5  UNL     1      21.863  66.842 -14.203  1.00  0.00     0.211 HD
ENDBRANCH   6  32
BRANCH   6  34
HETATM   34  C7  UNL     1      22.249  66.971 -17.263  1.00  0.00     0.213 C 
BRANCH  34  35
HETATM   35  O6  UNL     1      20.875  66.994 -17.281  1.00  0.00    -0.397 OA
ATOM     36  H6  UNL     1      20.558  67.435 -16.501  1.00  0.00     0.209 HD
ENDBRANCH  34  35
ENDBRANCH   6  34
BRANCH   4  37
HETATM   37  O1  UNL     1      20.107  65.799 -14.760  1.00  0.00    -0.226 OA
BRANCH  37  38
HETATM   38  C3  UNL     1      18.754  65.422 -14.949  1.00  0.00     0.298 C 
HETATM   39  C4  UNL     1      18.515  63.980 -14.638  1.00  0.00     0.261 C 
HETATM   40  O3  UNL     1      17.307  64.399 -14.017  1.00  0.00    -0.311 OA
HETATM   41  C5  UNL     1      17.889  65.641 -13.763  1.00  0.00     0.326 C 
HETATM   42  O4  UNL     1      17.727  66.536 -12.897  1.00  0.00    -0.259 OA
BRANCH  38  43
HETATM   43  O2  UNL     1      18.209  65.849 -16.152  1.00  0.00    -0.354 OA
ATOM     44  H2  UNL     1      17.755  66.682 -16.098  1.00  0.00     0.213 HD
ENDBRANCH  38  43
ENDBRANCH  37  38
ENDBRANCH   4  37
TORSDOF 10
ENDMDL
MODEL 2
REMARK VINA RESULT: -7.397784356      1.093      1.363
REMARK  10 active torsions:
REMARK  status: ('A' for Active; 'I' for Inactive)
REMARK    1  A    between atoms: N2_4  and  O1_6 
REMARK    2  A    between atoms: O1_6  and  C3_7 
REMARK    3  A    between atoms: C3_7  and  O2_8 
REMARK    4  A    between atoms: C6_14  and  O5_15 
REMARK    5  A    between atoms: C6_14  and  C7_17 
REMARK    6  A    between atoms: C7_17  and  O6_18 
REMARK    7  A    between atoms: C8_20  and  C9_21 
REMARK    8  A    between atoms: C9_21  and  S1_22 
REMARK    9  A    between atoms: S1_22  and  C10_23 
REMARK   10  A    between atoms: C12_32  and  O7_33 
ROOT
HETATM    1  C1  UNL     1      22.984  63.904 -17.884  1.00  0.00     0.153 C 
HETATM    2  N1  UNL     1      23.253  64.839 -16.832  1.00  0.00    -0.337 N 
HETATM    3  C2  UNL     1      22.186  65.705 -16.411  1.00  0.00     0.141 C 
HETATM    4  N2  UNL     1      20.989  65.257 -16.496  1.00  0.00    -0.247 N 
ATOM      5  H2  UNL     1      20.889  64.308 -16.859  1.00  0.00     0.196 HD
HETATM    6  C6  UNL     1      22.546  67.061 -15.905  1.00  0.00     0.178 C 
HETATM    7  C8  UNL     1      23.934  67.010 -15.306  1.00  0.00     0.222 C 
HETATM    8  N6  UNL     1      24.225  65.632 -14.894  1.00  0.00    -0.028 N 
ATOM      9  H61 UNL     1      23.479  65.184 -14.362  1.00  0.00     0.281 HD
ATOM     10  H62 UNL     1      24.938  65.549 -14.170  1.00  0.00     0.281 HD
HETATM   11  C13 UNL     1      24.560  64.957 -16.160  1.00  0.00     0.365 C 
HETATM   12  C14 UNL     1      25.433  65.948 -16.798  1.00  0.00     0.224 C 
HETATM   13  O8  UNL     1      26.367  65.691 -17.600  1.00  0.00    -0.287 OA
HETATM   14  C15 UNL     1      24.987  67.245 -16.308  1.00  0.00     0.094 C 
HETATM   15  N7  UNL     1      25.423  68.396 -16.673  1.00  0.00    -0.397 N 
ATOM     16  H71 UNL     1      26.153  68.559 -17.367  1.00  0.00     0.156 HD
ATOM     17  H72 UNL     1      25.110  69.305 -16.330  1.00  0.00     0.156 HD
ENDROOT
BRANCH   7  18
HETATM   18  C9  UNL     1      24.066  67.850 -14.077  1.00  0.00     0.130 C 
BRANCH  18  19
HETATM   19  S1  UNL     1      25.296  67.252 -12.913  1.00  0.00    -0.104 SA
BRANCH  19  20
HETATM   20  C10 UNL     1      26.572  68.498 -12.780  1.00  0.00     0.137 A 
HETATM   21  N3  UNL     1      26.979  69.383 -13.709  1.00  0.00    -0.182 N 
HETATM   22  C11 UNL     1      27.978  70.168 -13.226  1.00  0.00     0.678 A 
ATOM     23  H3  UNL     1      26.591  69.454 -14.650  1.00  0.00     0.185 HD
HETATM   24  N4  UNL     1      28.589  71.125 -13.878  1.00  0.00    -0.234 N 
HETATM   25  N5  UNL     1      28.210  69.775 -11.968  1.00  0.00    -0.168 N 
ATOM     26  H42 UNL     1      28.413  71.424 -14.837  1.00  0.00     0.174 HD
ATOM     27  H41 UNL     1      29.339  71.714 -13.515  1.00  0.00     0.174 HD
HETATM   28  C12 UNL     1      27.379  68.768 -11.666  1.00  0.00     0.189 A 
ATOM     29  H5  UNL     1      28.908  70.177 -11.340  1.00  0.00     0.186 HD
BRANCH  28  30
HETATM   30  O7  UNL     1      27.249  68.044 -10.491  1.00  0.00    -0.344 OA
ATOM     31  H7  UNL     1      27.347  67.098 -10.482  1.00  0.00     0.219 HD
ENDBRANCH  28  30
ENDBRANCH  19  20
ENDBRANCH  18  19
ENDBRANCH   7  18
BRANCH   6  32
HETATM   32  O5  UNL     1      21.638  67.391 -14.909  1.00  0.00    -0.377 OA
ATOM     33  H5  UNL     1      22.123  67.802 -14.203  1.00  0.00     0.211 HD
ENDBRANCH   6  32
BRANCH   6  34
HETATM   34  C7  UNL     1      22.481  67.991 -17.094  1.00  0.00     0.213 C 
BRANCH  34  35
HETATM   35  O6  UNL     1      21.172  68.138 -17.485  1.00  0.00    -0.397 OA
ATOM     36  H6  UNL     1      20.690  68.594 -16.804  1.00  0.00     0.209 HD
ENDBRANCH  34  35
ENDBRANCH   6  34
BRANCH   4  37
HETATM   37  O1  UNL     1      19.847  65.890 -16.161  1.00  0.00    -0.226 OA
BRANCH  37  38
HETATM   38  C3  UNL     1      19.129  65.418 -15.034  1.00  0.00     0.298 C 
HETATM   39  C4  UNL     1      18.102  64.396 -15.398  1.00  0.00     0.261 C 
HETATM   40  O3  UNL     1      18.506  63.694 -14.230  1.00  0.00    -0.311 OA
HETATM   41  C5  UNL     1      19.769  64.273 -14.340  1.00  0.00     0.326 C 
HETATM   42  O4  UNL     1      20.929  63.943 -13.990  1.00  0.00    -0.259 OA
BRANCH  38  43
HETATM   43  O2  UNL     1      18.669  66.422 -14.193  1.00  0.00    -0.354 OA
ATOM     44  H2  UNL     1      18.060  66.123 -13.528  1.00  0.00     0.213 HD
ENDBRANCH  38  43
ENDBRANCH  37  38
ENDBRANCH   4  37
TORSDOF 10
ENDMDL
MODEL 3
REMARK VINA RESULT: -7.110051146      3.201      5.644
REMARK  10 active torsions:
REMARK  status: ('A' for Active; 'I' for Inactive)
REMARK    1  A    between atoms: N2_4  and  O1_6 
REMARK    2  A    between atoms: O1_6  and  C3_7 
REMARK    3  A    between atoms: C3_7  and  O2_8 
REMARK    4  A    between atoms: C6_14  and  O5_15 
REMARK    5  A    between atoms: C6_14  and  C7_17 
REMARK    6  A    between atoms: C7_17  and  O6_18 
REMARK    7  A    between atoms: C8_20  and  C9_21 
REMARK    8  A    between atoms: C9_21  and  S1_22 
REMARK    9  A    between atoms: S1_22  and  C10_23 
REMARK   10  A    between atoms: C12_32  and  O7_33 
ROOT
HETATM    1  C1  UNL     1      21.332  69.092 -17.673  1.00  0.00     0.153 C 
HETATM    2  N1  UNL     1      22.321  68.499 -16.821  1.00  0.00    -0.337 N 
HETATM    3  C2  UNL     1      23.687  68.915 -16.986  1.00  0.00     0.141 C 
HETATM    4  N2  UNL     1      23.899  70.117 -17.371  1.00  0.00    -0.247 N 
ATOM      5  H2  UNL     1      23.071  70.691 -17.532  1.00  0.00     0.196 HD
HETATM    6  C6  UNL     1      24.759  67.919 -16.694  1.00  0.00     0.178 C 
HETATM    7  C8  UNL     1      24.250  66.935 -15.665  1.00  0.00     0.222 C 
HETATM    8  N6  UNL     1      23.176  67.569 -14.890  1.00  0.00    -0.028 N 
ATOM      9  H61 UNL     1      23.393  68.509 -14.558  1.00  0.00     0.281 HD
ATOM     10  H62 UNL     1      23.025  67.162 -13.967  1.00  0.00     0.281 HD
HETATM   11  C13 UNL     1      22.011  67.493 -15.789  1.00  0.00     0.365 C 
HETATM   12  C14 UNL     1      22.119  66.120 -16.292  1.00  0.00     0.224 C 
HETATM   13  O8  UNL     1      21.155  65.397 -16.654  1.00  0.00    -0.287 OA
HETATM   14  C15 UNL     1      23.539  65.800 -16.276  1.00  0.00     0.094 C 
HETATM   15  N7  UNL     1      24.090  64.726 -16.712  1.00  0.00    -0.397 N 
ATOM     16  H71 UNL     1      23.598  63.939 -17.136  1.00  0.00     0.156 HD
ATOM     17  H72 UNL     1      25.086  64.501 -16.701  1.00  0.00     0.156 HD
ENDROOT
BRANCH   7  18
HETATM   18  C9  UNL     1      25.298  66.536 -14.677  1.00  0.00     0.130 C 
BRANCH  18  19
HETATM   19  S1  UNL     1      25.091  67.276 -13.054  1.00  0.00    -0.104 SA
BRANCH  19  20
HETATM   20  C10 UNL     1      26.418  68.452 -12.819  1.00  0.00     0.137 A 
HETATM   21  N3  UNL     1      26.879  69.379 -13.679  1.00  0.00    -0.182 N 
HETATM   22  C11 UNL     1      27.902  70.084 -13.129  1.00  0.00     0.678 A 
ATOM     23  H3  UNL     1      26.509  69.532 -14.617  1.00  0.00     0.185 HD
HETATM   24  N4  UNL     1      28.566  71.055 -13.706  1.00  0.00    -0.234 N 
HETATM   25  N5  UNL     1      28.097  69.596 -11.898  1.00  0.00    -0.168 N 
ATOM     26  H42 UNL     1      28.418  71.427 -14.644  1.00  0.00     0.174 HD
ATOM     27  H41 UNL     1      29.335  71.583 -13.293  1.00  0.00     0.174 HD
HETATM   28  C12 UNL     1      27.218  68.609 -11.677  1.00  0.00     0.189 A 
ATOM     29  H5  UNL     1      28.801  69.922 -11.236  1.00  0.00     0.186 HD
BRANCH  28  30
HETATM   30  O7  UNL     1      27.037  67.813 -10.558  1.00  0.00    -0.344 OA
ATOM     31  H7  UNL     1      26.352  67.999  -9.926  1.00  0.00     0.219 HD
ENDBRANCH  28  30
ENDBRANCH  19  20
ENDBRANCH  18  19
ENDBRANCH   7  18
BRANCH   6  32
HETATM   32  O5  UNL     1      25.839  68.610 -16.162  1.00  0.00    -0.377 OA
ATOM     33  H5  UNL     1      26.140  69.224 -16.821  1.00  0.00     0.211 HD
ENDBRANCH   6  32
BRANCH   6  34
HETATM   34  C7  UNL     1      25.081  67.243 -18.007  1.00  0.00     0.213 C 
BRANCH  34  35
HETATM   35  O6  UNL     1      25.450  68.193 -18.928  1.00  0.00    -0.397 OA
ATOM     36  H6  UNL     1      25.009  68.020 -19.752  1.00  0.00     0.209 HD
ENDBRANCH  34  35
ENDBRANCH   6  34
BRANCH   4  37
HETATM   37  O1  UNL     1      25.089  70.715 -17.589  1.00  0.00    -0.226 OA
BRANCH  37  38
HETATM   38  C3  UNL     1      25.416  71.852 -16.810  1.00  0.00     0.298 C 
HETATM   39  C4  UNL     1      26.193  72.868 -17.582  1.00  0.00     0.261 C 
HETATM   40  O3  UNL     1      25.394  73.850 -16.937  1.00  0.00    -0.311 OA
HETATM   41  C5  UNL     1      24.374  72.909 -16.807  1.00  0.00     0.326 C 
HETATM   42  O4  UNL     1      23.121  72.963 -16.724  1.00  0.00    -0.259 OA
BRANCH  38  43
HETATM   43  O2  UNL     1      25.941  71.553 -15.561  1.00  0.00    -0.354 OA
ATOM     44  H2  UNL     1      26.879  71.686 -15.492  1.00  0.00     0.213 HD
ENDBRANCH  38  43
ENDBRANCH  37  38
ENDBRANCH   4  37
TORSDOF 10
ENDMDL
MODEL 4
REMARK VINA RESULT: -6.788710941      6.388      9.742
REMARK  10 active torsions:
REMARK  status: ('A' for Active; 'I' for Inactive)
REMARK    1  A    between atoms: N2_4  and  O1_6 
REMARK    2  A    between atoms: O1_6  and  C3_7 
REMARK    3  A    between atoms: C3_7  and  O2_8 
REMARK    4  A    between atoms: C6_14  and  O5_15 
REMARK    5  A    between atoms: C6_14  and  C7_17 
REMARK    6  A    between atoms: C7_17  and  O6_18 
REMARK    7  A    between atoms: C8_20  and  C9_21 
REMARK    8  A    between atoms: C9_21  and  S1_22 
REMARK    9  A    between atoms: S1_22  and  C10_23 
REMARK   10  A    between atoms: C12_32  and  O7_33 
ROOT
HETATM    1  C1  UNL     1      19.534  64.940 -19.699  1.00  0.00     0.153 C 
HETATM    2  N1  UNL     1      18.354  64.311 -19.183  1.00  0.00    -0.337 N 
HETATM    3  C2  UNL     1      18.463  63.587 -17.946  1.00  0.00     0.141 C 
HETATM    4  N2  UNL     1      19.321  64.002 -17.090  1.00  0.00    -0.247 N 
ATOM      5  H2  UNL     1      19.864  64.823 -17.358  1.00  0.00     0.196 HD
HETATM    6  C6  UNL     1      17.571  62.409 -17.746  1.00  0.00     0.178 C 
HETATM    7  C8  UNL     1      16.303  62.610 -18.546  1.00  0.00     0.222 C 
HETATM    8  N6  UNL     1      16.100  64.048 -18.763  1.00  0.00    -0.028 N 
ATOM      9  H61 UNL     1      16.211  64.621 -17.927  1.00  0.00     0.281 HD
ATOM     10  H62 UNL     1      15.133  64.314 -18.949  1.00  0.00     0.281 HD
HETATM   11  C13 UNL     1      17.041  64.369 -19.850  1.00  0.00     0.365 C 
HETATM   12  C14 UNL     1      16.826  63.243 -20.765  1.00  0.00     0.224 C 
HETATM   13  O8  UNL     1      16.966  63.279 -22.015  1.00  0.00    -0.287 OA
HETATM   14  C15 UNL     1      16.428  62.120 -19.928  1.00  0.00     0.094 C 
HETATM   15  N7  UNL     1      16.219  60.912 -20.310  1.00  0.00    -0.397 N 
ATOM     16  H71 UNL     1      16.305  60.572 -21.268  1.00  0.00     0.156 HD
ATOM     17  H72 UNL     1      15.940  60.125 -19.724  1.00  0.00     0.156 HD
ENDROOT
BRANCH   7  18
HETATM   18  C9  UNL     1      15.084  62.120 -17.834  1.00  0.00     0.130 C 
BRANCH  18  19
HETATM   19  S1  UNL     1      13.680  63.235 -17.937  1.00  0.00    -0.104 SA
BRANCH  19  20
HETATM   20  C10 UNL     1      13.454  63.976 -16.326  1.00  0.00     0.137 A 
HETATM   21  N3  UNL     1      12.367  63.942 -15.532  1.00  0.00    -0.182 N 
HETATM   22  C11 UNL     1      12.587  64.629 -14.380  1.00  0.00     0.678 A 
ATOM     23  H3  UNL     1      11.496  63.466 -15.765  1.00  0.00     0.185 HD
HETATM   24  N4  UNL     1      11.730  64.784 -13.401  1.00  0.00    -0.234 N 
HETATM   25  N5  UNL     1      13.834  65.108 -14.441  1.00  0.00    -0.168 N 
ATOM     26  H42 UNL     1      10.779  64.419 -13.355  1.00  0.00     0.174 HD
ATOM     27  H41 UNL     1      11.895  65.300 -12.536  1.00  0.00     0.174 HD
HETATM   28  C12 UNL     1      14.388  64.733 -15.603  1.00  0.00     0.189 A 
ATOM     29  H5  UNL     1      14.290  65.669 -13.721  1.00  0.00     0.186 HD
BRANCH  28  30
HETATM   30  O7  UNL     1      15.652  64.989 -16.109  1.00  0.00    -0.344 OA
ATOM     31  H7  UNL     1      16.410  65.045 -15.539  1.00  0.00     0.219 HD
ENDBRANCH  28  30
ENDBRANCH  19  20
ENDBRANCH  18  19
ENDBRANCH   7  18
BRANCH   6  32
HETATM   32  O5  UNL     1      17.248  62.353 -16.397  1.00  0.00    -0.377 OA
ATOM     33  H5  UNL     1      16.500  61.774 -16.305  1.00  0.00     0.211 HD
ENDBRANCH   6  32
BRANCH   6  34
HETATM   34  C7  UNL     1      18.347  61.202 -18.217  1.00  0.00     0.213 C 
BRANCH  34  35
HETATM   35  O6  UNL     1      19.175  60.771 -17.208  1.00  0.00    -0.397 OA
ATOM     36  H6  UNL     1      18.708  60.810 -16.381  1.00  0.00     0.209 HD
ENDBRANCH  34  35
ENDBRANCH   6  34
BRANCH   4  37
HETATM   37  O1  UNL     1      19.590  63.481 -15.875  1.00  0.00    -0.226 OA
BRANCH  37  38
HETATM   38  C3  UNL     1      19.641  64.364 -14.768  1.00  0.00     0.298 C 
HETATM   39  C4  UNL     1      19.432  65.789 -15.165  1.00  0.00     0.261 C 
HETATM   40  O3  UNL     1      18.630  65.911 -13.998  1.00  0.00    -0.311 OA
HETATM   41  C5  UNL     1      18.342  64.549 -14.075  1.00  0.00     0.326 C 
HETATM   42  O4  UNL     1      17.386  63.823 -13.706  1.00  0.00    -0.259 OA
BRANCH  38  43
HETATM   43  O2  UNL     1      20.723  64.154 -13.925  1.00  0.00    -0.354 OA
ATOM     44  H2  UNL     1      20.503  63.715 -13.111  1.00  0.00     0.213 HD
ENDBRANCH  38  43
ENDBRANCH  37  38
ENDBRANCH   4  37
TORSDOF 10
ENDMDL
MODEL 5
REMARK VINA RESULT: -6.650241007      6.512     10.247
REMARK  10 active torsions:
REMARK  status: ('A' for Active; 'I' for Inactive)
REMARK    1  A    between atoms: N2_4  and  O1_6 
REMARK    2  A    between atoms: O1_6  and  C3_7 
REMARK    3  A    between atoms: C3_7  and  O2_8 
REMARK    4  A    between atoms: C6_14  and  O5_15 
REMARK    5  A    between atoms: C6_14  and  C7_17 
REMARK    6  A    between atoms: C7_17  and  O6_18 
REMARK    7  A    between atoms: C8_20  and  C9_21 
REMARK    8  A    between atoms: C9_21  and  S1_22 
REMARK    9  A    between atoms: S1_22  and  C10_23 
REMARK   10  A    between atoms: C12_32  and  O7_33 
ROOT
HETATM    1  C1  UNL     1      18.671  65.114 -19.601  1.00  0.00     0.153 C 
HETATM    2  N1  UNL     1      17.610  64.441 -18.911  1.00  0.00    -0.337 N 
HETATM    3  C2  UNL     1      17.947  63.664 -17.750  1.00  0.00     0.141 C 
HETATM    4  N2  UNL     1      18.941  64.055 -17.044  1.00  0.00    -0.247 N 
ATOM      5  H2  UNL     1      19.420  64.896 -17.366  1.00  0.00     0.196 HD
HETATM    6  C6  UNL     1      17.117  62.463 -17.449  1.00  0.00     0.178 C 
HETATM    7  C8  UNL     1      15.723  62.678 -17.997  1.00  0.00     0.222 C 
HETATM    8  N6  UNL     1      15.471  64.120 -18.105  1.00  0.00    -0.028 N 
ATOM      9  H61 UNL     1      15.726  64.657 -17.276  1.00  0.00     0.281 HD
ATOM     10  H62 UNL     1      14.484  64.377 -18.100  1.00  0.00     0.281 HD
HETATM   11  C13 UNL     1      16.197  64.506 -19.328  1.00  0.00     0.365 C 
HETATM   12  C14 UNL     1      15.829  63.420 -20.241  1.00  0.00     0.224 C 
HETATM   13  O8  UNL     1      15.741  63.515 -21.493  1.00  0.00    -0.287 OA
HETATM   14  C15 UNL     1      15.600  62.253 -19.401  1.00  0.00     0.094 C 
HETATM   15  N7  UNL     1      15.336  61.060 -19.796  1.00  0.00    -0.397 N 
ATOM     16  H71 UNL     1      15.250  60.765 -20.769  1.00  0.00     0.156 HD
ATOM     17  H72 UNL     1      15.175  60.242 -19.207  1.00  0.00     0.156 HD
ENDROOT
BRANCH   7  18
HETATM   18  C9  UNL     1      14.658  62.134 -17.101  1.00  0.00     0.130 C 
BRANCH  18  19
HETATM   19  S1  UNL     1      13.080  62.979 -17.247  1.00  0.00    -0.104 SA
BRANCH  19  20
HETATM   20  C10 UNL     1      12.698  63.699 -15.656  1.00  0.00     0.137 A 
HETATM   21  N3  UNL     1      12.586  64.999 -15.329  1.00  0.00    -0.182 N 
HETATM   22  C11 UNL     1      12.283  65.145 -14.013  1.00  0.00     0.678 A 
ATOM     23  H3  UNL     1      12.712  65.773 -15.982  1.00  0.00     0.185 HD
HETATM   24  N4  UNL     1      12.107  66.280 -13.384  1.00  0.00    -0.234 N 
HETATM   25  N5  UNL     1      12.201  63.915 -13.492  1.00  0.00    -0.168 N 
ATOM     26  H42 UNL     1      12.170  67.218 -13.780  1.00  0.00     0.174 HD
ATOM     27  H41 UNL     1      11.880  66.389 -12.395  1.00  0.00     0.174 HD
HETATM   28  C12 UNL     1      12.446  63.017 -14.456  1.00  0.00     0.189 A 
ATOM     29  H5  UNL     1      11.987  63.696 -12.518  1.00  0.00     0.186 HD
BRANCH  28  30
HETATM   30  O7  UNL     1      12.473  61.633 -14.396  1.00  0.00    -0.344 OA
ATOM     31  H7  UNL     1      11.675  61.128 -14.288  1.00  0.00     0.219 HD
ENDBRANCH  28  30
ENDBRANCH  19  20
ENDBRANCH  18  19
ENDBRANCH   7  18
BRANCH   6  32
HETATM   32  O5  UNL     1      17.044  62.339 -16.068  1.00  0.00    -0.377 OA
ATOM     33  H5  UNL     1      17.809  62.765 -15.701  1.00  0.00     0.211 HD
ENDBRANCH   6  32
BRANCH   6  34
HETATM   34  C7  UNL     1      17.806  61.292 -18.110  1.00  0.00     0.213 C 
BRANCH  34  35
HETATM   35  O6  UNL     1      18.842  60.867 -17.315  1.00  0.00    -0.397 OA
ATOM     36  H6  UNL     1      19.395  61.608 -17.095  1.00  0.00     0.209 HD
ENDBRANCH  34  35
ENDBRANCH   6  34
BRANCH   4  37
HETATM   37  O1  UNL     1      19.431  63.484 -15.924  1.00  0.00    -0.226 OA
BRANCH  37  38
HETATM   38  C3  UNL     1      19.576  64.295 -14.772  1.00  0.00     0.298 C 
HETATM   39  C4  UNL     1      19.410  65.749 -15.073  1.00  0.00     0.261 C 
HETATM   40  O3  UNL     1      18.674  65.833 -13.860  1.00  0.00    -0.311 OA
HETATM   41  C5  UNL     1      18.323  64.491 -14.002  1.00  0.00     0.326 C 
HETATM   42  O4  UNL     1      17.356  63.783 -13.626  1.00  0.00    -0.259 OA
BRANCH  38  43
HETATM   43  O2  UNL     1      20.689  63.991 -14.000  1.00  0.00    -0.354 OA
ATOM     44  H2  UNL     1      20.514  63.389 -13.287  1.00  0.00     0.213 HD
ENDBRANCH  38  43
ENDBRANCH  37  38
ENDBRANCH   4  37
TORSDOF 10
ENDMDL
