MODEL 1
REMARK VINA RESULT: -7.248358383      0.000      0.000
REMARK  18 active torsions:
REMARK  status: ('A' for Active; 'I' for Inactive)
REMARK    1  A    between atoms: C2_2  and  C3_3 
REMARK    2  A    between atoms: C3_3  and  C4_4 
REMARK    3  A    between atoms: C4_4  and  C5_5 
REMARK    4  A    between atoms: C5_5  and  C6_6 
REMARK    5  A    between atoms: C9_9  and  C10_10 
REMARK       I    between atoms: C10_10  and  N1_12 
REMARK    6  A    between atoms: N1_12  and  C11_14 
REMARK    7  A    between atoms: C11_14  and  C12_15 
REMARK    8  A    between atoms: C12_15  and  O2_16 
REMARK    9  A    between atoms: O2_16  and  C13_17 
REMARK   10  A    between atoms: C13_17  and  C14_18 
REMARK   11  A    between atoms: C14_18  and  O3_19 
REMARK   12  A    between atoms: O3_19  and  C15_20 
REMARK   13  A    between atoms: C15_20  and  C16_21 
REMARK   14  A    between atoms: C16_21  and  C17_22 
REMARK   15  A    between atoms: C17_22  and  N2_23 
REMARK   16  A    between atoms: N2_23  and  C18_24 
REMARK   17  A    between atoms: N2_23  and  C20_26 
REMARK   18  A    between atoms: N2_23  and  C22_28 
ROOT
HETATM    1  C12 UNL     1      19.998   7.344  57.807  1.00  0.00     0.187 C 
ENDROOT
BRANCH   1   2
HETATM    2  C11 UNL     1      19.743   5.935  57.349  1.00  0.00     0.148 C 
BRANCH   2   3
HETATM    3  N1  UNL     1      19.719   5.839  55.905  1.00  0.00    -0.359 N 
HETATM    4  C10 UNL     1      20.769   5.246  55.153  1.00  0.00     0.222 C 
HETATM    5  O1  UNL     1      21.742   4.797  55.816  1.00  0.00    -0.273 OA
ATOM      6  H1  UNL     1      18.913   6.215  55.405  1.00  0.00     0.162 HD
BRANCH   4   7
HETATM    7  C9  UNL     1      20.675   5.184  53.683  1.00  0.00     0.086 A 
HETATM    8  C6  UNL     1      20.266   3.899  53.001  1.00  0.00    -0.031 A 
HETATM    9  C7  UNL     1      19.774   2.768  53.855  1.00  0.00     0.016 C 
HETATM   10  C8  UNL     1      19.363   5.107  53.013  1.00  0.00     0.025 A 
BRANCH   8  11
HETATM   11  C5  UNL     1      21.017   3.611  51.744  1.00  0.00     0.010 C 
BRANCH  11  12
HETATM   12  C4  UNL     1      21.591   2.265  51.618  1.00  0.00     0.005 C 
BRANCH  12  13
HETATM   13  C3  UNL     1      22.794   2.074  50.774  1.00  0.00     0.026 C 
BRANCH  13  14
HETATM   14  C2  UNL     1      22.691   2.882  49.508  1.00  0.00    -0.037 C 
HETATM   15  C1  UNL     1      22.757   2.300  48.340  1.00  0.00     0.007 C 
ENDBRANCH  13  14
ENDBRANCH  12  13
ENDBRANCH  11  12
ENDBRANCH   8  11
ENDBRANCH   4   7
ENDBRANCH   2   3
ENDBRANCH   1   2
BRANCH   1  16
HETATM   16  O2  UNL     1      21.317   7.588  58.103  1.00  0.00    -0.387 OA
BRANCH  16  17
HETATM   17  C13 UNL     1      21.867   6.652  58.965  1.00  0.00     0.193 C 
BRANCH  17  18
HETATM   18  C14 UNL     1      21.551   6.990  60.423  1.00  0.00     0.193 C 
BRANCH  18  19
HETATM   19  O3  UNL     1      21.686   8.326  60.667  1.00  0.00    -0.389 OA
BRANCH  19  20
HETATM   20  C15 UNL     1      20.647   8.950  61.324  1.00  0.00     0.169 C 
BRANCH  20  21
HETATM   21  C16 UNL     1      20.065  10.069  60.506  1.00  0.00     0.054 C 
BRANCH  21  22
HETATM   22  C17 UNL     1      18.624  10.314  60.625  1.00  0.00     0.239 C 
BRANCH  22  23
HETATM   23  N2  UNL     1      17.919  11.115  59.715  1.00  0.00    -0.068 N 
BRANCH  23  24
HETATM   24  C18 UNL     1      18.723  11.109  58.461  1.00  0.00     0.233 C 
HETATM   25  C19 UNL     1      18.012  10.487  57.318  1.00  0.00     0.035 C 
ENDBRANCH  23  24
BRANCH  23  26
HETATM   26  C20 UNL     1      17.812  12.500  60.185  1.00  0.00     0.233 C 
HETATM   27  C21 UNL     1      18.758  13.437  59.493  1.00  0.00     0.035 C 
ENDBRANCH  23  26
BRANCH  23  28
HETATM   28  C22 UNL     1      16.619  10.717  59.289  1.00  0.00     0.233 C 
HETATM   29  C23 UNL     1      15.769  10.037  60.308  1.00  0.00     0.035 C 
ENDBRANCH  23  28
ENDBRANCH  22  23
ENDBRANCH  21  22
ENDBRANCH  20  21
ENDBRANCH  19  20
ENDBRANCH  18  19
ENDBRANCH  17  18
ENDBRANCH  16  17
ENDBRANCH   1  16
TORSDOF 18
ENDMDL
MODEL 2
REMARK VINA RESULT: -7.233574115      1.169      2.232
REMARK  18 active torsions:
REMARK  status: ('A' for Active; 'I' for Inactive)
REMARK    1  A    between atoms: C2_2  and  C3_3 
REMARK    2  A    between atoms: C3_3  and  C4_4 
REMARK    3  A    between atoms: C4_4  and  C5_5 
REMARK    4  A    between atoms: C5_5  and  C6_6 
REMARK    5  A    between atoms: C9_9  and  C10_10 
REMARK       I    between atoms: C10_10  and  N1_12 
REMARK    6  A    between atoms: N1_12  and  C11_14 
REMARK    7  A    between atoms: C11_14  and  C12_15 
REMARK    8  A    between atoms: C12_15  and  O2_16 
REMARK    9  A    between atoms: O2_16  and  C13_17 
REMARK   10  A    between atoms: C13_17  and  C14_18 
REMARK   11  A    between atoms: C14_18  and  O3_19 
REMARK   12  A    between atoms: O3_19  and  C15_20 
REMARK   13  A    between atoms: C15_20  and  C16_21 
REMARK   14  A    between atoms: C16_21  and  C17_22 
REMARK   15  A    between atoms: C17_22  and  N2_23 
REMARK   16  A    between atoms: N2_23  and  C18_24 
REMARK   17  A    between atoms: N2_23  and  C20_26 
REMARK   18  A    between atoms: N2_23  and  C22_28 
ROOT
HETATM    1  C12 UNL     1      22.265   5.441  58.423  1.00  0.00     0.187 C 
ENDROOT
BRANCH   1   2
HETATM    2  C11 UNL     1      21.292   4.593  57.650  1.00  0.00     0.148 C 
BRANCH   2   3
HETATM    3  N1  UNL     1      21.519   4.687  56.224  1.00  0.00    -0.359 N 
HETATM    4  C10 UNL     1      20.499   5.048  55.303  1.00  0.00     0.222 C 
HETATM    5  O1  UNL     1      19.364   5.288  55.796  1.00  0.00    -0.273 OA
ATOM      6  H1  UNL     1      22.451   4.484  55.864  1.00  0.00     0.162 HD
BRANCH   4   7
HETATM    7  C9  UNL     1      20.803   5.123  53.862  1.00  0.00     0.086 A 
HETATM    8  C6  UNL     1      20.604   3.913  52.979  1.00  0.00    -0.031 A 
HETATM    9  C7  UNL     1      19.912   2.716  53.561  1.00  0.00     0.016 C 
HETATM   10  C8  UNL     1      19.719   5.128  52.861  1.00  0.00     0.025 A 
BRANCH   8  11
HETATM   11  C5  UNL     1      21.667   3.730  51.948  1.00  0.00     0.010 C 
BRANCH  11  12
HETATM   12  C4  UNL     1      21.826   2.375  51.405  1.00  0.00     0.005 C 
BRANCH  12  13
HETATM   13  C3  UNL     1      23.085   2.026  50.704  1.00  0.00     0.026 C 
BRANCH  13  14
HETATM   14  C2  UNL     1      23.302   2.928  49.518  1.00  0.00    -0.037 C 
HETATM   15  C1  UNL     1      22.671   2.713  48.395  1.00  0.00     0.007 C 
ENDBRANCH  13  14
ENDBRANCH  12  13
ENDBRANCH  11  12
ENDBRANCH   8  11
ENDBRANCH   4   7
ENDBRANCH   2   3
ENDBRANCH   1   2
BRANCH   1  16
HETATM   16  O2  UNL     1      22.072   6.788  58.241  1.00  0.00    -0.387 OA
BRANCH  16  17
HETATM   17  C13 UNL     1      20.925   7.265  58.855  1.00  0.00     0.193 C 
BRANCH  17  18
HETATM   18  C14 UNL     1      20.013   7.973  57.852  1.00  0.00     0.193 C 
BRANCH  18  19
HETATM   19  O3  UNL     1      18.696   7.790  58.158  1.00  0.00    -0.389 OA
BRANCH  19  20
HETATM   20  C15 UNL     1      17.781   8.558  57.469  1.00  0.00     0.169 C 
BRANCH  20  21
HETATM   21  C16 UNL     1      18.206   9.998  57.398  1.00  0.00     0.054 C 
BRANCH  21  22
HETATM   22  C17 UNL     1      17.581  10.933  58.339  1.00  0.00     0.239 C 
BRANCH  22  23
HETATM   23  N2  UNL     1      18.078  11.143  59.634  1.00  0.00    -0.068 N 
BRANCH  23  24
HETATM   24  C18 UNL     1      17.700  12.540  59.991  1.00  0.00     0.233 C 
HETATM   25  C19 UNL     1      18.706  13.542  59.563  1.00  0.00     0.035 C 
ENDBRANCH  23  24
BRANCH  23  26
HETATM   26  C20 UNL     1      19.539  11.037  59.675  1.00  0.00     0.233 C 
HETATM   27  C21 UNL     1      20.043  10.248  60.848  1.00  0.00     0.035 C 
ENDBRANCH  23  26
BRANCH  23  28
HETATM   28  C22 UNL     1      17.571  10.367  60.716  1.00  0.00     0.233 C 
HETATM   29  C23 UNL     1      16.125  10.006  60.650  1.00  0.00     0.035 C 
ENDBRANCH  23  28
ENDBRANCH  22  23
ENDBRANCH  21  22
ENDBRANCH  20  21
ENDBRANCH  19  20
ENDBRANCH  18  19
ENDBRANCH  17  18
ENDBRANCH  16  17
ENDBRANCH   1  16
TORSDOF 18
ENDMDL
MODEL 3
REMARK VINA RESULT: -7.190064398      1.402      2.494
REMARK  18 active torsions:
REMARK  status: ('A' for Active; 'I' for Inactive)
REMARK    1  A    between atoms: C2_2  and  C3_3 
REMARK    2  A    between atoms: C3_3  and  C4_4 
REMARK    3  A    between atoms: C4_4  and  C5_5 
REMARK    4  A    between atoms: C5_5  and  C6_6 
REMARK    5  A    between atoms: C9_9  and  C10_10 
REMARK       I    between atoms: C10_10  and  N1_12 
REMARK    6  A    between atoms: N1_12  and  C11_14 
REMARK    7  A    between atoms: C11_14  and  C12_15 
REMARK    8  A    between atoms: C12_15  and  O2_16 
REMARK    9  A    between atoms: O2_16  and  C13_17 
REMARK   10  A    between atoms: C13_17  and  C14_18 
REMARK   11  A    between atoms: C14_18  and  O3_19 
REMARK   12  A    between atoms: O3_19  and  C15_20 
REMARK   13  A    between atoms: C15_20  and  C16_21 
REMARK   14  A    between atoms: C16_21  and  C17_22 
REMARK   15  A    between atoms: C17_22  and  N2_23 
REMARK   16  A    between atoms: N2_23  and  C18_24 
REMARK   17  A    between atoms: N2_23  and  C20_26 
REMARK   18  A    between atoms: N2_23  and  C22_28 
ROOT
HETATM    1  C12 UNL     1      21.056   5.157  58.481  1.00  0.00     0.187 C 
ENDROOT
BRANCH   1   2
HETATM    2  C11 UNL     1      20.565   4.150  57.478  1.00  0.00     0.148 C 
BRANCH   2   3
HETATM    3  N1  UNL     1      21.115   4.396  56.162  1.00  0.00    -0.359 N 
HETATM    4  C10 UNL     1      20.353   4.951  55.099  1.00  0.00     0.222 C 
HETATM    5  O1  UNL     1      19.151   5.225  55.360  1.00  0.00    -0.273 OA
ATOM      6  H1  UNL     1      22.092   4.160  55.991  1.00  0.00     0.162 HD
BRANCH   4   7
HETATM    7  C9  UNL     1      20.981   5.173  53.784  1.00  0.00     0.086 A 
HETATM    8  C6  UNL     1      20.990   4.071  52.749  1.00  0.00    -0.031 A 
HETATM    9  C7  UNL     1      20.182   2.837  53.021  1.00  0.00     0.016 C 
HETATM   10  C8  UNL     1      20.156   5.315  52.568  1.00  0.00     0.025 A 
BRANCH   8  11
HETATM   11  C5  UNL     1      22.262   3.974  51.975  1.00  0.00     0.010 C 
BRANCH  11  12
HETATM   12  C4  UNL     1      22.522   2.694  51.303  1.00  0.00     0.005 C 
BRANCH  12  13
HETATM   13  C3  UNL     1      22.167   2.551  49.870  1.00  0.00     0.026 C 
BRANCH  13  14
HETATM   14  C2  UNL     1      22.431   3.832  49.126  1.00  0.00    -0.037 C 
HETATM   15  C1  UNL     1      21.850   4.066  47.979  1.00  0.00     0.007 C 
ENDBRANCH  13  14
ENDBRANCH  12  13
ENDBRANCH  11  12
ENDBRANCH   8  11
ENDBRANCH   4   7
ENDBRANCH   2   3
ENDBRANCH   1   2
BRANCH   1  16
HETATM   16  O2  UNL     1      20.143   6.148  58.747  1.00  0.00    -0.387 OA
BRANCH  16  17
HETATM   17  C13 UNL     1      20.516   7.385  58.247  1.00  0.00     0.193 C 
BRANCH  17  18
HETATM   18  C14 UNL     1      19.410   7.988  57.379  1.00  0.00     0.193 C 
BRANCH  18  19
HETATM   19  O3  UNL     1      18.175   7.762  57.915  1.00  0.00    -0.389 OA
BRANCH  19  20
HETATM   20  C15 UNL     1      17.193   8.688  57.635  1.00  0.00     0.169 C 
BRANCH  20  21
HETATM   21  C16 UNL     1      17.746  10.085  57.580  1.00  0.00     0.054 C 
BRANCH  21  22
HETATM   22  C17 UNL     1      17.379  10.999  58.666  1.00  0.00     0.239 C 
BRANCH  22  23
HETATM   23  N2  UNL     1      18.222  11.246  59.759  1.00  0.00    -0.068 N 
BRANCH  23  24
HETATM   24  C18 UNL     1      17.736  10.360  60.854  1.00  0.00     0.233 C 
HETATM   25  C19 UNL     1      16.267  10.424  61.046  1.00  0.00     0.035 C 
ENDBRANCH  23  24
BRANCH  23  26
HETATM   26  C20 UNL     1      18.122  12.636  60.215  1.00  0.00     0.233 C 
HETATM   27  C21 UNL     1      18.832  13.607  59.317  1.00  0.00     0.035 C 
ENDBRANCH  23  26
BRANCH  23  28
HETATM   28  C22 UNL     1      19.609  10.937  59.661  1.00  0.00     0.233 C 
HETATM   29  C23 UNL     1      20.180  10.106  60.760  1.00  0.00     0.035 C 
ENDBRANCH  23  28
ENDBRANCH  22  23
ENDBRANCH  21  22
ENDBRANCH  20  21
ENDBRANCH  19  20
ENDBRANCH  18  19
ENDBRANCH  17  18
ENDBRANCH  16  17
ENDBRANCH   1  16
TORSDOF 18
ENDMDL
MODEL 4
REMARK VINA RESULT: -7.140793793      1.643      2.453
REMARK  18 active torsions:
REMARK  status: ('A' for Active; 'I' for Inactive)
REMARK    1  A    between atoms: C2_2  and  C3_3 
REMARK    2  A    between atoms: C3_3  and  C4_4 
REMARK    3  A    between atoms: C4_4  and  C5_5 
REMARK    4  A    between atoms: C5_5  and  C6_6 
REMARK    5  A    between atoms: C9_9  and  C10_10 
REMARK       I    between atoms: C10_10  and  N1_12 
REMARK    6  A    between atoms: N1_12  and  C11_14 
REMARK    7  A    between atoms: C11_14  and  C12_15 
REMARK    8  A    between atoms: C12_15  and  O2_16 
REMARK    9  A    between atoms: O2_16  and  C13_17 
REMARK   10  A    between atoms: C13_17  and  C14_18 
REMARK   11  A    between atoms: C14_18  and  O3_19 
REMARK   12  A    between atoms: O3_19  and  C15_20 
REMARK   13  A    between atoms: C15_20  and  C16_21 
REMARK   14  A    between atoms: C16_21  and  C17_22 
REMARK   15  A    between atoms: C17_22  and  N2_23 
REMARK   16  A    between atoms: N2_23  and  C18_24 
REMARK   17  A    between atoms: N2_23  and  C20_26 
REMARK   18  A    between atoms: N2_23  and  C22_28 
ROOT
HETATM    1  C12 UNL     1      21.480   5.539  58.356  1.00  0.00     0.187 C 
ENDROOT
BRANCH   1   2
HETATM    2  C11 UNL     1      21.263   4.355  57.455  1.00  0.00     0.148 C 
BRANCH   2   3
HETATM    3  N1  UNL     1      21.546   4.677  56.073  1.00  0.00    -0.359 N 
HETATM    4  C10 UNL     1      20.537   4.749  55.075  1.00  0.00     0.222 C 
HETATM    5  O1  UNL     1      19.360   4.514  55.458  1.00  0.00    -0.273 OA
ATOM      6  H1  UNL     1      22.512   4.861  55.803  1.00  0.00     0.162 HD
BRANCH   4   7
HETATM    7  C9  UNL     1      20.900   5.083  53.686  1.00  0.00     0.086 A 
HETATM    8  C6  UNL     1      20.889   4.013  52.619  1.00  0.00    -0.031 A 
HETATM    9  C7  UNL     1      20.317   2.670  52.966  1.00  0.00     0.016 C 
HETATM   10  C8  UNL     1      19.873   5.127  52.627  1.00  0.00     0.025 A 
BRANCH   8  11
HETATM   11  C5  UNL     1      22.016   4.113  51.645  1.00  0.00     0.010 C 
BRANCH  11  12
HETATM   12  C4  UNL     1      22.514   2.849  51.089  1.00  0.00     0.005 C 
BRANCH  12  13
HETATM   13  C3  UNL     1      22.651   2.717  49.618  1.00  0.00     0.026 C 
BRANCH  13  14
HETATM   14  C2  UNL     1      22.246   3.992  48.929  1.00  0.00    -0.037 C 
HETATM   15  C1  UNL     1      21.877   3.982  47.676  1.00  0.00     0.007 C 
ENDBRANCH  13  14
ENDBRANCH  12  13
ENDBRANCH  11  12
ENDBRANCH   8  11
ENDBRANCH   4   7
ENDBRANCH   2   3
ENDBRANCH   1   2
BRANCH   1  16
HETATM   16  O2  UNL     1      21.738   5.190  59.659  1.00  0.00    -0.387 OA
BRANCH  16  17
HETATM   17  C13 UNL     1      21.985   6.280  60.479  1.00  0.00     0.193 C 
BRANCH  17  18
HETATM   18  C14 UNL     1      21.248   7.525  59.983  1.00  0.00     0.193 C 
BRANCH  18  19
HETATM   19  O3  UNL     1      21.389   8.568  60.851  1.00  0.00    -0.389 OA
BRANCH  19  20
HETATM   20  C15 UNL     1      20.234   9.203  61.259  1.00  0.00     0.169 C 
BRANCH  20  21
HETATM   21  C16 UNL     1      19.780  10.227  60.256  1.00  0.00     0.054 C 
BRANCH  21  22
HETATM   22  C17 UNL     1      18.550   9.942  59.511  1.00  0.00     0.239 C 
BRANCH  22  23
HETATM   23  N2  UNL     1      18.549   9.672  58.135  1.00  0.00    -0.068 N 
BRANCH  23  24
HETATM   24  C18 UNL     1      17.801  10.795  57.501  1.00  0.00     0.233 C 
HETATM   25  C19 UNL     1      16.343  10.542  57.407  1.00  0.00     0.035 C 
ENDBRANCH  23  24
BRANCH  23  26
HETATM   26  C20 UNL     1      17.846   8.422  57.830  1.00  0.00     0.233 C 
HETATM   27  C21 UNL     1      18.637   7.495  56.955  1.00  0.00     0.035 C 
ENDBRANCH  23  26
BRANCH  23  28
HETATM   28  C22 UNL     1      19.783   9.642  57.423  1.00  0.00     0.233 C 
HETATM   29  C23 UNL     1      20.191  10.910  56.753  1.00  0.00     0.035 C 
ENDBRANCH  23  28
ENDBRANCH  22  23
ENDBRANCH  21  22
ENDBRANCH  20  21
ENDBRANCH  19  20
ENDBRANCH  18  19
ENDBRANCH  17  18
ENDBRANCH  16  17
ENDBRANCH   1  16
TORSDOF 18
ENDMDL
MODEL 5
REMARK VINA RESULT: -7.127451092      1.286      1.461
REMARK  18 active torsions:
REMARK  status: ('A' for Active; 'I' for Inactive)
REMARK    1  A    between atoms: C2_2  and  C3_3 
REMARK    2  A    between atoms: C3_3  and  C4_4 
REMARK    3  A    between atoms: C4_4  and  C5_5 
REMARK    4  A    between atoms: C5_5  and  C6_6 
REMARK    5  A    between atoms: C9_9  and  C10_10 
REMARK       I    between atoms: C10_10  and  N1_12 
REMARK    6  A    between atoms: N1_12  and  C11_14 
REMARK    7  A    between atoms: C11_14  and  C12_15 
REMARK    8  A    between atoms: C12_15  and  O2_16 
REMARK    9  A    between atoms: O2_16  and  C13_17 
REMARK   10  A    between atoms: C13_17  and  C14_18 
REMARK   11  A    between atoms: C14_18  and  O3_19 
REMARK   12  A    between atoms: O3_19  and  C15_20 
REMARK   13  A    between atoms: C15_20  and  C16_21 
REMARK   14  A    between atoms: C16_21  and  C17_22 
REMARK   15  A    between atoms: C17_22  and  N2_23 
REMARK   16  A    between atoms: N2_23  and  C18_24 
REMARK   17  A    between atoms: N2_23  and  C20_26 
REMARK   18  A    between atoms: N2_23  and  C22_28 
ROOT
HETATM    1  C12 UNL     1      20.892   5.674  58.282  1.00  0.00     0.187 C 
ENDROOT
BRANCH   1   2
HETATM    2  C11 UNL     1      20.892   4.398  57.486  1.00  0.00     0.148 C 
BRANCH   2   3
HETATM    3  N1  UNL     1      21.343   4.617  56.129  1.00  0.00    -0.359 N 
HETATM    4  C10 UNL     1      20.470   5.007  55.078  1.00  0.00     0.222 C 
HETATM    5  O1  UNL     1      19.258   5.156  55.390  1.00  0.00    -0.273 OA
ATOM      6  H1  UNL     1      22.332   4.485  55.917  1.00  0.00     0.162 HD
BRANCH   4   7
HETATM    7  C9  UNL     1      21.001   5.211  53.718  1.00  0.00     0.086 A 
HETATM    8  C6  UNL     1      20.974   4.082  52.714  1.00  0.00    -0.031 A 
HETATM    9  C7  UNL     1      20.224   2.833  53.070  1.00  0.00     0.016 C 
HETATM   10  C8  UNL     1      20.093   5.296  52.558  1.00  0.00     0.025 A 
BRANCH   8  11
HETATM   11  C5  UNL     1      22.194   4.000  51.858  1.00  0.00     0.010 C 
BRANCH  11  12
HETATM   12  C4  UNL     1      22.472   2.699  51.238  1.00  0.00     0.005 C 
BRANCH  12  13
HETATM   13  C3  UNL     1      22.315   2.555  49.770  1.00  0.00     0.026 C 
BRANCH  13  14
HETATM   14  C2  UNL     1      22.058   3.892  49.129  1.00  0.00    -0.037 C 
HETATM   15  C1  UNL     1      22.036   4.012  47.828  1.00  0.00     0.007 C 
ENDBRANCH  13  14
ENDBRANCH  12  13
ENDBRANCH  11  12
ENDBRANCH   8  11
ENDBRANCH   4   7
ENDBRANCH   2   3
ENDBRANCH   1   2
BRANCH   1  16
HETATM   16  O2  UNL     1      22.117   6.293  58.315  1.00  0.00    -0.387 OA
BRANCH  16  17
HETATM   17  C13 UNL     1      22.487   6.707  59.585  1.00  0.00     0.193 C 
BRANCH  17  18
HETATM   18  C14 UNL     1      21.276   7.187  60.386  1.00  0.00     0.193 C 
BRANCH  18  19
HETATM   19  O3  UNL     1      21.114   8.539  60.285  1.00  0.00    -0.389 OA
BRANCH  19  20
HETATM   20  C15 UNL     1      20.426   9.163  61.303  1.00  0.00     0.169 C 
BRANCH  20  21
HETATM   21  C16 UNL     1      19.201   9.870  60.793  1.00  0.00     0.054 C 
BRANCH  21  22
HETATM   22  C17 UNL     1      18.922   9.785  59.356  1.00  0.00     0.239 C 
BRANCH  22  23
HETATM   23  N2  UNL     1      18.644  10.915  58.574  1.00  0.00    -0.068 N 
BRANCH  23  24
HETATM   24  C18 UNL     1      19.957  11.368  58.035  1.00  0.00     0.233 C 
HETATM   25  C19 UNL     1      20.277  10.782  56.712  1.00  0.00     0.035 C 
ENDBRANCH  23  24
BRANCH  23  26
HETATM   26  C20 UNL     1      18.077  12.002  59.378  1.00  0.00     0.233 C 
HETATM   27  C21 UNL     1      18.876  13.271  59.308  1.00  0.00     0.035 C 
ENDBRANCH  23  26
BRANCH  23  28
HETATM   28  C22 UNL     1      17.827  10.783  57.414  1.00  0.00     0.233 C 
HETATM   29  C23 UNL     1      16.479  10.179  57.620  1.00  0.00     0.035 C 
ENDBRANCH  23  28
ENDBRANCH  22  23
ENDBRANCH  21  22
ENDBRANCH  20  21
ENDBRANCH  19  20
ENDBRANCH  18  19
ENDBRANCH  17  18
ENDBRANCH  16  17
ENDBRANCH   1  16
TORSDOF 18
ENDMDL
