MODEL 1
REMARK VINA RESULT: -7.783904382      0.000      0.000
REMARK  18 active torsions:
REMARK  status: ('A' for Active; 'I' for Inactive)
REMARK    1  A    between atoms: N2_4  and  C1_6 
REMARK    2  A    between atoms: C1_6  and  O1_7 
REMARK    3  A    between atoms: O1_7  and  C2_8 
REMARK    4  A    between atoms: C2_8  and  C3_9 
REMARK    5  A    between atoms: C3_9  and  O2_10 
REMARK    6  A    between atoms: O2_10  and  C4_11 
REMARK    7  A    between atoms: C4_11  and  C5_12 
REMARK    8  A    between atoms: C5_12  and  C6_13 
REMARK    9  A    between atoms: C6_13  and  C7_14 
REMARK   10  A    between atoms: C7_14  and  C8_15 
REMARK   11  A    between atoms: C8_15  and  C9_16 
REMARK   12  A    between atoms: C9_16  and  C10_17 
REMARK   13  A    between atoms: C10_17  and  C11_18 
REMARK   14  A    between atoms: C11_18  and  C12_19 
REMARK   15  A    between atoms: C12_19  and  N3_20 
REMARK   16  A    between atoms: C16_24  and  C17_25 
REMARK   17  A    between atoms: C17_25  and  C18_26 
REMARK   18  A    between atoms: C19_27  and  C20_28 
ROOT
HETATM    1  C8  UNL     1      18.943   4.713  53.991  1.00  0.00     0.000 C 
ENDROOT
BRANCH   1   2
HETATM    2  C7  UNL     1      19.525   3.822  55.047  1.00  0.00     0.000 C 
BRANCH   2   3
HETATM    3  C6  UNL     1      19.534   4.414  56.406  1.00  0.00     0.002 C 
BRANCH   3   4
HETATM    4  C5  UNL     1      19.470   5.943  56.337  1.00  0.00     0.026 C 
BRANCH   4   5
HETATM    5  C4  UNL     1      19.763   6.523  57.677  1.00  0.00     0.167 C 
BRANCH   5   6
HETATM    6  O2  UNL     1      18.916   7.320  58.249  1.00  0.00    -0.389 OA
BRANCH   6   7
HETATM    7  C3  UNL     1      18.559   8.564  58.019  1.00  0.00     0.194 C 
BRANCH   7   8
HETATM    8  C2  UNL     1      17.174   8.810  57.531  1.00  0.00     0.202 C 
BRANCH   8   9
HETATM    9  O1  UNL     1      16.337   9.344  58.445  1.00  0.00    -0.343 OA
BRANCH   9  10
HETATM   10  C1  UNL     1      15.364  10.212  58.185  1.00  0.00     0.241 C 
BRANCH  10  11
HETATM   11  N2  UNL     1      14.347   9.862  57.246  1.00  0.00    -0.297 N 
HETATM   12  N1  UNL     1      13.845  10.652  56.455  1.00  0.00    -0.344 N 
ATOM     13  H12 UNL     1      14.186  11.613  56.482  1.00  0.00     0.176 HD
ATOM     14  H11 UNL     1      13.119  10.402  55.784  1.00  0.00     0.176 HD
ATOM     15  H2  UNL     1      14.019   8.897  57.232  1.00  0.00     0.187 HD
ENDBRANCH  10  11
ENDBRANCH   9  10
ENDBRANCH   8   9
ENDBRANCH   7   8
ENDBRANCH   6   7
ENDBRANCH   5   6
ENDBRANCH   4   5
ENDBRANCH   3   4
ENDBRANCH   2   3
ENDBRANCH   1   2
BRANCH   1  16
HETATM   16  C9  UNL     1      19.851   4.904  52.814  1.00  0.00     0.000 C 
BRANCH  16  17
HETATM   17  C10 UNL     1      21.215   5.422  53.160  1.00  0.00     0.002 C 
BRANCH  17  18
HETATM   18  C11 UNL     1      22.266   4.723  52.364  1.00  0.00     0.020 C 
BRANCH  18  19
HETATM   19  C12 UNL     1      21.871   3.331  51.918  1.00  0.00     0.128 C 
BRANCH  19  20
HETATM   20  N3  UNL     1      22.310   3.078  50.564  1.00  0.00    -0.366 N 
HETATM   21  C13 UNL     1      23.257   2.183  50.246  1.00  0.00     0.090 A 
HETATM   22  C14 UNL     1      23.660   1.958  48.942  1.00  0.00     0.018 A 
HETATM   23  C15 UNL     1      23.084   2.668  47.907  1.00  0.00     0.010 A 
HETATM   24  C16 UNL     1      22.113   3.588  48.234  1.00  0.00    -0.039 A 
HETATM   25  C21 UNL     1      21.752   3.767  49.553  1.00  0.00     0.097 A 
BRANCH  24  26
HETATM   26  C17 UNL     1      21.466   4.375  47.156  1.00  0.00     0.066 C 
BRANCH  26  27
HETATM   27  C18 UNL     1      21.929   3.829  45.861  1.00  0.00    -0.025 C 
HETATM   28  C19 UNL     1      21.403   4.287  44.741  1.00  0.00    -0.020 C 
BRANCH  28  29
HETATM   29  C20 UNL     1      21.821   3.784  43.393  1.00  0.00     0.112 C 
HETATM   30  S1  UNL     1      20.423   3.249  42.408  1.00  0.00    -0.094 SA
ENDBRANCH  28  29
ENDBRANCH  26  27
ENDBRANCH  24  26
ENDBRANCH  19  20
ENDBRANCH  18  19
ENDBRANCH  17  18
ENDBRANCH  16  17
ENDBRANCH   1  16
TORSDOF 18
ENDMDL
MODEL 2
REMARK VINA RESULT: -7.727172192      5.472     11.367
REMARK  18 active torsions:
REMARK  status: ('A' for Active; 'I' for Inactive)
REMARK    1  A    between atoms: N2_4  and  C1_6 
REMARK    2  A    between atoms: C1_6  and  O1_7 
REMARK    3  A    between atoms: O1_7  and  C2_8 
REMARK    4  A    between atoms: C2_8  and  C3_9 
REMARK    5  A    between atoms: C3_9  and  O2_10 
REMARK    6  A    between atoms: O2_10  and  C4_11 
REMARK    7  A    between atoms: C4_11  and  C5_12 
REMARK    8  A    between atoms: C5_12  and  C6_13 
REMARK    9  A    between atoms: C6_13  and  C7_14 
REMARK   10  A    between atoms: C7_14  and  C8_15 
REMARK   11  A    between atoms: C8_15  and  C9_16 
REMARK   12  A    between atoms: C9_16  and  C10_17 
REMARK   13  A    between atoms: C10_17  and  C11_18 
REMARK   14  A    between atoms: C11_18  and  C12_19 
REMARK   15  A    between atoms: C12_19  and  N3_20 
REMARK   16  A    between atoms: C16_24  and  C17_25 
REMARK   17  A    between atoms: C17_25  and  C18_26 
REMARK   18  A    between atoms: C19_27  and  C20_28 
ROOT
HETATM    1  C8  UNL     1      19.050   3.493  55.167  1.00  0.00     0.000 C 
ENDROOT
BRANCH   1   2
HETATM    2  C7  UNL     1      19.842   3.643  53.903  1.00  0.00     0.000 C 
BRANCH   2   3
HETATM    3  C6  UNL     1      19.612   4.920  53.189  1.00  0.00     0.002 C 
BRANCH   3   4
HETATM    4  C5  UNL     1      20.908   5.729  53.081  1.00  0.00     0.026 C 
BRANCH   4   5
HETATM    5  C4  UNL     1      22.083   4.824  53.218  1.00  0.00     0.167 C 
BRANCH   5   6
HETATM    6  O2  UNL     1      22.765   4.468  52.176  1.00  0.00    -0.389 OA
BRANCH   6   7
HETATM    7  C3  UNL     1      22.454   4.324  50.906  1.00  0.00     0.194 C 
BRANCH   7   8
HETATM    8  C2  UNL     1      21.789   3.058  50.492  1.00  0.00     0.202 C 
BRANCH   8   9
HETATM    9  O1  UNL     1      22.022   2.685  49.217  1.00  0.00    -0.343 OA
BRANCH   9  10
HETATM   10  C1  UNL     1      22.641   3.422  48.299  1.00  0.00     0.241 C 
BRANCH  10  11
HETATM   11  N2  UNL     1      21.892   3.949  47.204  1.00  0.00    -0.297 N 
HETATM   12  N1  UNL     1      20.910   4.670  47.332  1.00  0.00    -0.344 N 
ATOM     13  H12 UNL     1      20.624   4.898  48.284  1.00  0.00     0.176 HD
ATOM     14  H11 UNL     1      20.375   5.047  46.549  1.00  0.00     0.176 HD
ATOM     15  H2  UNL     1      22.193   3.712  46.259  1.00  0.00     0.187 HD
ENDBRANCH  10  11
ENDBRANCH   9  10
ENDBRANCH   8   9
ENDBRANCH   7   8
ENDBRANCH   6   7
ENDBRANCH   5   6
ENDBRANCH   4   5
ENDBRANCH   3   4
ENDBRANCH   2   3
ENDBRANCH   1   2
BRANCH   1  16
HETATM   16  C9  UNL     1      19.903   3.236  56.372  1.00  0.00     0.000 C 
BRANCH  16  17
HETATM   17  C10 UNL     1      20.526   4.465  56.965  1.00  0.00     0.002 C 
BRANCH  17  18
HETATM   18  C11 UNL     1      19.511   5.547  57.131  1.00  0.00     0.020 C 
BRANCH  18  19
HETATM   19  C12 UNL     1      19.879   6.841  56.437  1.00  0.00     0.128 C 
BRANCH  19  20
HETATM   20  N3  UNL     1      19.024   7.923  56.874  1.00  0.00    -0.366 N 
HETATM   21  C13 UNL     1      17.704   7.791  57.076  1.00  0.00     0.090 A 
HETATM   22  C14 UNL     1      16.908   8.841  57.494  1.00  0.00     0.018 A 
HETATM   23  C15 UNL     1      17.463  10.084  57.721  1.00  0.00     0.010 A 
HETATM   24  C16 UNL     1      18.818  10.220  57.514  1.00  0.00    -0.039 A 
HETATM   25  C21 UNL     1      19.561   9.135  57.096  1.00  0.00     0.097 A 
BRANCH  24  26
HETATM   26  C17 UNL     1      19.460  11.537  57.744  1.00  0.00     0.066 C 
BRANCH  26  27
HETATM   27  C18 UNL     1      18.708  12.221  58.818  1.00  0.00    -0.025 C 
HETATM   28  C19 UNL     1      19.010  13.468  59.126  1.00  0.00    -0.020 C 
BRANCH  28  29
HETATM   29  C20 UNL     1      18.293  14.227  60.201  1.00  0.00     0.112 C 
HETATM   30  S1  UNL     1      18.547  13.506  61.822  1.00  0.00    -0.094 SA
ENDBRANCH  28  29
ENDBRANCH  26  27
ENDBRANCH  24  26
ENDBRANCH  19  20
ENDBRANCH  18  19
ENDBRANCH  17  18
ENDBRANCH  16  17
ENDBRANCH   1  16
TORSDOF 18
ENDMDL
MODEL 3
REMARK VINA RESULT: -7.664985172      2.408      2.649
REMARK  18 active torsions:
REMARK  status: ('A' for Active; 'I' for Inactive)
REMARK    1  A    between atoms: N2_4  and  C1_6 
REMARK    2  A    between atoms: C1_6  and  O1_7 
REMARK    3  A    between atoms: O1_7  and  C2_8 
REMARK    4  A    between atoms: C2_8  and  C3_9 
REMARK    5  A    between atoms: C3_9  and  O2_10 
REMARK    6  A    between atoms: O2_10  and  C4_11 
REMARK    7  A    between atoms: C4_11  and  C5_12 
REMARK    8  A    between atoms: C5_12  and  C6_13 
REMARK    9  A    between atoms: C6_13  and  C7_14 
REMARK   10  A    between atoms: C7_14  and  C8_15 
REMARK   11  A    between atoms: C8_15  and  C9_16 
REMARK   12  A    between atoms: C9_16  and  C10_17 
REMARK   13  A    between atoms: C10_17  and  C11_18 
REMARK   14  A    between atoms: C11_18  and  C12_19 
REMARK   15  A    between atoms: C12_19  and  N3_20 
REMARK   16  A    between atoms: C16_24  and  C17_25 
REMARK   17  A    between atoms: C17_25  and  C18_26 
REMARK   18  A    between atoms: C19_27  and  C20_28 
ROOT
HETATM    1  C8  UNL     1      19.758   4.502  53.046  1.00  0.00     0.000 C 
ENDROOT
BRANCH   1   2
HETATM    2  C7  UNL     1      19.997   3.343  53.966  1.00  0.00     0.000 C 
BRANCH   2   3
HETATM    3  C6  UNL     1      19.144   3.342  55.178  1.00  0.00     0.002 C 
BRANCH   3   4
HETATM    4  C5  UNL     1      19.999   3.292  56.449  1.00  0.00     0.026 C 
BRANCH   4   5
HETATM    5  C4  UNL     1      20.408   4.670  56.839  1.00  0.00     0.167 C 
BRANCH   5   6
HETATM    6  O2  UNL     1      19.570   5.654  56.754  1.00  0.00    -0.389 OA
BRANCH   6   7
HETATM    7  C3  UNL     1      19.716   6.962  56.777  1.00  0.00     0.194 C 
BRANCH   7   8
HETATM    8  C2  UNL     1      20.438   7.560  57.933  1.00  0.00     0.202 C 
BRANCH   8   9
HETATM    9  O1  UNL     1      20.318   8.899  58.045  1.00  0.00    -0.343 OA
BRANCH   9  10
HETATM   10  C1  UNL     1      19.785   9.705  57.131  1.00  0.00     0.241 C 
BRANCH  10  11
HETATM   11  N2  UNL     1      20.623  10.636  56.446  1.00  0.00    -0.297 N 
HETATM   12  N1  UNL     1      21.024  11.684  56.939  1.00  0.00    -0.344 N 
ATOM     13  H12 UNL     1      20.734  11.888  57.895  1.00  0.00     0.176 HD
ATOM     14  H11 UNL     1      21.623  12.350  56.450  1.00  0.00     0.176 HD
ATOM     15  H2  UNL     1      20.904  10.417  55.492  1.00  0.00     0.187 HD
ENDBRANCH  10  11
ENDBRANCH   9  10
ENDBRANCH   8   9
ENDBRANCH   7   8
ENDBRANCH   6   7
ENDBRANCH   5   6
ENDBRANCH   4   5
ENDBRANCH   3   4
ENDBRANCH   2   3
ENDBRANCH   1   2
BRANCH   1  16
HETATM   16  C9  UNL     1      20.928   5.434  52.954  1.00  0.00     0.000 C 
BRANCH  16  17
HETATM   17  C10 UNL     1      22.253   4.751  52.791  1.00  0.00     0.002 C 
BRANCH  17  18
HETATM   18  C11 UNL     1      22.546   4.495  51.351  1.00  0.00     0.020 C 
BRANCH  18  19
HETATM   19  C12 UNL     1      22.806   3.039  51.028  1.00  0.00     0.128 C 
BRANCH  19  20
HETATM   20  N3  UNL     1      22.868   2.829  49.599  1.00  0.00    -0.366 N 
HETATM   21  C13 UNL     1      23.581   1.850  49.023  1.00  0.00     0.090 A 
HETATM   22  C14 UNL     1      23.624   1.670  47.652  1.00  0.00     0.018 A 
HETATM   23  C15 UNL     1      22.916   2.513  46.820  1.00  0.00     0.010 A 
HETATM   24  C16 UNL     1      22.183   3.518  47.411  1.00  0.00    -0.039 A 
HETATM   25  C21 UNL     1      22.179   3.648  48.785  1.00  0.00     0.097 A 
BRANCH  24  26
HETATM   26  C17 UNL     1      21.406   4.449  46.558  1.00  0.00     0.066 C 
BRANCH  26  27
HETATM   27  C18 UNL     1      21.910   4.316  45.173  1.00  0.00    -0.025 C 
HETATM   28  C19 UNL     1      21.050   4.268  44.174  1.00  0.00    -0.020 C 
BRANCH  28  29
HETATM   29  C20 UNL     1      21.484   4.134  42.746  1.00  0.00     0.112 C 
HETATM   30  S1  UNL     1      21.563   2.422  42.221  1.00  0.00    -0.094 SA
ENDBRANCH  28  29
ENDBRANCH  26  27
ENDBRANCH  24  26
ENDBRANCH  19  20
ENDBRANCH  18  19
ENDBRANCH  17  18
ENDBRANCH  16  17
ENDBRANCH   1  16
TORSDOF 18
ENDMDL
MODEL 4
REMARK VINA RESULT: -7.645313075      5.910     12.348
REMARK  18 active torsions:
REMARK  status: ('A' for Active; 'I' for Inactive)
REMARK    1  A    between atoms: N2_4  and  C1_6 
REMARK    2  A    between atoms: C1_6  and  O1_7 
REMARK    3  A    between atoms: O1_7  and  C2_8 
REMARK    4  A    between atoms: C2_8  and  C3_9 
REMARK    5  A    between atoms: C3_9  and  O2_10 
REMARK    6  A    between atoms: O2_10  and  C4_11 
REMARK    7  A    between atoms: C4_11  and  C5_12 
REMARK    8  A    between atoms: C5_12  and  C6_13 
REMARK    9  A    between atoms: C6_13  and  C7_14 
REMARK   10  A    between atoms: C7_14  and  C8_15 
REMARK   11  A    between atoms: C8_15  and  C9_16 
REMARK   12  A    between atoms: C9_16  and  C10_17 
REMARK   13  A    between atoms: C10_17  and  C11_18 
REMARK   14  A    between atoms: C11_18  and  C12_19 
REMARK   15  A    between atoms: C12_19  and  N3_20 
REMARK   16  A    between atoms: C16_24  and  C17_25 
REMARK   17  A    between atoms: C17_25  and  C18_26 
REMARK   18  A    between atoms: C19_27  and  C20_28 
ROOT
HETATM    1  C8  UNL     1      20.954   5.219  53.034  1.00  0.00     0.000 C 
ENDROOT
BRANCH   1   2
HETATM    2  C7  UNL     1      22.111   4.381  52.579  1.00  0.00     0.000 C 
BRANCH   2   3
HETATM    3  C6  UNL     1      22.491   4.588  51.162  1.00  0.00     0.002 C 
BRANCH   3   4
HETATM    4  C5  UNL     1      21.780   3.582  50.251  1.00  0.00     0.026 C 
BRANCH   4   5
HETATM    5  C4  UNL     1      22.480   3.503  48.939  1.00  0.00     0.167 C 
BRANCH   5   6
HETATM    6  O2  UNL     1      21.805   3.398  47.838  1.00  0.00    -0.389 OA
BRANCH   6   7
HETATM    7  C3  UNL     1      21.369   4.279  46.964  1.00  0.00     0.194 C 
BRANCH   7   8
HETATM    8  C2  UNL     1      22.314   4.739  45.910  1.00  0.00     0.202 C 
BRANCH   8   9
HETATM    9  O1  UNL     1      23.470   4.048  45.844  1.00  0.00    -0.343 OA
BRANCH   9  10
HETATM   10  C1  UNL     1      23.726   3.051  45.000  1.00  0.00     0.241 C 
BRANCH  10  11
HETATM   11  N2  UNL     1      23.158   1.765  45.245  1.00  0.00    -0.297 N 
HETATM   12  N1  UNL     1      23.317   1.133  46.283  1.00  0.00    -0.344 N 
ATOM     13  H12 UNL     1      23.892   1.567  47.005  1.00  0.00     0.176 HD
ATOM     14  H11 UNL     1      22.911   0.214  46.458  1.00  0.00     0.176 HD
ATOM     15  H2  UNL     1      22.585   1.346  44.513  1.00  0.00     0.187 HD
ENDBRANCH  10  11
ENDBRANCH   9  10
ENDBRANCH   8   9
ENDBRANCH   7   8
ENDBRANCH   6   7
ENDBRANCH   5   6
ENDBRANCH   4   5
ENDBRANCH   3   4
ENDBRANCH   2   3
ENDBRANCH   1   2
BRANCH   1  16
HETATM   16  C9  UNL     1      19.854   4.416  53.660  1.00  0.00     0.000 C 
BRANCH  16  17
HETATM   17  C10 UNL     1      19.645   4.683  55.121  1.00  0.00     0.002 C 
BRANCH  17  18
HETATM   18  C11 UNL     1      19.841   6.130  55.430  1.00  0.00     0.020 C 
BRANCH  18  19
HETATM   19  C12 UNL     1      19.765   6.456  56.906  1.00  0.00     0.128 C 
BRANCH  19  20
HETATM   20  N3  UNL     1      19.021   7.675  57.129  1.00  0.00    -0.366 N 
HETATM   21  C13 UNL     1      17.681   7.734  57.149  1.00  0.00     0.090 A 
HETATM   22  C14 UNL     1      16.993   8.914  57.364  1.00  0.00     0.018 A 
HETATM   23  C15 UNL     1      17.682  10.092  57.570  1.00  0.00     0.010 A 
HETATM   24  C16 UNL     1      19.058  10.032  57.550  1.00  0.00    -0.039 A 
HETATM   25  C21 UNL     1      19.690   8.825  57.330  1.00  0.00     0.097 A 
BRANCH  24  26
HETATM   26  C17 UNL     1      19.843  11.271  57.766  1.00  0.00     0.066 C 
BRANCH  26  27
HETATM   27  C18 UNL     1      19.299  11.944  58.966  1.00  0.00    -0.025 C 
HETATM   28  C19 UNL     1      19.049  13.238  58.925  1.00  0.00    -0.020 C 
BRANCH  28  29
HETATM   29  C20 UNL     1      18.498  13.989  60.099  1.00  0.00     0.112 C 
HETATM   30  S1  UNL     1      17.373  12.989  61.072  1.00  0.00    -0.094 SA
ENDBRANCH  28  29
ENDBRANCH  26  27
ENDBRANCH  24  26
ENDBRANCH  19  20
ENDBRANCH  18  19
ENDBRANCH  17  18
ENDBRANCH  16  17
ENDBRANCH   1  16
TORSDOF 18
ENDMDL
MODEL 5
REMARK VINA RESULT: -7.602092272      3.317      3.564
REMARK  18 active torsions:
REMARK  status: ('A' for Active; 'I' for Inactive)
REMARK    1  A    between atoms: N2_4  and  C1_6 
REMARK    2  A    between atoms: C1_6  and  O1_7 
REMARK    3  A    between atoms: O1_7  and  C2_8 
REMARK    4  A    between atoms: C2_8  and  C3_9 
REMARK    5  A    between atoms: C3_9  and  O2_10 
REMARK    6  A    between atoms: O2_10  and  C4_11 
REMARK    7  A    between atoms: C4_11  and  C5_12 
REMARK    8  A    between atoms: C5_12  and  C6_13 
REMARK    9  A    between atoms: C6_13  and  C7_14 
REMARK   10  A    between atoms: C7_14  and  C8_15 
REMARK   11  A    between atoms: C8_15  and  C9_16 
REMARK   12  A    between atoms: C9_16  and  C10_17 
REMARK   13  A    between atoms: C10_17  and  C11_18 
REMARK   14  A    between atoms: C11_18  and  C12_19 
REMARK   15  A    between atoms: C12_19  and  N3_20 
REMARK   16  A    between atoms: C16_24  and  C17_25 
REMARK   17  A    between atoms: C17_25  and  C18_26 
REMARK   18  A    between atoms: C19_27  and  C20_28 
ROOT
HETATM    1  C8  UNL     1      21.341   4.703  54.677  1.00  0.00     0.000 C 
ENDROOT
BRANCH   1   2
HETATM    2  C7  UNL     1      19.938   4.178  54.637  1.00  0.00     0.000 C 
BRANCH   2   3
HETATM    3  C6  UNL     1      19.470   3.593  55.915  1.00  0.00     0.002 C 
BRANCH   3   4
HETATM    4  C5  UNL     1      20.346   4.058  57.083  1.00  0.00     0.026 C 
BRANCH   4   5
HETATM    5  C4  UNL     1      19.616   5.076  57.890  1.00  0.00     0.167 C 
BRANCH   5   6
HETATM    6  O2  UNL     1      20.210   5.698  58.858  1.00  0.00    -0.389 OA
BRANCH   6   7
HETATM    7  C3  UNL     1      21.344   6.359  58.938  1.00  0.00     0.194 C 
BRANCH   7   8
HETATM    8  C2  UNL     1      21.686   6.998  60.239  1.00  0.00     0.202 C 
BRANCH   8   9
HETATM    9  O1  UNL     1      21.376   8.308  60.327  1.00  0.00    -0.343 OA
BRANCH   9  10
HETATM   10  C1  UNL     1      21.007   8.940  61.437  1.00  0.00     0.241 C 
BRANCH  10  11
HETATM   11  N2  UNL     1      20.633   8.178  62.585  1.00  0.00    -0.297 N 
HETATM   12  N1  UNL     1      20.654   8.612  63.731  1.00  0.00    -0.344 N 
ATOM     13  H12 UNL     1      20.960   9.577  63.854  1.00  0.00     0.176 HD
ATOM     14  H11 UNL     1      20.386   8.068  64.551  1.00  0.00     0.176 HD
ATOM     15  H2  UNL     1      20.329   7.215  62.443  1.00  0.00     0.187 HD
ENDBRANCH  10  11
ENDBRANCH   9  10
ENDBRANCH   8   9
ENDBRANCH   7   8
ENDBRANCH   6   7
ENDBRANCH   5   6
ENDBRANCH   4   5
ENDBRANCH   3   4
ENDBRANCH   2   3
ENDBRANCH   1   2
BRANCH   1  16
HETATM   16  C9  UNL     1      21.872   5.072  53.325  1.00  0.00     0.000 C 
BRANCH  16  17
HETATM   17  C10 UNL     1      21.506   4.113  52.231  1.00  0.00     0.002 C 
BRANCH  17  18
HETATM   18  C11 UNL     1      22.446   4.237  51.079  1.00  0.00     0.020 C 
BRANCH  18  19
HETATM   19  C12 UNL     1      23.120   2.936  50.696  1.00  0.00     0.128 C 
BRANCH  19  20
HETATM   20  N3  UNL     1      23.047   2.717  49.269  1.00  0.00    -0.366 N 
HETATM   21  C13 UNL     1      23.606   1.666  48.651  1.00  0.00     0.090 A 
HETATM   22  C14 UNL     1      23.522   1.478  47.283  1.00  0.00     0.018 A 
HETATM   23  C15 UNL     1      22.845   2.389  46.498  1.00  0.00     0.010 A 
HETATM   24  C16 UNL     1      22.272   3.468  47.133  1.00  0.00    -0.039 A 
HETATM   25  C21 UNL     1      22.388   3.603  48.501  1.00  0.00     0.097 A 
BRANCH  24  26
HETATM   26  C17 UNL     1      21.534   4.475  46.332  1.00  0.00     0.066 C 
BRANCH  26  27
HETATM   27  C18 UNL     1      21.914   4.287  44.914  1.00  0.00    -0.025 C 
HETATM   28  C19 UNL     1      20.975   4.285  43.988  1.00  0.00    -0.020 C 
BRANCH  28  29
HETATM   29  C20 UNL     1      21.282   4.101  42.533  1.00  0.00     0.112 C 
HETATM   30  S1  UNL     1      21.409   2.371  42.082  1.00  0.00    -0.094 SA
ENDBRANCH  28  29
ENDBRANCH  26  27
ENDBRANCH  24  26
ENDBRANCH  19  20
ENDBRANCH  18  19
ENDBRANCH  17  18
ENDBRANCH  16  17
ENDBRANCH   1  16
TORSDOF 18
ENDMDL
