MODEL 1
REMARK VINA RESULT: -7.359759338      0.000      0.000
REMARK  3 active torsions:
REMARK  status: ('A' for Active; 'I' for Inactive)
REMARK    1  A    between atoms: C1_2  and  C2_4 
REMARK       I    between atoms: N1_8  and  C6_9 
REMARK       I    between atoms: C6_9  and  N2_11 
REMARK    2  A    between atoms: N2_11  and  N3_13 
REMARK       I    between atoms: N3_13  and  C7_15 
REMARK    3  A    between atoms: C7_15  and  C8_17 
ROOT
HETATM    1  C2  UNL     1      18.402  67.596   8.366  1.00  0.00     0.105 C 
HETATM    2  C3  UNL     1      18.857  69.034   8.109  1.00  0.00     0.019 C 
HETATM    3  C4  UNL     1      19.933  68.887   7.024  1.00  0.00     0.021 C 
HETATM    4  C5  UNL     1      21.191  68.467   7.740  1.00  0.00     0.127 C 
HETATM    5  N1  UNL     1      20.852  67.383   8.643  1.00  0.00    -0.332 N 
HETATM    6  C6  UNL     1      21.870  67.015   9.587  1.00  0.00     0.337 C 
HETATM    7  O3  UNL     1      21.631  66.083  10.397  1.00  0.00    -0.245 OA
HETATM    8  N2  UNL     1      23.118  67.653   9.644  1.00  0.00    -0.249 N 
ATOM      9  H2  UNL     1      23.295  68.408   8.983  1.00  0.00     0.192 HD
HETATM   10  C11 UNL     1      19.587  66.695   8.624  1.00  0.00     0.143 C 
ENDROOT
BRANCH   8  11
HETATM   11  N3  UNL     1      24.128  67.327  10.538  1.00  0.00    -0.266 N 
HETATM   12  C7  UNL     1      25.203  66.473  10.191  1.00  0.00     0.240 C 
HETATM   13  O4  UNL     1      25.216  66.002   9.015  1.00  0.00    -0.271 OA
ATOM     14  H3  UNL     1      24.096  67.718  11.479  1.00  0.00     0.190 HD
BRANCH  12  15
HETATM   15  C8  UNL     1      26.288  66.127  11.152  1.00  0.00     0.080 A 
HETATM   16  C9  UNL     1      27.642  65.785  10.649  1.00  0.00     0.015 A 
HETATM   17  C10 UNL     1      27.397  67.144  11.254  1.00  0.00     0.015 A 
ENDBRANCH  12  15
ENDBRANCH   8  11
BRANCH   1  18
HETATM   18  C1  UNL     1      17.363  67.517   9.401  1.00  0.00     0.178 C 
HETATM   19  O1  UNL     1      16.248  66.946   9.186  1.00  0.00    -0.648 OA
HETATM   20  O2  UNL     1      17.562  68.062  10.644  1.00  0.00    -0.648 OA
ENDBRANCH   1  18
TORSDOF 3
ENDMDL
MODEL 2
REMARK VINA RESULT: -7.223889515      1.799      2.067
REMARK  3 active torsions:
REMARK  status: ('A' for Active; 'I' for Inactive)
REMARK    1  A    between atoms: C1_2  and  C2_4 
REMARK       I    between atoms: N1_8  and  C6_9 
REMARK       I    between atoms: C6_9  and  N2_11 
REMARK    2  A    between atoms: N2_11  and  N3_13 
REMARK       I    between atoms: N3_13  and  C7_15 
REMARK    3  A    between atoms: C7_15  and  C8_17 
ROOT
HETATM    1  C2  UNL     1      19.859  67.669   7.504  1.00  0.00     0.105 C 
HETATM    2  C3  UNL     1      20.777  68.046   6.338  1.00  0.00     0.019 C 
HETATM    3  C4  UNL     1      21.366  66.702   5.889  1.00  0.00     0.021 C 
HETATM    4  C5  UNL     1      22.483  66.395   6.853  1.00  0.00     0.127 C 
HETATM    5  N1  UNL     1      21.984  66.608   8.199  1.00  0.00    -0.332 N 
HETATM    6  C6  UNL     1      22.974  66.602   9.241  1.00  0.00     0.337 C 
HETATM    7  O3  UNL     1      22.600  66.783  10.427  1.00  0.00    -0.245 OA
HETATM    8  N2  UNL     1      24.339  66.402   8.988  1.00  0.00    -0.249 N 
ATOM      9  H2  UNL     1      24.626  66.258   8.020  1.00  0.00     0.192 HD
HETATM   10  C11 UNL     1      20.594  66.816   8.511  1.00  0.00     0.143 C 
ENDROOT
BRANCH   8  11
HETATM   11  N3  UNL     1      25.326  66.386   9.963  1.00  0.00    -0.266 N 
HETATM   12  C7  UNL     1      26.562  65.718   9.782  1.00  0.00     0.240 C 
HETATM   13  O4  UNL     1      26.745  65.122   8.679  1.00  0.00    -0.271 OA
ATOM     14  H3  UNL     1      25.155  66.872  10.843  1.00  0.00     0.190 HD
BRANCH  12  15
HETATM   15  C8  UNL     1      27.621  65.704  10.829  1.00  0.00     0.080 A 
HETATM   16  C9  UNL     1      29.031  65.429  10.455  1.00  0.00     0.015 A 
HETATM   17  C10 UNL     1      28.606  66.844  10.755  1.00  0.00     0.015 A 
ENDBRANCH  12  15
ENDBRANCH   8  11
BRANCH   1  18
HETATM   18  C1  UNL     1      19.196  68.840   8.092  1.00  0.00     0.178 C 
HETATM   19  O1  UNL     1      17.945  69.029   7.973  1.00  0.00    -0.648 OA
HETATM   20  O2  UNL     1      19.910  69.776   8.796  1.00  0.00    -0.648 OA
ENDBRANCH   1  18
TORSDOF 3
ENDMDL
MODEL 3
REMARK VINA RESULT: -7.181029000      2.336      2.891
REMARK  3 active torsions:
REMARK  status: ('A' for Active; 'I' for Inactive)
REMARK    1  A    between atoms: C1_2  and  C2_4 
REMARK       I    between atoms: N1_8  and  C6_9 
REMARK       I    between atoms: C6_9  and  N2_11 
REMARK    2  A    between atoms: N2_11  and  N3_13 
REMARK       I    between atoms: N3_13  and  C7_15 
REMARK    3  A    between atoms: C7_15  and  C8_17 
ROOT
HETATM    1  C2  UNL     1      19.601  65.332  10.434  1.00  0.00     0.105 C 
HETATM    2  C3  UNL     1      19.704  66.845  10.645  1.00  0.00     0.019 C 
HETATM    3  C4  UNL     1      20.202  67.368   9.291  1.00  0.00     0.021 C 
HETATM    4  C5  UNL     1      21.690  67.127   9.273  1.00  0.00     0.127 C 
HETATM    5  N1  UNL     1      21.928  65.764   9.709  1.00  0.00    -0.332 N 
HETATM    6  C6  UNL     1      23.296  65.427   9.990  1.00  0.00     0.337 C 
HETATM    7  O3  UNL     1      23.562  64.260  10.373  1.00  0.00    -0.245 OA
HETATM    8  N2  UNL     1      24.346  66.347   9.855  1.00  0.00    -0.249 N 
ATOM      9  H2  UNL     1      24.113  67.291   9.546  1.00  0.00     0.192 HD
HETATM   10  C11 UNL     1      20.886  64.782   9.861  1.00  0.00     0.143 C 
ENDROOT
BRANCH   8  11
HETATM   11  N3  UNL     1      25.679  66.064  10.114  1.00  0.00    -0.266 N 
HETATM   12  C7  UNL     1      26.389  66.658  11.186  1.00  0.00     0.240 C 
HETATM   13  O4  UNL     1      25.756  67.476  11.919  1.00  0.00    -0.271 OA
ATOM     14  H3  UNL     1      26.167  65.403   9.509  1.00  0.00     0.190 HD
BRANCH  12  15
HETATM   15  C8  UNL     1      27.820  66.351  11.463  1.00  0.00     0.080 A 
HETATM   16  C9  UNL     1      28.619  65.587  10.472  1.00  0.00     0.015 A 
HETATM   17  C10 UNL     1      28.809  67.078  10.586  1.00  0.00     0.015 A 
ENDBRANCH  12  15
ENDBRANCH   8  11
BRANCH   1  18
HETATM   18  C1  UNL     1      19.143  64.632  11.640  1.00  0.00     0.178 C 
HETATM   19  O1  UNL     1      19.730  64.773  12.758  1.00  0.00    -0.648 OA
HETATM   20  O2  UNL     1      18.057  63.795  11.601  1.00  0.00    -0.648 OA
ENDBRANCH   1  18
TORSDOF 3
ENDMDL
MODEL 4
REMARK VINA RESULT: -7.172770842      0.820      1.127
REMARK  3 active torsions:
REMARK  status: ('A' for Active; 'I' for Inactive)
REMARK    1  A    between atoms: C1_2  and  C2_4 
REMARK       I    between atoms: N1_8  and  C6_9 
REMARK       I    between atoms: C6_9  and  N2_11 
REMARK    2  A    between atoms: N2_11  and  N3_13 
REMARK       I    between atoms: N3_13  and  C7_15 
REMARK    3  A    between atoms: C7_15  and  C8_17 
ROOT
HETATM    1  C2  UNL     1      18.564  67.158   7.869  1.00  0.00     0.105 C 
HETATM    2  C3  UNL     1      19.259  68.173   6.958  1.00  0.00     0.019 C 
HETATM    3  C4  UNL     1      20.268  67.324   6.172  1.00  0.00     0.021 C 
HETATM    4  C5  UNL     1      21.448  67.126   7.088  1.00  0.00     0.127 C 
HETATM    5  N1  UNL     1      20.944  66.721   8.386  1.00  0.00    -0.332 N 
HETATM    6  C6  UNL     1      21.903  66.722   9.457  1.00  0.00     0.337 C 
HETATM    7  O3  UNL     1      21.523  66.381  10.606  1.00  0.00    -0.245 OA
HETATM    8  N2  UNL     1      23.244  67.088   9.273  1.00  0.00    -0.249 N 
ATOM      9  H2  UNL     1      23.536  67.365   8.336  1.00  0.00     0.192 HD
HETATM   10  C11 UNL     1      19.579  66.334   8.627  1.00  0.00     0.143 C 
ENDROOT
BRANCH   8  11
HETATM   11  N3  UNL     1      24.201  67.101  10.277  1.00  0.00    -0.266 N 
HETATM   12  C7  UNL     1      25.411  66.371  10.183  1.00  0.00     0.240 C 
HETATM   13  O4  UNL     1      25.599  65.690   9.131  1.00  0.00    -0.271 OA
ATOM     14  H3  UNL     1      24.027  67.657  11.114  1.00  0.00     0.190 HD
BRANCH  12  15
HETATM   15  C8  UNL     1      26.439  66.388  11.262  1.00  0.00     0.080 A 
HETATM   16  C9  UNL     1      27.781  65.806  11.016  1.00  0.00     0.015 A 
HETATM   17  C10 UNL     1      27.611  67.303  11.010  1.00  0.00     0.015 A 
ENDBRANCH  12  15
ENDBRANCH   8  11
BRANCH   1  18
HETATM   18  C1  UNL     1      17.551  67.784   8.728  1.00  0.00     0.178 C 
HETATM   19  O1  UNL     1      17.839  68.239   9.879  1.00  0.00    -0.648 OA
HETATM   20  O2  UNL     1      16.248  67.900   8.313  1.00  0.00    -0.648 OA
ENDBRANCH   1  18
TORSDOF 3
ENDMDL
MODEL 5
REMARK VINA RESULT: -7.092224195      5.688      8.127
REMARK  3 active torsions:
REMARK  status: ('A' for Active; 'I' for Inactive)
REMARK    1  A    between atoms: C1_2  and  C2_4 
REMARK       I    between atoms: N1_8  and  C6_9 
REMARK       I    between atoms: C6_9  and  N2_11 
REMARK    2  A    between atoms: N2_11  and  N3_13 
REMARK       I    between atoms: N3_13  and  C7_15 
REMARK    3  A    between atoms: C7_15  and  C8_17 
ROOT
HETATM    1  C2  UNL     1      26.307  66.062  10.751  1.00  0.00     0.105 C 
HETATM    2  C3  UNL     1      25.264  66.465   9.705  1.00  0.00     0.019 C 
HETATM    3  C4  UNL     1      24.720  65.122   9.197  1.00  0.00     0.021 C 
HETATM    4  C5  UNL     1      25.730  64.615   8.201  1.00  0.00     0.127 C 
HETATM    5  N1  UNL     1      27.048  64.739   8.795  1.00  0.00    -0.332 N 
HETATM    6  C6  UNL     1      28.157  64.533   7.905  1.00  0.00     0.337 C 
HETATM    7  O3  UNL     1      29.323  64.630   8.364  1.00  0.00    -0.245 OA
HETATM    8  N2  UNL     1      27.992  64.230   6.546  1.00  0.00    -0.249 N 
ATOM      9  H2  UNL     1      27.039  64.157   6.188  1.00  0.00     0.192 HD
HETATM   10  C11 UNL     1      27.271  65.046  10.184  1.00  0.00     0.143 C 
ENDROOT
BRANCH   8  11
HETATM   11  N3  UNL     1      29.033  64.022   5.653  1.00  0.00    -0.266 N 
HETATM   12  C7  UNL     1      28.887  64.210   4.257  1.00  0.00     0.240 C 
HETATM   13  O4  UNL     1      27.751  64.582   3.837  1.00  0.00    -0.271 OA
ATOM     14  H3  UNL     1      29.938  63.722   6.016  1.00  0.00     0.190 HD
BRANCH  12  15
HETATM   15  C8  UNL     1      30.008  63.988   3.301  1.00  0.00     0.080 A 
HETATM   16  C9  UNL     1      29.811  64.252   1.854  1.00  0.00     0.015 A 
HETATM   17  C10 UNL     1      30.582  65.241   2.691  1.00  0.00     0.015 A 
ENDBRANCH  12  15
ENDBRANCH   8  11
BRANCH   1  18
HETATM   18  C1  UNL     1      26.964  67.226  11.359  1.00  0.00     0.178 C 
HETATM   19  O1  UNL     1      26.319  68.282  11.649  1.00  0.00    -0.648 OA
HETATM   20  O2  UNL     1      28.308  67.213  11.636  1.00  0.00    -0.648 OA
ENDBRANCH   1  18
TORSDOF 3
ENDMDL
