MODEL 1
REMARK VINA RESULT: -6.594513599      0.000      0.000
REMARK  3 active torsions:
REMARK  status: ('A' for Active; 'I' for Inactive)
REMARK    1  A    between atoms: C2_2  and  N1_3 
REMARK       I    between atoms: N1_3  and  C3_5 
REMARK       I    between atoms: C3_5  and  N2_7 
REMARK       I    between atoms: C4_9  and  N3_10 
REMARK       I    between atoms: C4_9  and  N5_16 
REMARK    2  A    between atoms: C5_12  and  C6_13 
REMARK    3  A    between atoms: N5_16  and  C7_18 
ROOT
HETATM    1  N1  UNL     1      21.492  68.957   9.060  1.00  0.00    -0.343 N 
ATOM      2  H1  UNL     1      22.149  69.737   9.039  1.00  0.00     0.164 HD
HETATM    3  C3  UNL     1      21.931  67.680   9.436  1.00  0.00     0.334 C 
HETATM    4  O1  UNL     1      21.127  66.724   9.464  1.00  0.00    -0.247 OA
HETATM    5  N2  UNL     1      23.279  67.462   9.786  1.00  0.00    -0.141 N 
ATOM      6  H2  UNL     1      23.746  68.083  10.448  1.00  0.00     0.189 HD
HETATM    7  C4  UNL     1      23.914  66.474   9.264  1.00  0.00     0.682 C 
HETATM    8  N3  UNL     1      25.270  66.316   9.664  1.00  0.00    -0.197 N 
ATOM      9  H3  UNL     1      25.984  66.038   8.991  1.00  0.00     0.183 HD
HETATM   10  C5  UNL     1      25.573  66.534  10.898  1.00  0.00     0.176 C 
HETATM   11  N5  UNL     1      23.274  65.627   8.358  1.00  0.00    -0.218 N 
ATOM     12  H5  UNL     1      22.679  66.013   7.624  1.00  0.00     0.178 HD
ENDROOT
BRANCH  11  13
HETATM   13  C7  UNL     1      23.462  64.195   8.467  1.00  0.00     0.036 C 
HETATM   14  C8  UNL     1      22.411  63.544   7.589  1.00  0.00     0.038 C 
HETATM   15  C9  UNL     1      24.865  63.821   7.988  1.00  0.00     0.038 C 
HETATM   16  C10 UNL     1      23.328  63.683   9.868  1.00  0.00     0.038 C 
ENDBRANCH  11  13
BRANCH  10  17
HETATM   17  C6  UNL     1      26.947  66.386  11.360  1.00  0.00     0.270 C 
HETATM   18  N4  UNL     1      27.867  65.561  10.674  1.00  0.00    -0.057 NA
HETATM   19  O2  UNL     1      27.323  66.994  12.372  1.00  0.00    -0.270 OA
ENDBRANCH  10  17
BRANCH   1  20
HETATM   20  C2  UNL     1      20.089  69.173   8.697  1.00  0.00     0.120 C 
HETATM   21  C1  UNL     1      19.951  69.375   7.214  1.00  0.00     0.026 C 
ENDBRANCH   1  20
TORSDOF 3
ENDMDL
MODEL 2
REMARK VINA RESULT: -6.589029561      1.830      5.348
REMARK  3 active torsions:
REMARK  status: ('A' for Active; 'I' for Inactive)
REMARK    1  A    between atoms: C2_2  and  N1_3 
REMARK       I    between atoms: N1_3  and  C3_5 
REMARK       I    between atoms: C3_5  and  N2_7 
REMARK       I    between atoms: C4_9  and  N3_10 
REMARK       I    between atoms: C4_9  and  N5_16 
REMARK    2  A    between atoms: C5_12  and  C6_13 
REMARK    3  A    between atoms: N5_16  and  C7_18 
ROOT
HETATM    1  N1  UNL     1      26.544  66.093  11.143  1.00  0.00    -0.343 N 
ATOM      2  H1  UNL     1      26.212  66.488  12.023  1.00  0.00     0.164 HD
HETATM    3  C3  UNL     1      25.658  65.931  10.069  1.00  0.00     0.334 C 
HETATM    4  O1  UNL     1      26.063  65.449   8.989  1.00  0.00    -0.247 OA
HETATM    5  N2  UNL     1      24.306  66.308  10.195  1.00  0.00    -0.141 N 
ATOM      6  H2  UNL     1      24.060  67.223  10.575  1.00  0.00     0.189 HD
HETATM    7  C4  UNL     1      23.385  65.490   9.826  1.00  0.00     0.682 C 
HETATM    8  N3  UNL     1      22.045  65.940   9.982  1.00  0.00    -0.197 N 
ATOM      9  H3  UNL     1      21.313  65.302  10.295  1.00  0.00     0.183 HD
HETATM   10  C5  UNL     1      21.778  67.173   9.719  1.00  0.00     0.176 C 
HETATM   11  N5  UNL     1      23.724  64.239   9.307  1.00  0.00    -0.218 N 
ATOM     12  H5  UNL     1      24.454  63.679   9.749  1.00  0.00     0.178 HD
ENDROOT
BRANCH  11  13
HETATM   13  C7  UNL     1      23.029  63.742   8.137  1.00  0.00     0.036 C 
HETATM   14  C8  UNL     1      23.102  64.831   7.086  1.00  0.00     0.038 C 
HETATM   15  C9  UNL     1      23.710  62.468   7.636  1.00  0.00     0.038 C 
HETATM   16  C10 UNL     1      21.596  63.396   8.400  1.00  0.00     0.038 C 
ENDBRANCH  11  13
BRANCH  10  17
HETATM   17  C6  UNL     1      20.421  67.684   9.863  1.00  0.00     0.270 C 
HETATM   18  N4  UNL     1      19.927  68.704   9.019  1.00  0.00    -0.057 NA
HETATM   19  O2  UNL     1      19.681  67.218  10.741  1.00  0.00    -0.270 OA
ENDBRANCH  10  17
BRANCH   1  20
HETATM   20  C2  UNL     1      27.948  65.696  11.002  1.00  0.00     0.120 C 
HETATM   21  C1  UNL     1      28.806  66.890  10.688  1.00  0.00     0.026 C 
ENDBRANCH   1  20
TORSDOF 3
ENDMDL
MODEL 3
REMARK VINA RESULT: -6.578545699      1.811      5.417
REMARK  3 active torsions:
REMARK  status: ('A' for Active; 'I' for Inactive)
REMARK    1  A    between atoms: C2_2  and  N1_3 
REMARK       I    between atoms: N1_3  and  C3_5 
REMARK       I    between atoms: C3_5  and  N2_7 
REMARK       I    between atoms: C4_9  and  N3_10 
REMARK       I    between atoms: C4_9  and  N5_16 
REMARK    2  A    between atoms: C5_12  and  C6_13 
REMARK    3  A    between atoms: N5_16  and  C7_18 
ROOT
HETATM    1  N1  UNL     1      26.524  66.107  11.140  1.00  0.00    -0.343 N 
ATOM      2  H1  UNL     1      26.193  66.516  12.014  1.00  0.00     0.164 HD
HETATM    3  C3  UNL     1      25.638  65.935  10.067  1.00  0.00     0.334 C 
HETATM    4  O1  UNL     1      26.042  65.437   8.994  1.00  0.00    -0.247 OA
HETATM    5  N2  UNL     1      24.288  66.323  10.185  1.00  0.00    -0.141 N 
ATOM      6  H2  UNL     1      24.047  67.244  10.552  1.00  0.00     0.189 HD
HETATM    7  C4  UNL     1      23.363  65.506   9.826  1.00  0.00     0.682 C 
HETATM    8  N3  UNL     1      22.026  65.965   9.974  1.00  0.00    -0.197 N 
ATOM      9  H3  UNL     1      21.289  65.336  10.294  1.00  0.00     0.183 HD
HETATM   10  C5  UNL     1      21.766  67.197   9.693  1.00  0.00     0.176 C 
HETATM   11  N5  UNL     1      23.695  64.245   9.325  1.00  0.00    -0.218 N 
ATOM     12  H5  UNL     1      24.421  63.687   9.776  1.00  0.00     0.178 HD
ENDROOT
BRANCH  11  13
HETATM   13  C7  UNL     1      22.999  63.736   8.161  1.00  0.00     0.036 C 
HETATM   14  C8  UNL     1      23.810  62.567   7.640  1.00  0.00     0.038 C 
HETATM   15  C9  UNL     1      21.595  63.280   8.558  1.00  0.00     0.038 C 
HETATM   16  C10 UNL     1      22.836  64.754   7.074  1.00  0.00     0.038 C 
ENDBRANCH  11  13
BRANCH  10  17
HETATM   17  C6  UNL     1      20.413  67.717   9.828  1.00  0.00     0.270 C 
HETATM   18  N4  UNL     1      19.940  68.757   8.996  1.00  0.00    -0.057 NA
HETATM   19  O2  UNL     1      19.656  67.243  10.687  1.00  0.00    -0.270 OA
ENDBRANCH  10  17
BRANCH   1  20
HETATM   20  C2  UNL     1      27.925  65.700  11.006  1.00  0.00     0.120 C 
HETATM   21  C1  UNL     1      28.793  66.887  10.695  1.00  0.00     0.026 C 
ENDBRANCH   1  20
TORSDOF 3
ENDMDL
MODEL 4
REMARK VINA RESULT: -6.558311461     10.092     11.357
REMARK  3 active torsions:
REMARK  status: ('A' for Active; 'I' for Inactive)
REMARK    1  A    between atoms: C2_2  and  N1_3 
REMARK       I    between atoms: N1_3  and  C3_5 
REMARK       I    between atoms: C3_5  and  N2_7 
REMARK       I    between atoms: C4_9  and  N3_10 
REMARK       I    between atoms: C4_9  and  N5_16 
REMARK    2  A    between atoms: C5_12  and  C6_13 
REMARK    3  A    between atoms: N5_16  and  C7_18 
ROOT
HETATM    1  N1  UNL     1      28.400  65.905   1.762  1.00  0.00    -0.343 N 
ATOM      2  H1  UNL     1      28.150  66.420   0.917  1.00  0.00     0.164 HD
HETATM    3  C3  UNL     1      29.613  66.170   2.412  1.00  0.00     0.334 C 
HETATM    4  O1  UNL     1      29.919  65.542   3.448  1.00  0.00    -0.247 OA
HETATM    5  N2  UNL     1      30.496  67.146   1.907  1.00  0.00    -0.141 N 
ATOM      6  H2  UNL     1      30.150  68.071   1.654  1.00  0.00     0.189 HD
HETATM    7  C4  UNL     1      31.741  66.858   1.769  1.00  0.00     0.682 C 
HETATM    8  N3  UNL     1      32.572  67.891   1.254  1.00  0.00    -0.197 N 
ATOM      9  H3  UNL     1      33.317  67.681   0.590  1.00  0.00     0.183 HD
HETATM   10  C5  UNL     1      32.360  69.101   1.648  1.00  0.00     0.176 C 
HETATM   11  N5  UNL     1      32.212  65.590   2.115  1.00  0.00    -0.218 N 
ATOM     12  H5  UNL     1      31.687  64.756   1.850  1.00  0.00     0.178 HD
ENDROOT
BRANCH  11  13
HETATM   13  C7  UNL     1      33.452  65.469   2.854  1.00  0.00     0.036 C 
HETATM   14  C8  UNL     1      33.398  64.147   3.593  1.00  0.00     0.038 C 
HETATM   15  C9  UNL     1      34.635  65.491   1.884  1.00  0.00     0.038 C 
HETATM   16  C10 UNL     1      33.672  66.579   3.834  1.00  0.00     0.038 C 
ENDBRANCH  11  13
BRANCH  10  17
HETATM   17  C6  UNL     1      33.183  70.196   1.150  1.00  0.00     0.270 C 
HETATM   18  N4  UNL     1      34.586  70.194   1.318  1.00  0.00    -0.057 NA
HETATM   19  O2  UNL     1      32.647  71.150   0.568  1.00  0.00    -0.270 OA
ENDBRANCH  10  17
BRANCH   1  20
HETATM   20  C2  UNL     1      27.489  64.888   2.295  1.00  0.00     0.120 C 
HETATM   21  C1  UNL     1      26.245  65.528   2.846  1.00  0.00     0.026 C 
ENDBRANCH   1  20
TORSDOF 3
ENDMDL
MODEL 5
REMARK VINA RESULT: -6.549663354      4.653      6.434
REMARK  3 active torsions:
REMARK  status: ('A' for Active; 'I' for Inactive)
REMARK    1  A    between atoms: C2_2  and  N1_3 
REMARK       I    between atoms: N1_3  and  C3_5 
REMARK       I    between atoms: C3_5  and  N2_7 
REMARK       I    between atoms: C4_9  and  N3_10 
REMARK       I    between atoms: C4_9  and  N5_16 
REMARK    2  A    between atoms: C5_12  and  C6_13 
REMARK    3  A    between atoms: N5_16  and  C7_18 
ROOT
HETATM    1  N1  UNL     1      19.127  63.595   6.100  1.00  0.00    -0.343 N 
ATOM      2  H1  UNL     1      18.234  63.260   6.463  1.00  0.00     0.164 HD
HETATM    3  C3  UNL     1      19.866  64.543   6.823  1.00  0.00     0.334 C 
HETATM    4  O1  UNL     1      20.960  64.953   6.381  1.00  0.00    -0.247 OA
HETATM    5  N2  UNL     1      19.383  65.039   8.051  1.00  0.00    -0.141 N 
ATOM      6  H2  UNL     1      19.045  64.398   8.768  1.00  0.00     0.189 HD
HETATM    7  C4  UNL     1      19.374  66.308   8.258  1.00  0.00     0.682 C 
HETATM    8  N3  UNL     1      18.874  66.735   9.519  1.00  0.00    -0.197 N 
ATOM      9  H3  UNL     1      18.293  67.570   9.595  1.00  0.00     0.183 HD
HETATM   10  C5  UNL     1      19.174  66.041  10.564  1.00  0.00     0.176 C 
HETATM   11  N5  UNL     1      19.836  67.184   7.274  1.00  0.00    -0.218 N 
ATOM     12  H5  UNL     1      19.575  67.045   6.297  1.00  0.00     0.178 HD
ENDROOT
BRANCH  11  13
HETATM   13  C7  UNL     1      20.687  68.293   7.651  1.00  0.00     0.036 C 
HETATM   14  C8  UNL     1      21.818  67.719   8.481  1.00  0.00     0.038 C 
HETATM   15  C9  UNL     1      21.236  68.973   6.396  1.00  0.00     0.038 C 
HETATM   16  C10 UNL     1      19.975  69.347   8.442  1.00  0.00     0.038 C 
ENDBRANCH  11  13
BRANCH  10  17
HETATM   17  C6  UNL     1      18.688  66.436  11.879  1.00  0.00     0.270 C 
HETATM   18  N4  UNL     1      17.412  66.040  12.339  1.00  0.00    -0.057 NA
HETATM   19  O2  UNL     1      19.403  67.132  12.614  1.00  0.00    -0.270 OA
ENDBRANCH  10  17
BRANCH   1  20
HETATM   20  C2  UNL     1      19.637  63.086   4.824  1.00  0.00     0.120 C 
HETATM   21  C1  UNL     1      18.504  62.812   3.874  1.00  0.00     0.026 C 
ENDBRANCH   1  20
TORSDOF 3
ENDMDL
