MODEL 1
REMARK VINA RESULT: -6.141709202      0.000      0.000
REMARK  5 active torsions:
REMARK  status: ('A' for Active; 'I' for Inactive)
REMARK    1  A    between atoms: C2_2  and  N1_3 
REMARK    2  A    between atoms: C8_9  and  N2_10 
REMARK    3  A    between atoms: N2_10  and  C9_12 
REMARK    4  A    between atoms: C9_12  and  N3_14 
REMARK    5  A    between atoms: N3_14  and  N4_16 
ROOT
HETATM    1  N1  UNL     1      22.904  63.766   8.626  1.00  0.00    -0.067 N 
HETATM    2  C3  UNL     1      22.682  65.020   7.930  1.00  0.00     0.238 C 
HETATM    3  C4  UNL     1      23.938  65.724   7.540  1.00  0.00     0.034 C 
HETATM    4  C5  UNL     1      25.190  65.044   7.940  1.00  0.00     0.011 C 
HETATM    5  C6  UNL     1      25.103  63.597   7.511  1.00  0.00     0.034 C 
HETATM    6  C7  UNL     1      23.801  62.961   7.854  1.00  0.00     0.238 C 
HETATM    7  C8  UNL     1      25.505  65.051   9.425  1.00  0.00     0.089 C 
HETATM    8  C10 UNL     1      24.156  65.286  10.092  1.00  0.00     0.053 C 
HETATM    9  C11 UNL     1      23.409  63.994   9.991  1.00  0.00     0.239 C 
ENDROOT
BRANCH   7  10
HETATM   10  N2  UNL     1      26.462  66.058   9.765  1.00  0.00    -0.361 N 
ATOM     11  H2  UNL     1      26.240  66.998   9.436  1.00  0.00     0.162 HD
BRANCH  10  12
HETATM   12  C9  UNL     1      27.647  65.944  10.478  1.00  0.00     0.186 C 
HETATM   13  S1  UNL     1      28.780  64.845   9.939  1.00  0.00    -0.040 SA
BRANCH  12  14
HETATM   14  N3  UNL     1      28.017  66.656  11.622  1.00  0.00    -0.283 N 
ATOM     15  H3  UNL     1      28.966  67.031  11.637  1.00  0.00     0.188 HD
BRANCH  14  16
HETATM   16  N4  UNL     1      27.236  66.906  12.737  1.00  0.00    -0.343 N 
ATOM     17  H42 UNL     1      27.526  66.429  13.591  1.00  0.00     0.176 HD
ATOM     18  H41 UNL     1      26.414  67.508  12.787  1.00  0.00     0.176 HD
ENDBRANCH  14  16
ENDBRANCH  12  14
ENDBRANCH  10  12
ENDBRANCH   7  10
BRANCH   1  19
HETATM   19  C2  UNL     1      21.657  63.100   8.808  1.00  0.00     0.233 C 
HETATM   20  C1  UNL     1      21.683  61.944   9.761  1.00  0.00     0.035 C 
ENDBRANCH   1  19
TORSDOF 5
ENDMDL
MODEL 2
REMARK VINA RESULT: -6.121639409      6.270      7.749
REMARK  5 active torsions:
REMARK  status: ('A' for Active; 'I' for Inactive)
REMARK    1  A    between atoms: C2_2  and  N1_3 
REMARK    2  A    between atoms: C8_9  and  N2_10 
REMARK    3  A    between atoms: N2_10  and  C9_12 
REMARK    4  A    between atoms: C9_12  and  N3_14 
REMARK    5  A    between atoms: N3_14  and  N4_16 
ROOT
HETATM    1  N1  UNL     1      18.777  68.453   5.930  1.00  0.00    -0.067 N 
HETATM    2  C3  UNL     1      19.097  67.040   5.834  1.00  0.00     0.238 C 
HETATM    3  C4  UNL     1      18.874  66.284   7.100  1.00  0.00     0.034 C 
HETATM    4  C5  UNL     1      18.388  67.094   8.239  1.00  0.00     0.011 C 
HETATM    5  C6  UNL     1      17.213  67.921   7.767  1.00  0.00     0.034 C 
HETATM    6  C7  UNL     1      17.456  68.593   6.461  1.00  0.00     0.238 C 
HETATM    7  C8  UNL     1      19.392  68.055   8.849  1.00  0.00     0.089 C 
HETATM    8  C10 UNL     1      20.420  68.270   7.745  1.00  0.00     0.053 C 
HETATM    9  C11 UNL     1      19.774  69.172   6.742  1.00  0.00     0.239 C 
ENDROOT
BRANCH   7  10
HETATM   10  N2  UNL     1      19.979  67.530  10.043  1.00  0.00    -0.361 N 
ATOM     11  H2  UNL     1      20.955  67.784  10.197  1.00  0.00     0.162 HD
BRANCH  10  12
HETATM   12  C9  UNL     1      19.415  66.727  11.023  1.00  0.00     0.186 C 
HETATM   13  S1  UNL     1      19.921  65.140  11.120  1.00  0.00    -0.040 SA
BRANCH  12  14
HETATM   14  N3  UNL     1      18.450  67.093  11.965  1.00  0.00    -0.283 N 
ATOM     15  H3  UNL     1      18.704  66.978  12.946  1.00  0.00     0.188 HD
BRANCH  14  16
HETATM   16  N4  UNL     1      17.185  67.594  11.709  1.00  0.00    -0.343 N 
ATOM     17  H42 UNL     1      16.426  66.913  11.757  1.00  0.00     0.176 HD
ATOM     18  H41 UNL     1      16.941  68.558  11.482  1.00  0.00     0.176 HD
ENDBRANCH  14  16
ENDBRANCH  12  14
ENDBRANCH  10  12
ENDBRANCH   7  10
BRANCH   1  19
HETATM   19  C2  UNL     1      18.868  69.046   4.638  1.00  0.00     0.233 C 
HETATM   20  C1  UNL     1      20.261  69.327   4.160  1.00  0.00     0.035 C 
ENDBRANCH   1  19
TORSDOF 5
ENDMDL
MODEL 3
REMARK VINA RESULT: -6.097392217      3.888      6.353
REMARK  5 active torsions:
REMARK  status: ('A' for Active; 'I' for Inactive)
REMARK    1  A    between atoms: C2_2  and  N1_3 
REMARK    2  A    between atoms: C8_9  and  N2_10 
REMARK    3  A    between atoms: N2_10  and  C9_12 
REMARK    4  A    between atoms: C9_12  and  N3_14 
REMARK    5  A    between atoms: N3_14  and  N4_16 
ROOT
HETATM    1  N1  UNL     1      24.228  64.963   8.247  1.00  0.00    -0.067 N 
HETATM    2  C3  UNL     1      23.494  64.004   9.051  1.00  0.00     0.238 C 
HETATM    3  C4  UNL     1      23.244  62.705   8.362  1.00  0.00     0.034 C 
HETATM    4  C5  UNL     1      23.762  62.617   6.979  1.00  0.00     0.011 C 
HETATM    5  C6  UNL     1      25.202  63.078   6.981  1.00  0.00     0.034 C 
HETATM    6  C7  UNL     1      25.414  64.337   7.747  1.00  0.00     0.238 C 
HETATM    7  C8  UNL     1      23.030  63.447   5.940  1.00  0.00     0.089 C 
HETATM    8  C10 UNL     1      22.329  64.528   6.753  1.00  0.00     0.053 C 
HETATM    9  C11 UNL     1      23.392  65.500   7.159  1.00  0.00     0.239 C 
ENDROOT
BRANCH   7  10
HETATM   10  N2  UNL     1      22.111  62.660   5.176  1.00  0.00    -0.361 N 
ATOM     11  H2  UNL     1      22.029  61.685   5.464  1.00  0.00     0.162 HD
BRANCH  10  12
HETATM   12  C9  UNL     1      21.317  63.030   4.101  1.00  0.00     0.186 C 
HETATM   13  S1  UNL     1      19.663  63.041   4.319  1.00  0.00    -0.040 SA
BRANCH  12  14
HETATM   14  N3  UNL     1      21.742  63.403   2.823  1.00  0.00    -0.283 N 
ATOM     15  H3  UNL     1      21.040  63.378   2.084  1.00  0.00     0.188 HD
BRANCH  14  16
HETATM   16  N4  UNL     1      23.015  63.803   2.453  1.00  0.00    -0.343 N 
ATOM     17  H42 UNL     1      23.586  64.195   3.203  1.00  0.00     0.176 HD
ATOM     18  H41 UNL     1      23.430  63.747   1.523  1.00  0.00     0.176 HD
ENDBRANCH  14  16
ENDBRANCH  12  14
ENDBRANCH  10  12
ENDBRANCH   7  10
BRANCH   1  19
HETATM   19  C2  UNL     1      24.554  66.098   9.045  1.00  0.00     0.233 C 
HETATM   20  C1  UNL     1      25.742  65.928   9.943  1.00  0.00     0.035 C 
ENDBRANCH   1  19
TORSDOF 5
ENDMDL
MODEL 4
REMARK VINA RESULT: -6.050781970      1.242      1.495
REMARK  5 active torsions:
REMARK  status: ('A' for Active; 'I' for Inactive)
REMARK    1  A    between atoms: C2_2  and  N1_3 
REMARK    2  A    between atoms: C8_9  and  N2_10 
REMARK    3  A    between atoms: N2_10  and  C9_12 
REMARK    4  A    between atoms: C9_12  and  N3_14 
REMARK    5  A    between atoms: N3_14  and  N4_16 
ROOT
HETATM    1  N1  UNL     1      22.396  64.844   7.893  1.00  0.00    -0.067 N 
HETATM    2  C3  UNL     1      23.012  65.352   6.680  1.00  0.00     0.238 C 
HETATM    3  C4  UNL     1      24.460  65.017   6.555  1.00  0.00     0.034 C 
HETATM    4  C5  UNL     1      25.028  64.249   7.684  1.00  0.00     0.011 C 
HETATM    5  C6  UNL     1      24.118  63.074   7.965  1.00  0.00     0.034 C 
HETATM    6  C7  UNL     1      22.677  63.446   8.004  1.00  0.00     0.238 C 
HETATM    7  C8  UNL     1      25.194  65.007   8.988  1.00  0.00     0.089 C 
HETATM    8  C10 UNL     1      24.217  66.169   8.870  1.00  0.00     0.053 C 
HETATM    9  C11 UNL     1      22.852  65.591   9.077  1.00  0.00     0.239 C 
ENDROOT
BRANCH   7  10
HETATM   10  N2  UNL     1      26.540  65.446   9.185  1.00  0.00    -0.361 N 
ATOM     11  H2  UNL     1      27.108  65.504   8.339  1.00  0.00     0.162 HD
BRANCH  10  12
HETATM   12  C9  UNL     1      27.188  65.807  10.358  1.00  0.00     0.186 C 
HETATM   13  S1  UNL     1      28.854  65.731  10.386  1.00  0.00    -0.040 SA
BRANCH  12  14
HETATM   14  N3  UNL     1      26.600  66.237  11.550  1.00  0.00    -0.283 N 
ATOM     15  H3  UNL     1      25.601  66.057  11.657  1.00  0.00     0.188 HD
BRANCH  14  16
HETATM   16  N4  UNL     1      27.227  66.883  12.602  1.00  0.00    -0.343 N 
ATOM     17  H42 UNL     1      28.155  66.531  12.841  1.00  0.00     0.176 HD
ATOM     18  H41 UNL     1      26.860  67.660  13.152  1.00  0.00     0.176 HD
ENDBRANCH  14  16
ENDBRANCH  12  14
ENDBRANCH  10  12
ENDBRANCH   7  10
BRANCH   1  19
HETATM   19  C2  UNL     1      20.990  65.075   7.840  1.00  0.00     0.233 C 
HETATM   20  C1  UNL     1      20.153  63.863   7.563  1.00  0.00     0.035 C 
ENDBRANCH   1  19
TORSDOF 5
ENDMDL
MODEL 5
REMARK VINA RESULT: -6.035173822      1.289      2.726
REMARK  5 active torsions:
REMARK  status: ('A' for Active; 'I' for Inactive)
REMARK    1  A    between atoms: C2_2  and  N1_3 
REMARK    2  A    between atoms: C8_9  and  N2_10 
REMARK    3  A    between atoms: N2_10  and  C9_12 
REMARK    4  A    between atoms: C9_12  and  N3_14 
REMARK    5  A    between atoms: N3_14  and  N4_16 
ROOT
HETATM    1  N1  UNL     1      22.994  65.610   7.919  1.00  0.00    -0.067 N 
HETATM    2  C3  UNL     1      22.766  64.504   8.831  1.00  0.00     0.238 C 
HETATM    3  C4  UNL     1      23.641  64.528  10.039  1.00  0.00     0.034 C 
HETATM    4  C5  UNL     1      24.601  65.651  10.098  1.00  0.00     0.011 C 
HETATM    5  C6  UNL     1      23.849  66.935   9.822  1.00  0.00     0.034 C 
HETATM    6  C7  UNL     1      22.931  66.836   8.655  1.00  0.00     0.238 C 
HETATM    7  C8  UNL     1      25.756  65.592   9.115  1.00  0.00     0.089 C 
HETATM    8  C10 UNL     1      25.259  64.667   8.011  1.00  0.00     0.053 C 
HETATM    9  C11 UNL     1      24.277  65.462   7.210  1.00  0.00     0.239 C 
ENDROOT
BRANCH   7  10
HETATM   10  N2  UNL     1      26.957  65.113   9.726  1.00  0.00    -0.361 N 
ATOM     11  H2  UNL     1      27.117  64.109   9.641  1.00  0.00     0.162 HD
BRANCH  10  12
HETATM   12  C9  UNL     1      27.934  65.812  10.418  1.00  0.00     0.186 C 
HETATM   13  S1  UNL     1      29.521  65.331  10.231  1.00  0.00    -0.040 SA
BRANCH  12  14
HETATM   14  N3  UNL     1      27.749  66.900  11.275  1.00  0.00    -0.283 N 
ATOM     15  H3  UNL     1      27.999  67.818  10.907  1.00  0.00     0.188 HD
BRANCH  14  16
HETATM   16  N4  UNL     1      27.263  66.866  12.571  1.00  0.00    -0.343 N 
ATOM     17  H42 UNL     1      27.973  66.828  13.303  1.00  0.00     0.176 HD
ATOM     18  H41 UNL     1      26.285  66.874  12.860  1.00  0.00     0.176 HD
ENDBRANCH  14  16
ENDBRANCH  12  14
ENDBRANCH  10  12
ENDBRANCH   7  10
BRANCH   1  19
HETATM   19  C2  UNL     1      22.008  65.586   6.891  1.00  0.00     0.233 C 
HETATM   20  C1  UNL     1      22.335  66.392   5.671  1.00  0.00     0.035 C 
ENDBRANCH   1  19
TORSDOF 5
ENDMDL
