MODEL 1
REMARK VINA RESULT: -6.889252508      0.000      0.000
REMARK  12 active torsions:
REMARK  status: ('A' for Active; 'I' for Inactive)
REMARK    1  A    between atoms: C2_2  and  C3_3 
REMARK    2  A    between atoms: C4_4  and  C5_5 
REMARK    3  A    between atoms: C5_5  and  C6_6 
REMARK    4  A    between atoms: C5_5  and  N1_10 
REMARK    5  A    between atoms: C6_6  and  C7_7 
REMARK    6  A    between atoms: C7_7  and  C8_8 
REMARK    7  A    between atoms: N1_10  and  C10_12 
REMARK    8  A    between atoms: C10_12  and  C11_13 
REMARK    9  A    between atoms: C13_16  and  N2_17 
REMARK   10  A    between atoms: N2_17  and  C14_19 
REMARK   11  A    between atoms: C14_19  and  C15_20 
REMARK   12  A    between atoms: C15_20  and  O1_21 
ROOT
HETATM    1  C10 UNL     1      29.259   8.063  13.294  1.00  0.00     0.154 C 
ENDROOT
BRANCH   1   2
HETATM    2  N1  UNL     1      29.507   6.688  13.636  1.00  0.00    -0.410 N 
ATOM      3  H1  UNL     1      28.765   5.989  13.647  1.00  0.00     0.154 HD
BRANCH   2   4
HETATM    4  C5  UNL     1      30.865   6.367  13.959  1.00  0.00     0.099 C 
BRANCH   4   5
HETATM    5  C4  UNL     1      31.035   4.899  13.752  1.00  0.00    -0.006 C 
HETATM    6  C3  UNL     1      32.051   4.361  13.130  1.00  0.00    -0.029 C 
BRANCH   6   7
HETATM    7  C2  UNL     1      33.192   5.104  12.532  1.00  0.00     0.022 C 
HETATM    8  C1  UNL     1      34.340   4.170  12.183  1.00  0.00     0.009 C 
ENDBRANCH   6   7
ENDBRANCH   4   5
BRANCH   4   9
HETATM    9  C6  UNL     1      31.161   6.779  15.363  1.00  0.00     0.029 C 
BRANCH   9  10
HETATM   10  C7  UNL     1      32.302   7.765  15.354  1.00  0.00     0.002 C 
BRANCH  10  11
HETATM   11  C8  UNL     1      31.767   9.059  15.954  1.00  0.00    -0.004 C 
HETATM   12  C9  UNL     1      31.024   8.678  17.213  1.00  0.00     0.005 C 
ENDBRANCH  10  11
ENDBRANCH   9  10
ENDBRANCH   4   9
ENDBRANCH   2   4
ENDBRANCH   1   2
BRANCH   1  13
HETATM   13  C11 UNL     1      27.931   8.386  13.957  1.00  0.00    -0.032 A 
HETATM   14  C12 UNL     1      26.917   8.930  13.227  1.00  0.00     0.060 A 
HETATM   15  S1  UNL     1      25.668   9.109  14.372  1.00  0.00    -0.084 SA
HETATM   16  C13 UNL     1      26.464   8.492  15.746  1.00  0.00     0.070 A 
HETATM   17  C17 UNL     1      27.700   8.157  15.267  1.00  0.00     0.046 A 
BRANCH  16  18
HETATM   18  N2  UNL     1      25.970   8.348  17.095  1.00  0.00    -0.382 N 
ATOM     19  H2  UNL     1      25.396   7.542  17.342  1.00  0.00     0.160 HD
BRANCH  18  20
HETATM   20  C14 UNL     1      26.281   9.326  18.082  1.00  0.00     0.146 C 
BRANCH  20  21
HETATM   21  C15 UNL     1      25.265  10.413  18.247  1.00  0.00     0.186 C 
BRANCH  21  22
HETATM   22  O1  UNL     1      24.024   9.901  18.600  1.00  0.00    -0.394 OA
HETATM   23  C16 UNL     1      23.019  10.752  18.169  1.00  0.00     0.201 C 
ENDBRANCH  21  22
ENDBRANCH  20  21
ENDBRANCH  18  20
ENDBRANCH  16  18
ENDBRANCH   1  13
TORSDOF 12
ENDMDL
MODEL 2
REMARK VINA RESULT: -6.832432787      1.337      1.672
REMARK  12 active torsions:
REMARK  status: ('A' for Active; 'I' for Inactive)
REMARK    1  A    between atoms: C2_2  and  C3_3 
REMARK    2  A    between atoms: C4_4  and  C5_5 
REMARK    3  A    between atoms: C5_5  and  C6_6 
REMARK    4  A    between atoms: C5_5  and  N1_10 
REMARK    5  A    between atoms: C6_6  and  C7_7 
REMARK    6  A    between atoms: C7_7  and  C8_8 
REMARK    7  A    between atoms: N1_10  and  C10_12 
REMARK    8  A    between atoms: C10_12  and  C11_13 
REMARK    9  A    between atoms: C13_16  and  N2_17 
REMARK   10  A    between atoms: N2_17  and  C14_19 
REMARK   11  A    between atoms: C14_19  and  C15_20 
REMARK   12  A    between atoms: C15_20  and  O1_21 
ROOT
HETATM    1  C10 UNL     1      29.268   8.433  13.732  1.00  0.00     0.154 C 
ENDROOT
BRANCH   1   2
HETATM    2  N1  UNL     1      29.479   7.069  13.327  1.00  0.00    -0.410 N 
ATOM      3  H1  UNL     1      28.818   6.570  12.732  1.00  0.00     0.154 HD
BRANCH   2   4
HETATM    4  C5  UNL     1      30.680   6.458  13.815  1.00  0.00     0.099 C 
BRANCH   4   5
HETATM    5  C4  UNL     1      30.502   4.980  13.705  1.00  0.00    -0.006 C 
HETATM    6  C3  UNL     1      31.313   4.194  13.048  1.00  0.00    -0.029 C 
BRANCH   6   7
HETATM    7  C2  UNL     1      32.530   4.625  12.309  1.00  0.00     0.022 C 
HETATM    8  C1  UNL     1      33.392   3.435  11.919  1.00  0.00     0.009 C 
ENDBRANCH   6   7
ENDBRANCH   4   5
BRANCH   4   9
HETATM    9  C6  UNL     1      30.934   6.895  15.220  1.00  0.00     0.029 C 
BRANCH   9  10
HETATM   10  C7  UNL     1      32.390   7.259  15.363  1.00  0.00     0.002 C 
BRANCH  10  11
HETATM   11  C8  UNL     1      32.437   8.619  16.046  1.00  0.00    -0.004 C 
HETATM   12  C9  UNL     1      31.241   8.683  16.966  1.00  0.00     0.005 C 
ENDBRANCH  10  11
ENDBRANCH   9  10
ENDBRANCH   4   9
ENDBRANCH   2   4
ENDBRANCH   1   2
BRANCH   1  13
HETATM   13  C11 UNL     1      27.851   8.747  13.285  1.00  0.00    -0.032 A 
HETATM   14  C12 UNL     1      27.582   8.968  11.968  1.00  0.00     0.060 A 
HETATM   15  S1  UNL     1      25.905   9.273  11.961  1.00  0.00    -0.084 SA
HETATM   16  C13 UNL     1      25.589   9.112  13.627  1.00  0.00     0.070 A 
HETATM   17  C17 UNL     1      26.818   8.821  14.152  1.00  0.00     0.046 A 
BRANCH  16  18
HETATM   18  N2  UNL     1      24.336   9.246  14.332  1.00  0.00    -0.382 N 
ATOM     19  H2  UNL     1      23.525   9.640  13.855  1.00  0.00     0.160 HD
BRANCH  18  20
HETATM   20  C14 UNL     1      24.228   8.831  15.689  1.00  0.00     0.146 C 
BRANCH  20  21
HETATM   21  C15 UNL     1      24.104   9.939  16.689  1.00  0.00     0.186 C 
BRANCH  21  22
HETATM   22  O1  UNL     1      24.620   9.570  17.924  1.00  0.00    -0.394 OA
HETATM   23  C16 UNL     1      25.965   9.260  17.803  1.00  0.00     0.201 C 
ENDBRANCH  21  22
ENDBRANCH  20  21
ENDBRANCH  18  20
ENDBRANCH  16  18
ENDBRANCH   1  13
TORSDOF 12
ENDMDL
MODEL 3
REMARK VINA RESULT: -6.742171801      1.163      1.354
REMARK  12 active torsions:
REMARK  status: ('A' for Active; 'I' for Inactive)
REMARK    1  A    between atoms: C2_2  and  C3_3 
REMARK    2  A    between atoms: C4_4  and  C5_5 
REMARK    3  A    between atoms: C5_5  and  C6_6 
REMARK    4  A    between atoms: C5_5  and  N1_10 
REMARK    5  A    between atoms: C6_6  and  C7_7 
REMARK    6  A    between atoms: C7_7  and  C8_8 
REMARK    7  A    between atoms: N1_10  and  C10_12 
REMARK    8  A    between atoms: C10_12  and  C11_13 
REMARK    9  A    between atoms: C13_16  and  N2_17 
REMARK   10  A    between atoms: N2_17  and  C14_19 
REMARK   11  A    between atoms: C14_19  and  C15_20 
REMARK   12  A    between atoms: C15_20  and  O1_21 
ROOT
HETATM    1  C10 UNL     1      28.833   8.586  13.196  1.00  0.00     0.154 C 
ENDROOT
BRANCH   1   2
HETATM    2  N1  UNL     1      29.111   7.184  13.357  1.00  0.00    -0.410 N 
ATOM      3  H1  UNL     1      28.448   6.462  13.076  1.00  0.00     0.154 HD
BRANCH   2   4
HETATM    4  C5  UNL     1      30.383   6.869  13.938  1.00  0.00     0.099 C 
BRANCH   4   5
HETATM    5  C4  UNL     1      30.383   5.407  14.239  1.00  0.00    -0.006 C 
HETATM    6  C3  UNL     1      31.220   4.553  13.712  1.00  0.00    -0.029 C 
BRANCH   6   7
HETATM    7  C2  UNL     1      32.295   4.881  12.738  1.00  0.00     0.022 C 
HETATM    8  C1  UNL     1      32.796   3.635  12.026  1.00  0.00     0.009 C 
ENDBRANCH   6   7
ENDBRANCH   4   5
BRANCH   4   9
HETATM    9  C6  UNL     1      30.600   7.700  15.159  1.00  0.00     0.029 C 
BRANCH   9  10
HETATM   10  C7  UNL     1      32.080   7.793  15.431  1.00  0.00     0.002 C 
BRANCH  10  11
HETATM   11  C8  UNL     1      32.251   8.757  16.598  1.00  0.00    -0.004 C 
HETATM   12  C9  UNL     1      30.943   8.758  17.354  1.00  0.00     0.005 C 
ENDBRANCH  10  11
ENDBRANCH   9  10
ENDBRANCH   4   9
ENDBRANCH   2   4
ENDBRANCH   1   2
BRANCH   1  13
HETATM   13  C11 UNL     1      27.392   8.742  13.649  1.00  0.00    -0.032 A 
HETATM   14  C12 UNL     1      26.418   9.036  12.743  1.00  0.00     0.060 A 
HETATM   15  S1  UNL     1      25.009   9.110  13.699  1.00  0.00    -0.084 SA
HETATM   16  C13 UNL     1      25.691   8.767  15.222  1.00  0.00     0.070 A 
HETATM   17  C17 UNL     1      27.019   8.601  14.940  1.00  0.00     0.046 A 
BRANCH  16  18
HETATM   18  N2  UNL     1      25.042   8.669  16.507  1.00  0.00    -0.382 N 
ATOM     19  H2  UNL     1      24.595   7.796  16.785  1.00  0.00     0.160 HD
BRANCH  18  20
HETATM   20  C14 UNL     1      25.023   9.787  17.389  1.00  0.00     0.146 C 
BRANCH  20  21
HETATM   21  C15 UNL     1      25.851   9.637  18.628  1.00  0.00     0.186 C 
BRANCH  21  22
HETATM   22  O1  UNL     1      26.881  10.568  18.668  1.00  0.00    -0.394 OA
HETATM   23  C16 UNL     1      26.395  11.825  18.348  1.00  0.00     0.201 C 
ENDBRANCH  21  22
ENDBRANCH  20  21
ENDBRANCH  18  20
ENDBRANCH  16  18
ENDBRANCH   1  13
TORSDOF 12
ENDMDL
MODEL 4
REMARK VINA RESULT: -6.676677369      1.397      3.729
REMARK  12 active torsions:
REMARK  status: ('A' for Active; 'I' for Inactive)
REMARK    1  A    between atoms: C2_2  and  C3_3 
REMARK    2  A    between atoms: C4_4  and  C5_5 
REMARK    3  A    between atoms: C5_5  and  C6_6 
REMARK    4  A    between atoms: C5_5  and  N1_10 
REMARK    5  A    between atoms: C6_6  and  C7_7 
REMARK    6  A    between atoms: C7_7  and  C8_8 
REMARK    7  A    between atoms: N1_10  and  C10_12 
REMARK    8  A    between atoms: C10_12  and  C11_13 
REMARK    9  A    between atoms: C13_16  and  N2_17 
REMARK   10  A    between atoms: N2_17  and  C14_19 
REMARK   11  A    between atoms: C14_19  and  C15_20 
REMARK   12  A    between atoms: C15_20  and  O1_21 
ROOT
HETATM    1  C10 UNL     1      29.243   8.457  13.171  1.00  0.00     0.154 C 
ENDROOT
BRANCH   1   2
HETATM    2  N1  UNL     1      29.279   7.044  13.439  1.00  0.00    -0.410 N 
ATOM      3  H1  UNL     1      28.805   6.365  12.843  1.00  0.00     0.154 HD
BRANCH   2   4
HETATM    4  C5  UNL     1      30.023   6.654  14.600  1.00  0.00     0.099 C 
BRANCH   4   5
HETATM    5  C4  UNL     1      31.175   7.595  14.725  1.00  0.00    -0.006 C 
HETATM    6  C3  UNL     1      31.355   8.398  15.740  1.00  0.00    -0.029 C 
BRANCH   6   7
HETATM    7  C2  UNL     1      30.462   8.514  16.924  1.00  0.00     0.022 C 
HETATM    8  C1  UNL     1      31.226   8.990  18.149  1.00  0.00     0.009 C 
ENDBRANCH   6   7
ENDBRANCH   4   5
BRANCH   4   9
HETATM    9  C6  UNL     1      30.463   5.234  14.465  1.00  0.00     0.029 C 
BRANCH   9  10
HETATM   10  C7  UNL     1      31.659   5.177  13.550  1.00  0.00     0.002 C 
BRANCH  10  11
HETATM   11  C8  UNL     1      31.388   4.065  12.544  1.00  0.00    -0.004 C 
HETATM   12  C9  UNL     1      32.736   3.579  12.064  1.00  0.00     0.005 C 
ENDBRANCH  10  11
ENDBRANCH   9  10
ENDBRANCH   4   9
ENDBRANCH   2   4
ENDBRANCH   1   2
BRANCH   1  13
HETATM   13  C11 UNL     1      27.770   8.770  12.978  1.00  0.00    -0.032 A 
HETATM   14  C12 UNL     1      27.290   9.064  11.737  1.00  0.00     0.060 A 
HETATM   15  S1  UNL     1      25.632   9.338  12.018  1.00  0.00    -0.084 SA
HETATM   16  C13 UNL     1      25.590   9.072  13.700  1.00  0.00     0.070 A 
HETATM   17  C17 UNL     1      26.890   8.774  14.002  1.00  0.00     0.046 A 
BRANCH  16  18
HETATM   18  N2  UNL     1      24.466   9.141  14.603  1.00  0.00    -0.382 N 
ATOM     19  H2  UNL     1      23.543   9.385  14.247  1.00  0.00     0.160 HD
BRANCH  18  20
HETATM   20  C14 UNL     1      24.641   8.868  15.990  1.00  0.00     0.146 C 
BRANCH  20  21
HETATM   21  C15 UNL     1      24.445  10.040  16.902  1.00  0.00     0.186 C 
BRANCH  21  22
HETATM   22  O1  UNL     1      24.459   9.655  18.236  1.00  0.00    -0.394 OA
HETATM   23  C16 UNL     1      25.761   9.636  18.710  1.00  0.00     0.201 C 
ENDBRANCH  21  22
ENDBRANCH  20  21
ENDBRANCH  18  20
ENDBRANCH  16  18
ENDBRANCH   1  13
TORSDOF 12
ENDMDL
MODEL 5
REMARK VINA RESULT: -6.413099532      0.866      3.582
REMARK  12 active torsions:
REMARK  status: ('A' for Active; 'I' for Inactive)
REMARK    1  A    between atoms: C2_2  and  C3_3 
REMARK    2  A    between atoms: C4_4  and  C5_5 
REMARK    3  A    between atoms: C5_5  and  C6_6 
REMARK    4  A    between atoms: C5_5  and  N1_10 
REMARK    5  A    between atoms: C6_6  and  C7_7 
REMARK    6  A    between atoms: C7_7  and  C8_8 
REMARK    7  A    between atoms: N1_10  and  C10_12 
REMARK    8  A    between atoms: C10_12  and  C11_13 
REMARK    9  A    between atoms: C13_16  and  N2_17 
REMARK   10  A    between atoms: N2_17  and  C14_19 
REMARK   11  A    between atoms: C14_19  and  C15_20 
REMARK   12  A    between atoms: C15_20  and  O1_21 
ROOT
HETATM    1  C10 UNL     1      29.428   8.003  13.679  1.00  0.00     0.154 C 
ENDROOT
BRANCH   1   2
HETATM    2  N1  UNL     1      29.680   6.798  14.423  1.00  0.00    -0.410 N 
ATOM      3  H1  UNL     1      29.012   6.028  14.452  1.00  0.00     0.154 HD
BRANCH   2   4
HETATM    4  C5  UNL     1      30.930   6.753  15.121  1.00  0.00     0.099 C 
BRANCH   4   5
HETATM    5  C4  UNL     1      31.476   8.142  15.144  1.00  0.00    -0.006 C 
HETATM    6  C3  UNL     1      31.292   8.984  16.126  1.00  0.00    -0.029 C 
BRANCH   6   7
HETATM    7  C2  UNL     1      30.521   8.711  17.368  1.00  0.00     0.022 C 
HETATM    8  C1  UNL     1      31.396   8.846  18.604  1.00  0.00     0.009 C 
ENDBRANCH   6   7
ENDBRANCH   4   5
BRANCH   4   9
HETATM    9  C6  UNL     1      31.852   5.792  14.446  1.00  0.00     0.029 C 
BRANCH   9  10
HETATM   10  C7  UNL     1      31.035   4.709  13.789  1.00  0.00     0.002 C 
BRANCH  10  11
HETATM   11  C8  UNL     1      31.812   4.258  12.559  1.00  0.00    -0.004 C 
HETATM   12  C9  UNL     1      33.273   4.495  12.860  1.00  0.00     0.005 C 
ENDBRANCH  10  11
ENDBRANCH   9  10
ENDBRANCH   4   9
ENDBRANCH   2   4
ENDBRANCH   1   2
BRANCH   1  13
HETATM   13  C11 UNL     1      27.997   8.373  14.027  1.00  0.00    -0.032 A 
HETATM   14  C12 UNL     1      27.161   8.853  13.063  1.00  0.00     0.060 A 
HETATM   15  S1  UNL     1      25.706   9.118  13.910  1.00  0.00    -0.084 SA
HETATM   16  C13 UNL     1      26.195   8.614  15.462  1.00  0.00     0.070 A 
HETATM   17  C17 UNL     1      27.499   8.247  15.276  1.00  0.00     0.046 A 
BRANCH  16  18
HETATM   18  N2  UNL     1      25.433   8.576  16.688  1.00  0.00    -0.382 N 
ATOM     19  H2  UNL     1      24.720   7.859  16.820  1.00  0.00     0.160 HD
BRANCH  18  20
HETATM   20  C14 UNL     1      25.672   9.535  17.713  1.00  0.00     0.146 C 
BRANCH  20  21
HETATM   21  C15 UNL     1      24.464  10.284  18.182  1.00  0.00     0.186 C 
BRANCH  21  22
HETATM   22  O1  UNL     1      24.693  11.654  18.211  1.00  0.00    -0.394 OA
HETATM   23  C16 UNL     1      26.045  11.911  18.048  1.00  0.00     0.201 C 
ENDBRANCH  21  22
ENDBRANCH  20  21
ENDBRANCH  18  20
ENDBRANCH  16  18
ENDBRANCH   1  13
TORSDOF 12
ENDMDL
