MODEL 1
REMARK VINA RESULT: -7.618468995      0.000      0.000
REMARK  13 active torsions:
REMARK  status: ('A' for Active; 'I' for Inactive)
REMARK    1  A    between atoms: N1_2  and  C2_4 
REMARK    2  A    between atoms: C2_4  and  C3_5 
REMARK    3  A    between atoms: C2_4  and  C14_16 
REMARK    4  A    between atoms: C3_5  and  C4_6 
REMARK    5  A    between atoms: C4_6  and  C5_7 
REMARK    6  A    between atoms: C5_7  and  C6_8 
REMARK    7  A    between atoms: C6_8  and  C7_9 
REMARK    8  A    between atoms: C7_9  and  C8_10 
REMARK    9  A    between atoms: C14_16  and  C15_17 
REMARK   10  A    between atoms: C15_17  and  C16_18 
REMARK   11  A    between atoms: C16_18  and  O1_19 
REMARK   12  A    between atoms: O1_19  and  N2_20 
REMARK   13  A    between atoms: N3_22  and  O2_24 
ROOT
HETATM    1  C2  UNL     1      31.244   5.956  15.161  1.00  0.00     0.080 C 
ENDROOT
BRANCH   1   2
HETATM    2  N1  UNL     1      31.762   6.998  15.926  1.00  0.00    -0.403 N 
HETATM    3  C1  UNL     1      32.435   8.098  15.566  1.00  0.00     0.112 C 
ATOM      4  H1  UNL     1      31.602   6.908  16.930  1.00  0.00     0.158 HD
ENDBRANCH   1   2
BRANCH   1   5
HETATM    5  C3  UNL     1      32.262   5.153  14.369  1.00  0.00     0.025 C 
BRANCH   5   6
HETATM    6  C4  UNL     1      31.780   4.605  13.086  1.00  0.00     0.002 C 
BRANCH   6   7
HETATM    7  C5  UNL     1      32.654   3.962  12.121  1.00  0.00     0.000 C 
BRANCH   7   8
HETATM    8  C6  UNL     1      34.090   3.972  12.653  1.00  0.00     0.000 C 
BRANCH   8   9
HETATM    9  C7  UNL     1      34.924   4.680  11.684  1.00  0.00     0.004 C 
BRANCH   9  10
HETATM   10  C8  UNL     1      35.550   3.773  10.675  1.00  0.00    -0.014 C 
HETATM   11  C9  UNL     1      36.126   2.489  11.101  1.00  0.00     0.004 C 
HETATM   12  C10 UNL     1      37.595   2.675  11.512  1.00  0.00     0.000 C 
HETATM   13  C11 UNL     1      38.353   3.472  10.504  1.00  0.00     0.000 C 
HETATM   14  C12 UNL     1      37.711   4.847  10.331  1.00  0.00     0.000 C 
HETATM   15  C13 UNL     1      36.372   4.545   9.656  1.00  0.00     0.004 C 
ENDBRANCH   9  10
ENDBRANCH   8   9
ENDBRANCH   7   8
ENDBRANCH   6   7
ENDBRANCH   5   6
ENDBRANCH   1   5
BRANCH   1  16
HETATM   16  C14 UNL     1      30.542   6.777  13.943  1.00  0.00     0.027 C 
BRANCH  16  17
HETATM   17  C15 UNL     1      29.103   6.991  14.191  1.00  0.00     0.031 C 
BRANCH  17  18
HETATM   18  C16 UNL     1      28.806   8.468  13.840  1.00  0.00     0.203 C 
BRANCH  18  19
HETATM   19  O1  UNL     1      29.368   8.395  12.470  1.00  0.00    -0.264 OA
BRANCH  19  20
HETATM   20  N2  UNL     1      28.918   9.204  11.583  1.00  0.00    -0.188 N 
HETATM   21  N3  UNL     1      27.958   9.419  10.889  1.00  0.00    -0.188 N 
ATOM     22  H3  UNL     1      27.930  10.207  10.241  1.00  0.00     0.218 HD
ATOM     23  H2  UNL     1      29.623   9.919  11.402  1.00  0.00     0.218 HD
BRANCH  21  24
HETATM   24  O2  UNL     1      26.871   8.520  11.018  1.00  0.00    -0.268 OA
HETATM   25  C17 UNL     1      25.781   9.204  11.691  1.00  0.00     0.239 C 
ENDBRANCH  21  24
ENDBRANCH  19  20
ENDBRANCH  18  19
ENDBRANCH  17  18
ENDBRANCH  16  17
ENDBRANCH   1  16
TORSDOF 13
ENDMDL
MODEL 2
REMARK VINA RESULT: -7.585068937      0.757      1.305
REMARK  13 active torsions:
REMARK  status: ('A' for Active; 'I' for Inactive)
REMARK    1  A    between atoms: N1_2  and  C2_4 
REMARK    2  A    between atoms: C2_4  and  C3_5 
REMARK    3  A    between atoms: C2_4  and  C14_16 
REMARK    4  A    between atoms: C3_5  and  C4_6 
REMARK    5  A    between atoms: C4_6  and  C5_7 
REMARK    6  A    between atoms: C5_7  and  C6_8 
REMARK    7  A    between atoms: C6_8  and  C7_9 
REMARK    8  A    between atoms: C7_9  and  C8_10 
REMARK    9  A    between atoms: C14_16  and  C15_17 
REMARK   10  A    between atoms: C15_17  and  C16_18 
REMARK   11  A    between atoms: C16_18  and  O1_19 
REMARK   12  A    between atoms: O1_19  and  N2_20 
REMARK   13  A    between atoms: N3_22  and  O2_24 
ROOT
HETATM    1  C2  UNL     1      31.457   5.773  15.151  1.00  0.00     0.080 C 
ENDROOT
BRANCH   1   2
HETATM    2  N1  UNL     1      31.892   6.869  15.893  1.00  0.00    -0.403 N 
HETATM    3  C1  UNL     1      32.436   8.029  15.505  1.00  0.00     0.112 C 
ATOM      4  H1  UNL     1      31.776   6.771  16.902  1.00  0.00     0.158 HD
ENDBRANCH   1   2
BRANCH   1   5
HETATM    5  C3  UNL     1      32.509   5.110  14.279  1.00  0.00     0.025 C 
BRANCH   5   6
HETATM    6  C4  UNL     1      32.143   4.941  12.859  1.00  0.00     0.002 C 
BRANCH   6   7
HETATM    7  C5  UNL     1      32.158   3.655  12.185  1.00  0.00     0.000 C 
BRANCH   7   8
HETATM    8  C6  UNL     1      33.589   3.109  12.167  1.00  0.00     0.000 C 
BRANCH   8   9
HETATM    9  C7  UNL     1      34.306   3.762  11.074  1.00  0.00     0.004 C 
BRANCH   9  10
HETATM   10  C8  UNL     1      35.611   4.354  11.498  1.00  0.00    -0.014 C 
HETATM   11  C9  UNL     1      36.132   5.546  10.813  1.00  0.00     0.004 C 
HETATM   12  C10 UNL     1      36.971   5.135   9.594  1.00  0.00     0.000 C 
HETATM   13  C11 UNL     1      37.943   4.054   9.933  1.00  0.00     0.000 C 
HETATM   14  C12 UNL     1      37.200   2.827  10.457  1.00  0.00     0.000 C 
HETATM   15  C13 UNL     1      36.643   3.282  11.807  1.00  0.00     0.004 C 
ENDBRANCH   9  10
ENDBRANCH   8   9
ENDBRANCH   7   8
ENDBRANCH   6   7
ENDBRANCH   5   6
ENDBRANCH   1   5
BRANCH   1  16
HETATM   16  C14 UNL     1      30.571   6.504  13.997  1.00  0.00     0.027 C 
BRANCH  16  17
HETATM   17  C15 UNL     1      29.146   6.584  14.375  1.00  0.00     0.031 C 
BRANCH  17  18
HETATM   18  C16 UNL     1      28.673   8.015  14.025  1.00  0.00     0.203 C 
BRANCH  18  19
HETATM   19  O1  UNL     1      28.830   7.853  12.560  1.00  0.00    -0.264 OA
BRANCH  19  20
HETATM   20  N2  UNL     1      28.595   8.864  11.807  1.00  0.00    -0.188 N 
HETATM   21  N3  UNL     1      27.748   9.353  11.106  1.00  0.00    -0.188 N 
ATOM     22  H3  UNL     1      27.902  10.231  10.610  1.00  0.00     0.218 HD
ATOM     23  H2  UNL     1      29.417   9.467  11.800  1.00  0.00     0.218 HD
BRANCH  21  24
HETATM   24  O2  UNL     1      26.524   8.645  11.006  1.00  0.00    -0.268 OA
HETATM   25  C17 UNL     1      25.596   9.183  11.983  1.00  0.00     0.239 C 
ENDBRANCH  21  24
ENDBRANCH  19  20
ENDBRANCH  18  19
ENDBRANCH  17  18
ENDBRANCH  16  17
ENDBRANCH   1  16
TORSDOF 13
ENDMDL
MODEL 3
REMARK VINA RESULT: -7.461771385      1.137      1.832
REMARK  13 active torsions:
REMARK  status: ('A' for Active; 'I' for Inactive)
REMARK    1  A    between atoms: N1_2  and  C2_4 
REMARK    2  A    between atoms: C2_4  and  C3_5 
REMARK    3  A    between atoms: C2_4  and  C14_16 
REMARK    4  A    between atoms: C3_5  and  C4_6 
REMARK    5  A    between atoms: C4_6  and  C5_7 
REMARK    6  A    between atoms: C5_7  and  C6_8 
REMARK    7  A    between atoms: C6_8  and  C7_9 
REMARK    8  A    between atoms: C7_9  and  C8_10 
REMARK    9  A    between atoms: C14_16  and  C15_17 
REMARK   10  A    between atoms: C15_17  and  C16_18 
REMARK   11  A    between atoms: C16_18  and  O1_19 
REMARK   12  A    between atoms: O1_19  and  N2_20 
REMARK   13  A    between atoms: N3_22  and  O2_24 
ROOT
HETATM    1  C2  UNL     1      31.351   5.265  14.910  1.00  0.00     0.080 C 
ENDROOT
BRANCH   1   2
HETATM    2  N1  UNL     1      32.153   4.720  15.910  1.00  0.00    -0.403 N 
HETATM    3  C1  UNL     1      33.253   3.962  15.835  1.00  0.00     0.112 C 
ATOM      4  H1  UNL     1      31.850   4.936  16.861  1.00  0.00     0.158 HD
ENDBRANCH   1   2
BRANCH   1   5
HETATM    5  C3  UNL     1      31.969   5.311  13.523  1.00  0.00     0.025 C 
BRANCH   5   6
HETATM    6  C4  UNL     1      31.380   4.390  12.533  1.00  0.00     0.002 C 
BRANCH   6   7
HETATM    7  C5  UNL     1      32.158   3.397  11.814  1.00  0.00     0.000 C 
BRANCH   7   8
HETATM    8  C6  UNL     1      33.611   3.446  12.295  1.00  0.00     0.000 C 
BRANCH   8   9
HETATM    9  C7  UNL     1      34.466   3.649  11.127  1.00  0.00     0.004 C 
BRANCH   9  10
HETATM   10  C8  UNL     1      35.768   4.301  11.459  1.00  0.00    -0.014 C 
HETATM   11  C9  UNL     1      36.185   5.514  10.739  1.00  0.00     0.004 C 
HETATM   12  C10 UNL     1      36.954   5.139   9.464  1.00  0.00     0.000 C 
HETATM   13  C11 UNL     1      37.995   4.104   9.734  1.00  0.00     0.000 C 
HETATM   14  C12 UNL     1      37.348   2.845  10.308  1.00  0.00     0.000 C 
HETATM   15  C13 UNL     1      36.868   3.279  11.694  1.00  0.00     0.004 C 
ENDBRANCH   9  10
ENDBRANCH   8   9
ENDBRANCH   7   8
ENDBRANCH   6   7
ENDBRANCH   5   6
ENDBRANCH   1   5
BRANCH   1  16
HETATM   16  C14 UNL     1      31.410   6.848  15.285  1.00  0.00     0.027 C 
BRANCH  16  17
HETATM   17  C15 UNL     1      30.486   7.639  14.449  1.00  0.00     0.031 C 
BRANCH  17  18
HETATM   18  C16 UNL     1      29.100   6.959  14.550  1.00  0.00     0.203 C 
BRANCH  18  19
HETATM   19  O1  UNL     1      28.776   7.105  13.111  1.00  0.00    -0.264 OA
BRANCH  19  20
HETATM   20  N2  UNL     1      28.937   8.254  12.563  1.00  0.00    -0.188 N 
HETATM   21  N3  UNL     1      28.471   8.985  11.728  1.00  0.00    -0.188 N 
ATOM     22  H3  UNL     1      28.880   9.897  11.526  1.00  0.00     0.218 HD
ATOM     23  H2  UNL     1      29.746   8.709  12.985  1.00  0.00     0.218 HD
BRANCH  21  24
HETATM   24  O2  UNL     1      27.326   8.510  11.041  1.00  0.00    -0.268 OA
HETATM   25  C17 UNL     1      26.177   9.291  11.462  1.00  0.00     0.239 C 
ENDBRANCH  21  24
ENDBRANCH  19  20
ENDBRANCH  18  19
ENDBRANCH  17  18
ENDBRANCH  16  17
ENDBRANCH   1  16
TORSDOF 13
ENDMDL
MODEL 4
REMARK VINA RESULT: -7.421740135      1.964      2.885
REMARK  13 active torsions:
REMARK  status: ('A' for Active; 'I' for Inactive)
REMARK    1  A    between atoms: N1_2  and  C2_4 
REMARK    2  A    between atoms: C2_4  and  C3_5 
REMARK    3  A    between atoms: C2_4  and  C14_16 
REMARK    4  A    between atoms: C3_5  and  C4_6 
REMARK    5  A    between atoms: C4_6  and  C5_7 
REMARK    6  A    between atoms: C5_7  and  C6_8 
REMARK    7  A    between atoms: C6_8  and  C7_9 
REMARK    8  A    between atoms: C7_9  and  C8_10 
REMARK    9  A    between atoms: C14_16  and  C15_17 
REMARK   10  A    between atoms: C15_17  and  C16_18 
REMARK   11  A    between atoms: C16_18  and  O1_19 
REMARK   12  A    between atoms: O1_19  and  N2_20 
REMARK   13  A    between atoms: N3_22  and  O2_24 
ROOT
HETATM    1  C2  UNL     1      31.292   5.582  15.094  1.00  0.00     0.080 C 
ENDROOT
BRANCH   1   2
HETATM    2  N1  UNL     1      31.785   6.717  15.733  1.00  0.00    -0.403 N 
HETATM    3  C1  UNL     1      32.667   7.638  15.325  1.00  0.00     0.112 C 
ATOM      4  H1  UNL     1      31.411   6.873  16.669  1.00  0.00     0.158 HD
ENDBRANCH   1   2
BRANCH   1   5
HETATM    5  C3  UNL     1      32.320   4.748  14.348  1.00  0.00     0.025 C 
BRANCH   5   6
HETATM    6  C4  UNL     1      31.957   4.379  12.966  1.00  0.00     0.002 C 
BRANCH   6   7
HETATM    7  C5  UNL     1      32.924   3.900  11.995  1.00  0.00     0.000 C 
BRANCH   7   8
HETATM    8  C6  UNL     1      34.337   4.074  12.559  1.00  0.00     0.000 C 
BRANCH   8   9
HETATM    9  C7  UNL     1      35.153   4.728  11.537  1.00  0.00     0.004 C 
BRANCH   9  10
HETATM   10  C8  UNL     1      35.767   3.768  10.572  1.00  0.00    -0.014 C 
HETATM   11  C9  UNL     1      36.337   2.503  11.059  1.00  0.00     0.004 C 
HETATM   12  C10 UNL     1      37.808   2.699  11.454  1.00  0.00     0.000 C 
HETATM   13  C11 UNL     1      38.567   3.439  10.403  1.00  0.00     0.000 C 
HETATM   14  C12 UNL     1      37.934   4.808  10.164  1.00  0.00     0.000 C 
HETATM   15  C13 UNL     1      36.589   4.482   9.512  1.00  0.00     0.004 C 
ENDBRANCH   9  10
ENDBRANCH   8   9
ENDBRANCH   7   8
ENDBRANCH   6   7
ENDBRANCH   5   6
ENDBRANCH   1   5
BRANCH   1  16
HETATM   16  C14 UNL     1      30.513   6.245  13.828  1.00  0.00     0.027 C 
BRANCH  16  17
HETATM   17  C15 UNL     1      29.150   6.677  14.194  1.00  0.00     0.031 C 
BRANCH  17  18
HETATM   18  C16 UNL     1      28.946   8.081  13.576  1.00  0.00     0.203 C 
BRANCH  18  19
HETATM   19  O1  UNL     1      29.637   8.808  14.667  1.00  0.00    -0.264 OA
BRANCH  19  20
HETATM   20  N2  UNL     1      28.974   9.087  15.729  1.00  0.00    -0.188 N 
HETATM   21  N3  UNL     1      29.006   8.980  16.927  1.00  0.00    -0.188 N 
ATOM     22  H3  UNL     1      28.254   9.336  17.518  1.00  0.00     0.218 HD
ATOM     23  H2  UNL     1      28.116   9.570  15.463  1.00  0.00     0.218 HD
BRANCH  21  24
HETATM   24  O2  UNL     1      30.143   8.334  17.474  1.00  0.00    -0.268 OA
HETATM   25  C17 UNL     1      30.951   9.324  18.162  1.00  0.00     0.239 C 
ENDBRANCH  21  24
ENDBRANCH  19  20
ENDBRANCH  18  19
ENDBRANCH  17  18
ENDBRANCH  16  17
ENDBRANCH   1  16
TORSDOF 13
ENDMDL
MODEL 5
REMARK VINA RESULT: -7.389817212      2.346      3.427
REMARK  13 active torsions:
REMARK  status: ('A' for Active; 'I' for Inactive)
REMARK    1  A    between atoms: N1_2  and  C2_4 
REMARK    2  A    between atoms: C2_4  and  C3_5 
REMARK    3  A    between atoms: C2_4  and  C14_16 
REMARK    4  A    between atoms: C3_5  and  C4_6 
REMARK    5  A    between atoms: C4_6  and  C5_7 
REMARK    6  A    between atoms: C5_7  and  C6_8 
REMARK    7  A    between atoms: C6_8  and  C7_9 
REMARK    8  A    between atoms: C7_9  and  C8_10 
REMARK    9  A    between atoms: C14_16  and  C15_17 
REMARK   10  A    between atoms: C15_17  and  C16_18 
REMARK   11  A    between atoms: C16_18  and  O1_19 
REMARK   12  A    between atoms: O1_19  and  N2_20 
REMARK   13  A    between atoms: N3_22  and  O2_24 
ROOT
HETATM    1  C2  UNL     1      31.374   5.750  15.074  1.00  0.00     0.080 C 
ENDROOT
BRANCH   1   2
HETATM    2  N1  UNL     1      31.811   6.827  15.842  1.00  0.00    -0.403 N 
HETATM    3  C1  UNL     1      32.389   7.980  15.484  1.00  0.00     0.112 C 
ATOM      4  H1  UNL     1      31.666   6.719  16.846  1.00  0.00     0.158 HD
ENDBRANCH   1   2
BRANCH   1   5
HETATM    5  C3  UNL     1      32.455   5.010  14.304  1.00  0.00     0.025 C 
BRANCH   5   6
HETATM    6  C4  UNL     1      32.266   4.951  12.841  1.00  0.00     0.002 C 
BRANCH   6   7
HETATM    7  C5  UNL     1      32.324   3.714  12.085  1.00  0.00     0.000 C 
BRANCH   7   8
HETATM    8  C6  UNL     1      33.731   3.119  12.193  1.00  0.00     0.000 C 
BRANCH   8   9
HETATM    9  C7  UNL     1      34.511   3.597  11.052  1.00  0.00     0.004 C 
BRANCH   9  10
HETATM   10  C8  UNL     1      35.774   4.287  11.451  1.00  0.00    -0.014 C 
HETATM   11  C9  UNL     1      36.175   5.530  10.776  1.00  0.00     0.004 C 
HETATM   12  C10 UNL     1      37.009   5.212   9.526  1.00  0.00     0.000 C 
HETATM   13  C11 UNL     1      38.075   4.208   9.816  1.00  0.00     0.000 C 
HETATM   14  C12 UNL     1      37.452   2.915  10.336  1.00  0.00     0.000 C 
HETATM   15  C13 UNL     1      36.900   3.299  11.710  1.00  0.00     0.004 C 
ENDBRANCH   9  10
ENDBRANCH   8   9
ENDBRANCH   7   8
ENDBRANCH   6   7
ENDBRANCH   5   6
ENDBRANCH   1   5
BRANCH   1  16
HETATM   16  C14 UNL     1      30.642   6.518  13.840  1.00  0.00     0.027 C 
BRANCH  16  17
HETATM   17  C15 UNL     1      29.175   6.531  14.001  1.00  0.00     0.031 C 
BRANCH  17  18
HETATM   18  C16 UNL     1      28.770   7.997  14.281  1.00  0.00     0.203 C 
BRANCH  18  19
HETATM   19  O1  UNL     1      28.653   7.824  15.749  1.00  0.00    -0.264 OA
BRANCH  19  20
HETATM   20  N2  UNL     1      28.751   8.863  16.494  1.00  0.00    -0.188 N 
HETATM   21  N3  UNL     1      29.271   9.266  17.502  1.00  0.00    -0.188 N 
ATOM     22  H3  UNL     1      29.123  10.218  17.839  1.00  0.00     0.218 HD
ATOM     23  H2  UNL     1      28.192   9.613  16.089  1.00  0.00     0.218 HD
BRANCH  21  24
HETATM   24  O2  UNL     1      30.099   8.349  18.197  1.00  0.00    -0.268 OA
HETATM   25  C17 UNL     1      31.290   9.047  18.645  1.00  0.00     0.239 C 
ENDBRANCH  21  24
ENDBRANCH  19  20
ENDBRANCH  18  19
ENDBRANCH  17  18
ENDBRANCH  16  17
ENDBRANCH   1  16
TORSDOF 13
ENDMDL
