MODEL 1
REMARK VINA RESULT: -6.831767706      0.000      0.000
REMARK  14 active torsions:
REMARK  status: ('A' for Active; 'I' for Inactive)
REMARK    1  A    between atoms: C2_2  and  C3_3 
REMARK    2  A    between atoms: C3_3  and  C4_4 
REMARK    3  A    between atoms: C4_4  and  N1_5 
REMARK    4  A    between atoms: N1_5  and  C5_7 
REMARK    5  A    between atoms: C5_7  and  C6_8 
REMARK    6  A    between atoms: C6_8  and  S1_9 
REMARK    7  A    between atoms: S1_9  and  C7_10 
REMARK    8  A    between atoms: C7_10  and  C8_11 
REMARK    9  A    between atoms: C8_11  and  C9_12 
REMARK   10  A    between atoms: C9_12  and  C10_13 
REMARK   11  A    between atoms: C10_13  and  C11_14 
REMARK   12  A    between atoms: C11_14  and  N2_15 
REMARK   13  A    between atoms: N2_15  and  C12_18 
REMARK   14  A    between atoms: C12_18  and  C13_19 
ROOT
HETATM    1  C10 UNL     1      32.743   4.552  13.445  1.00  0.00     0.027 C 
ENDROOT
BRANCH   1   2
HETATM    2  C9  UNL     1      31.684   5.461  13.941  1.00  0.00     0.002 C 
BRANCH   2   3
HETATM    3  C8  UNL     1      31.949   6.231  15.163  1.00  0.00     0.010 C 
BRANCH   3   4
HETATM    4  C7  UNL     1      31.804   7.697  15.186  1.00  0.00     0.074 C 
BRANCH   4   5
HETATM    5  S1  UNL     1      30.413   8.347  16.090  1.00  0.00    -0.167 SA
BRANCH   5   6
HETATM    6  C6  UNL     1      29.006   8.792  15.078  1.00  0.00     0.094 C 
BRANCH   6   7
HETATM    7  C5  UNL     1      28.719   7.606  14.128  1.00  0.00     0.139 C 
BRANCH   7   8
HETATM    8  N1  UNL     1      29.155   8.080  12.832  1.00  0.00    -0.356 N 
ATOM      9  H1  UNL     1      30.089   7.895  12.467  1.00  0.00     0.169 HD
BRANCH   8  10
HETATM   10  C4  UNL     1      28.274   8.756  12.173  1.00  0.00    -0.046 C 
BRANCH  10  11
HETATM   11  C3  UNL     1      27.559   9.395  11.290  1.00  0.00     0.073 C 
BRANCH  11  12
HETATM   12  C2  UNL     1      26.123   9.198  11.312  1.00  0.00    -0.001 C 
HETATM   13  C1  UNL     1      25.375  10.259  11.062  1.00  0.00     0.012 C 
ENDBRANCH  11  12
ENDBRANCH  10  11
ENDBRANCH   8  10
ENDBRANCH   7   8
ENDBRANCH   6   7
ENDBRANCH   5   6
ENDBRANCH   4   5
ENDBRANCH   3   4
ENDBRANCH   2   3
ENDBRANCH   1   2
BRANCH   1  14
HETATM   14  C11 UNL     1      32.562   4.148  12.009  1.00  0.00     0.232 C 
BRANCH  14  15
HETATM   15  N2  UNL     1      33.764   3.642  11.419  1.00  0.00    -0.071 N 
ATOM     16  H22 UNL     1      33.679   2.650  11.194  1.00  0.00     0.277 HD
ATOM     17  H21 UNL     1      33.899   4.008  10.477  1.00  0.00     0.277 HD
BRANCH  15  18
HETATM   18  C12 UNL     1      34.929   3.898  12.262  1.00  0.00     0.270 C 
BRANCH  18  19
HETATM   19  C13 UNL     1      36.141   4.126  11.424  1.00  0.00    -0.033 A 
HETATM   20  C14 UNL     1      37.173   3.202  11.377  1.00  0.00     0.011 A 
HETATM   21  C15 UNL     1      38.309   3.391  10.604  1.00  0.00     0.027 A 
HETATM   22  C16 UNL     1      38.426   4.545   9.845  1.00  0.00     0.046 A 
HETATM   23  N3  UNL     1      39.601   4.722   9.057  1.00  0.00    -0.102 NA
HETATM   24  C17 UNL     1      37.420   5.488   9.867  1.00  0.00     0.027 A 
HETATM   25  C18 UNL     1      36.295   5.260  10.657  1.00  0.00     0.011 A 
ENDBRANCH  18  19
ENDBRANCH  15  18
ENDBRANCH  14  15
ENDBRANCH   1  14
TORSDOF 14
ENDMDL
MODEL 2
REMARK VINA RESULT: -6.786848558      0.918      1.379
REMARK  14 active torsions:
REMARK  status: ('A' for Active; 'I' for Inactive)
REMARK    1  A    between atoms: C2_2  and  C3_3 
REMARK    2  A    between atoms: C3_3  and  C4_4 
REMARK    3  A    between atoms: C4_4  and  N1_5 
REMARK    4  A    between atoms: N1_5  and  C5_7 
REMARK    5  A    between atoms: C5_7  and  C6_8 
REMARK    6  A    between atoms: C6_8  and  S1_9 
REMARK    7  A    between atoms: S1_9  and  C7_10 
REMARK    8  A    between atoms: C7_10  and  C8_11 
REMARK    9  A    between atoms: C8_11  and  C9_12 
REMARK   10  A    between atoms: C9_12  and  C10_13 
REMARK   11  A    between atoms: C10_13  and  C11_14 
REMARK   12  A    between atoms: C11_14  and  N2_15 
REMARK   13  A    between atoms: N2_15  and  C12_18 
REMARK   14  A    between atoms: C12_18  and  C13_19 
ROOT
HETATM    1  C10 UNL     1      31.387   4.815  12.839  1.00  0.00     0.027 C 
ENDROOT
BRANCH   1   2
HETATM    2  C9  UNL     1      30.972   4.656  14.253  1.00  0.00     0.002 C 
BRANCH   2   3
HETATM    3  C8  UNL     1      31.706   5.408  15.278  1.00  0.00     0.010 C 
BRANCH   3   4
HETATM    4  C7  UNL     1      32.190   6.775  15.020  1.00  0.00     0.074 C 
BRANCH   4   5
HETATM    5  S1  UNL     1      31.436   8.080  15.970  1.00  0.00    -0.167 SA
BRANCH   5   6
HETATM    6  C6  UNL     1      29.713   8.380  15.592  1.00  0.00     0.094 C 
BRANCH   6   7
HETATM    7  C5  UNL     1      29.512   8.116  14.082  1.00  0.00     0.139 C 
BRANCH   7   8
HETATM    8  N1  UNL     1      28.223   8.708  13.791  1.00  0.00    -0.356 N 
ATOM      9  H1  UNL     1      27.555   8.950  14.522  1.00  0.00     0.169 HD
BRANCH   8  10
HETATM   10  C4  UNL     1      27.984   8.905  12.538  1.00  0.00    -0.046 C 
BRANCH  10  11
HETATM   11  C3  UNL     1      27.479   9.153  11.361  1.00  0.00     0.073 C 
BRANCH  11  12
HETATM   12  C2  UNL     1      26.037   9.102  11.220  1.00  0.00    -0.001 C 
HETATM   13  C1  UNL     1      25.424  10.251  10.992  1.00  0.00     0.012 C 
ENDBRANCH  11  12
ENDBRANCH  10  11
ENDBRANCH   8  10
ENDBRANCH   7   8
ENDBRANCH   6   7
ENDBRANCH   5   6
ENDBRANCH   4   5
ENDBRANCH   3   4
ENDBRANCH   2   3
ENDBRANCH   1   2
BRANCH   1  14
HETATM   14  C11 UNL     1      32.116   3.620  12.291  1.00  0.00     0.232 C 
BRANCH  14  15
HETATM   15  N2  UNL     1      33.519   3.648  12.575  1.00  0.00    -0.071 N 
ATOM     16  H22 UNL     1      33.695   3.601  13.579  1.00  0.00     0.277 HD
ATOM     17  H21 UNL     1      33.973   2.780  12.293  1.00  0.00     0.277 HD
BRANCH  15  18
HETATM   18  C12 UNL     1      34.169   4.809  11.974  1.00  0.00     0.270 C 
BRANCH  18  19
HETATM   19  C13 UNL     1      35.525   4.447  11.472  1.00  0.00    -0.033 A 
HETATM   20  C14 UNL     1      36.232   5.286  10.625  1.00  0.00     0.011 A 
HETATM   21  C15 UNL     1      37.496   4.972  10.147  1.00  0.00     0.027 A 
HETATM   22  C16 UNL     1      38.083   3.774  10.525  1.00  0.00     0.046 A 
HETATM   23  N3  UNL     1      39.382   3.468  10.024  1.00  0.00    -0.102 NA
HETATM   24  C17 UNL     1      37.410   2.913  11.366  1.00  0.00     0.027 A 
HETATM   25  C18 UNL     1      36.142   3.266  11.824  1.00  0.00     0.011 A 
ENDBRANCH  18  19
ENDBRANCH  15  18
ENDBRANCH  14  15
ENDBRANCH   1  14
TORSDOF 14
ENDMDL
MODEL 3
REMARK VINA RESULT: -6.777897770      3.178      4.938
REMARK  14 active torsions:
REMARK  status: ('A' for Active; 'I' for Inactive)
REMARK    1  A    between atoms: C2_2  and  C3_3 
REMARK    2  A    between atoms: C3_3  and  C4_4 
REMARK    3  A    between atoms: C4_4  and  N1_5 
REMARK    4  A    between atoms: N1_5  and  C5_7 
REMARK    5  A    between atoms: C5_7  and  C6_8 
REMARK    6  A    between atoms: C6_8  and  S1_9 
REMARK    7  A    between atoms: S1_9  and  C7_10 
REMARK    8  A    between atoms: C7_10  and  C8_11 
REMARK    9  A    between atoms: C8_11  and  C9_12 
REMARK   10  A    between atoms: C9_12  and  C10_13 
REMARK   11  A    between atoms: C10_13  and  C11_14 
REMARK   12  A    between atoms: C11_14  and  N2_15 
REMARK   13  A    between atoms: N2_15  and  C12_18 
REMARK   14  A    between atoms: C12_18  and  C13_19 
ROOT
HETATM    1  C10 UNL     1      29.407   8.052  14.211  1.00  0.00     0.027 C 
ENDROOT
BRANCH   1   2
HETATM    2  C9  UNL     1      28.206   8.770  14.698  1.00  0.00     0.002 C 
BRANCH   2   3
HETATM    3  C8  UNL     1      27.423   8.157  15.779  1.00  0.00     0.010 C 
BRANCH   3   4
HETATM    4  C7  UNL     1      27.084   8.913  16.997  1.00  0.00     0.074 C 
BRANCH   4   5
HETATM    5  S1  UNL     1      25.495   9.718  17.021  1.00  0.00    -0.167 SA
BRANCH   5   6
HETATM    6  C6  UNL     1      24.322   9.092  15.823  1.00  0.00     0.094 C 
BRANCH   6   7
HETATM    7  C5  UNL     1      24.537   9.874  14.506  1.00  0.00     0.139 C 
BRANCH   7   8
HETATM    8  N1  UNL     1      24.703   8.840  13.507  1.00  0.00    -0.356 N 
ATOM      9  H1  UNL     1      24.448   7.868  13.678  1.00  0.00     0.169 HD
BRANCH   8  10
HETATM   10  C4  UNL     1      25.198   9.240  12.383  1.00  0.00    -0.046 C 
BRANCH  10  11
HETATM   11  C3  UNL     1      25.944   9.624  11.386  1.00  0.00     0.073 C 
BRANCH  11  12
HETATM   12  C2  UNL     1      27.170   8.893  11.137  1.00  0.00    -0.001 C 
HETATM   13  C1  UNL     1      28.278   9.607  11.042  1.00  0.00     0.012 C 
ENDBRANCH  11  12
ENDBRANCH  10  11
ENDBRANCH   8  10
ENDBRANCH   7   8
ENDBRANCH   6   7
ENDBRANCH   5   6
ENDBRANCH   4   5
ENDBRANCH   3   4
ENDBRANCH   2   3
ENDBRANCH   1   2
BRANCH   1  14
HETATM   14  C11 UNL     1      30.530   8.020  15.209  1.00  0.00     0.232 C 
BRANCH  14  15
HETATM   15  N2  UNL     1      31.088   6.711  15.375  1.00  0.00    -0.071 N 
ATOM     16  H22 UNL     1      32.093   6.711  15.203  1.00  0.00     0.277 HD
ATOM     17  H21 UNL     1      31.093   6.432  16.356  1.00  0.00     0.277 HD
BRANCH  15  18
HETATM   18  C12 UNL     1      30.404   5.724  14.544  1.00  0.00     0.270 C 
BRANCH  18  19
HETATM   19  C13 UNL     1      31.389   4.948  13.737  1.00  0.00    -0.033 A 
HETATM   20  C14 UNL     1      32.724   4.873  14.101  1.00  0.00     0.011 A 
HETATM   21  C15 UNL     1      33.658   4.156  13.367  1.00  0.00     0.027 A 
HETATM   22  C16 UNL     1      33.250   3.487  12.224  1.00  0.00     0.046 A 
HETATM   23  N3  UNL     1      34.224   2.756  11.482  1.00  0.00    -0.102 NA
HETATM   24  C17 UNL     1      31.930   3.539  11.829  1.00  0.00     0.027 A 
HETATM   25  C18 UNL     1      31.023   4.271  12.594  1.00  0.00     0.011 A 
ENDBRANCH  18  19
ENDBRANCH  15  18
ENDBRANCH  14  15
ENDBRANCH   1  14
TORSDOF 14
ENDMDL
MODEL 4
REMARK VINA RESULT: -6.775719555      3.022     10.424
REMARK  14 active torsions:
REMARK  status: ('A' for Active; 'I' for Inactive)
REMARK    1  A    between atoms: C2_2  and  C3_3 
REMARK    2  A    between atoms: C3_3  and  C4_4 
REMARK    3  A    between atoms: C4_4  and  N1_5 
REMARK    4  A    between atoms: N1_5  and  C5_7 
REMARK    5  A    between atoms: C5_7  and  C6_8 
REMARK    6  A    between atoms: C6_8  and  S1_9 
REMARK    7  A    between atoms: S1_9  and  C7_10 
REMARK    8  A    between atoms: C7_10  and  C8_11 
REMARK    9  A    between atoms: C8_11  and  C9_12 
REMARK   10  A    between atoms: C9_12  and  C10_13 
REMARK   11  A    between atoms: C10_13  and  C11_14 
REMARK   12  A    between atoms: C11_14  and  N2_15 
REMARK   13  A    between atoms: N2_15  and  C12_18 
REMARK   14  A    between atoms: C12_18  and  C13_19 
ROOT
HETATM    1  C10 UNL     1      26.966   8.843  11.100  1.00  0.00     0.027 C 
ENDROOT
BRANCH   1   2
HETATM    2  C9  UNL     1      27.997   9.189  12.106  1.00  0.00     0.002 C 
BRANCH   2   3
HETATM    3  C8  UNL     1      28.564   8.104  12.916  1.00  0.00     0.010 C 
BRANCH   3   4
HETATM    4  C7  UNL     1      29.414   8.389  14.085  1.00  0.00     0.074 C 
BRANCH   4   5
HETATM    5  S1  UNL     1      30.467   7.067  14.649  1.00  0.00    -0.167 SA
BRANCH   5   6
HETATM    6  C6  UNL     1      30.040   5.450  14.014  1.00  0.00     0.094 C 
BRANCH   6   7
HETATM    7  C5  UNL     1      31.357   4.667  13.804  1.00  0.00     0.139 C 
BRANCH   7   8
HETATM    8  N1  UNL     1      31.430   4.483  12.370  1.00  0.00    -0.356 N 
ATOM      9  H1  UNL     1      30.660   4.723  11.747  1.00  0.00     0.169 HD
BRANCH   8  10
HETATM   10  C4  UNL     1      32.544   3.992  11.939  1.00  0.00    -0.046 C 
BRANCH  10  11
HETATM   11  C3  UNL     1      33.734   3.484  11.778  1.00  0.00     0.073 C 
BRANCH  11  12
HETATM   12  C2  UNL     1      34.869   4.382  11.856  1.00  0.00    -0.001 C 
HETATM   13  C1  UNL     1      36.042   3.888  11.496  1.00  0.00     0.012 C 
ENDBRANCH  11  12
ENDBRANCH  10  11
ENDBRANCH   8  10
ENDBRANCH   7   8
ENDBRANCH   6   7
ENDBRANCH   5   6
ENDBRANCH   4   5
ENDBRANCH   3   4
ENDBRANCH   2   3
ENDBRANCH   1   2
BRANCH   1  14
HETATM   14  C11 UNL     1      25.584   9.297  11.479  1.00  0.00     0.232 C 
BRANCH  14  15
HETATM   15  N2  UNL     1      25.513   9.796  12.820  1.00  0.00    -0.071 N 
ATOM     16  H22 UNL     1      26.440   9.873  13.238  1.00  0.00     0.277 HD
ATOM     17  H21 UNL     1      25.249  10.781  12.836  1.00  0.00     0.277 HD
BRANCH  15  18
HETATM   18  C12 UNL     1      24.619   8.991  13.648  1.00  0.00     0.270 C 
BRANCH  18  19
HETATM   19  C13 UNL     1      24.976   9.130  15.089  1.00  0.00    -0.033 A 
HETATM   20  C14 UNL     1      26.140   8.582  15.603  1.00  0.00     0.011 A 
HETATM   21  C15 UNL     1      26.494   8.699  16.939  1.00  0.00     0.027 A 
HETATM   22  C16 UNL     1      25.657   9.389  17.802  1.00  0.00     0.046 A 
HETATM   23  N3  UNL     1      26.037   9.499  19.172  1.00  0.00    -0.102 NA
HETATM   24  C17 UNL     1      24.489   9.948  17.328  1.00  0.00     0.027 A 
HETATM   25  C18 UNL     1      24.170   9.807  15.978  1.00  0.00     0.011 A 
ENDBRANCH  18  19
ENDBRANCH  15  18
ENDBRANCH  14  15
ENDBRANCH   1  14
TORSDOF 14
ENDMDL
MODEL 5
REMARK VINA RESULT: -6.769515152      2.363      9.326
REMARK  14 active torsions:
REMARK  status: ('A' for Active; 'I' for Inactive)
REMARK    1  A    between atoms: C2_2  and  C3_3 
REMARK    2  A    between atoms: C3_3  and  C4_4 
REMARK    3  A    between atoms: C4_4  and  N1_5 
REMARK    4  A    between atoms: N1_5  and  C5_7 
REMARK    5  A    between atoms: C5_7  and  C6_8 
REMARK    6  A    between atoms: C6_8  and  S1_9 
REMARK    7  A    between atoms: S1_9  and  C7_10 
REMARK    8  A    between atoms: C7_10  and  C8_11 
REMARK    9  A    between atoms: C8_11  and  C9_12 
REMARK   10  A    between atoms: C9_12  and  C10_13 
REMARK   11  A    between atoms: C10_13  and  C11_14 
REMARK   12  A    between atoms: C11_14  and  N2_15 
REMARK   13  A    between atoms: N2_15  and  C12_18 
REMARK   14  A    between atoms: C12_18  and  C13_19 
ROOT
HETATM    1  C10 UNL     1      31.194   8.908  17.651  1.00  0.00     0.027 C 
ENDROOT
BRANCH   1   2
HETATM    2  C9  UNL     1      31.786   9.334  16.361  1.00  0.00     0.002 C 
BRANCH   2   3
HETATM    3  C8  UNL     1      32.541   8.342  15.585  1.00  0.00     0.010 C 
BRANCH   3   4
HETATM    4  C7  UNL     1      32.110   6.935  15.523  1.00  0.00     0.074 C 
BRANCH   4   5
HETATM    5  S1  UNL     1      31.052   6.483  14.163  1.00  0.00    -0.167 SA
BRANCH   5   6
HETATM    6  C6  UNL     1      30.799   4.723  13.965  1.00  0.00     0.094 C 
BRANCH   6   7
HETATM    7  C5  UNL     1      31.405   4.314  12.602  1.00  0.00     0.139 C 
BRANCH   7   8
HETATM    8  N1  UNL     1      32.771   4.787  12.669  1.00  0.00    -0.356 N 
ATOM      9  H1  UNL     1      33.039   5.611  13.206  1.00  0.00     0.169 HD
BRANCH   8  10
HETATM   10  C4  UNL     1      33.625   4.087  11.998  1.00  0.00    -0.046 C 
BRANCH  10  11
HETATM   11  C3  UNL     1      34.617   3.359  11.569  1.00  0.00     0.073 C 
BRANCH  11  12
HETATM   12  C2  UNL     1      35.936   3.960  11.546  1.00  0.00    -0.001 C 
HETATM   13  C1  UNL     1      36.966   3.131  11.571  1.00  0.00     0.012 C 
ENDBRANCH  11  12
ENDBRANCH  10  11
ENDBRANCH   8  10
ENDBRANCH   7   8
ENDBRANCH   6   7
ENDBRANCH   5   6
ENDBRANCH   4   5
ENDBRANCH   3   4
ENDBRANCH   2   3
ENDBRANCH   1   2
BRANCH   1  14
HETATM   14  C11 UNL     1      29.692   8.847  17.628  1.00  0.00     0.232 C 
BRANCH  14  15
HETATM   15  N2  UNL     1      29.157   8.846  16.300  1.00  0.00    -0.071 N 
ATOM     16  H22 UNL     1      29.406   9.697  15.797  1.00  0.00     0.277 HD
ATOM     17  H21 UNL     1      29.633   8.166  15.708  1.00  0.00     0.277 HD
BRANCH  15  18
HETATM   18  C12 UNL     1      27.712   8.631  16.302  1.00  0.00     0.270 C 
BRANCH  18  19
HETATM   19  C13 UNL     1      27.154   8.819  14.932  1.00  0.00    -0.033 A 
HETATM   20  C14 UNL     1      27.964   8.779  13.808  1.00  0.00     0.011 A 
HETATM   21  C15 UNL     1      27.468   8.949  12.524  1.00  0.00     0.027 A 
HETATM   22  C16 UNL     1      26.111   9.168  12.348  1.00  0.00     0.046 A 
HETATM   23  N3  UNL     1      25.619   9.340  11.020  1.00  0.00    -0.102 NA
HETATM   24  C17 UNL     1      25.273   9.215  13.442  1.00  0.00     0.027 A 
HETATM   25  C18 UNL     1      25.811   9.040  14.716  1.00  0.00     0.011 A 
ENDBRANCH  18  19
ENDBRANCH  15  18
ENDBRANCH  14  15
ENDBRANCH   1  14
TORSDOF 14
ENDMDL
