MODEL 1
REMARK VINA RESULT: -7.250961713      0.000      0.000
REMARK  15 active torsions:
REMARK  status: ('A' for Active; 'I' for Inactive)
REMARK    1  A    between atoms: C2_2  and  O1_3 
REMARK    2  A    between atoms: C2_2  and  C3_5 
REMARK    3  A    between atoms: C3_5  and  C4_6 
REMARK    4  A    between atoms: C4_6  and  C5_7 
REMARK    5  A    between atoms: C5_7  and  C6_8 
REMARK    6  A    between atoms: C7_9  and  C8_10 
REMARK    7  A    between atoms: C9_11  and  C11_13 
REMARK    8  A    between atoms: C11_13  and  C12_14 
REMARK    9  A    between atoms: C12_14  and  C13_15 
REMARK   10  A    between atoms: C13_15  and  O2_16 
REMARK   11  A    between atoms: C13_15  and  C14_18 
REMARK   12  A    between atoms: C14_18  and  C15_19 
REMARK   13  A    between atoms: C15_19  and  C16_20 
REMARK   14  A    between atoms: C16_20  and  C17_21 
REMARK   15  A    between atoms: C17_21  and  C18_22 
ROOT
HETATM    1  C8  UNL     1      30.334   6.458  13.844  1.00  0.00     0.002 C 
HETATM    2  C9  UNL     1      30.286   7.578  14.522  1.00  0.00    -0.084 C 
HETATM    3  C10 UNL     1      31.323   7.860  15.533  1.00  0.00     0.043 C 
ENDROOT
BRANCH   2   4
HETATM    4  C11 UNL     1      29.210   8.559  14.288  1.00  0.00     0.036 C 
BRANCH   4   5
HETATM    5  C12 UNL     1      28.351   8.041  13.140  1.00  0.00     0.036 C 
BRANCH   5   6
HETATM    6  C13 UNL     1      28.158   9.149  12.093  1.00  0.00     0.118 C 
BRANCH   6   7
HETATM    7  O2  UNL     1      29.364   9.155  11.352  1.00  0.00    -0.396 OA
ATOM      8  H2  UNL     1      30.047   9.055  12.005  1.00  0.00     0.210 HD
ENDBRANCH   6   7
BRANCH   6   9
HETATM    9  C14 UNL     1      27.055   8.798  11.162  1.00  0.00     0.032 C 
BRANCH   9  10
HETATM   10  C15 UNL     1      25.839   9.625  11.201  1.00  0.00     0.003 C 
BRANCH  10  11
HETATM   11  C16 UNL     1      25.349  10.093  12.515  1.00  0.00     0.007 C 
BRANCH  11  12
HETATM   12  C17 UNL     1      24.722   8.893  13.240  1.00  0.00     0.077 C 
BRANCH  12  13
HETATM   13  C18 UNL     1      24.524   9.167  14.675  1.00  0.00     0.123 C 
HETATM   14  C19 UNL     1      25.621   8.881  15.634  1.00  0.00     0.091 C 
HETATM   15  O3  UNL     1      23.484   9.622  15.101  1.00  0.00    -0.298 OA
ENDBRANCH  12  13
ENDBRANCH  11  12
ENDBRANCH  10  11
ENDBRANCH   9  10
ENDBRANCH   6   9
ENDBRANCH   5   6
ENDBRANCH   4   5
ENDBRANCH   2   4
BRANCH   1  16
HETATM   16  C7  UNL     1      31.422   5.474  14.086  1.00  0.00    -0.004 C 
HETATM   17  C6  UNL     1      32.072   4.945  13.091  1.00  0.00    -0.027 C 
BRANCH  17  18
HETATM   18  C5  UNL     1      33.143   3.976  13.222  1.00  0.00     0.027 C 
BRANCH  18  19
HETATM   19  C4  UNL     1      33.887   3.647  11.982  1.00  0.00     0.010 C 
BRANCH  19  20
HETATM   20  C3  UNL     1      35.185   4.341  11.775  1.00  0.00     0.063 C 
BRANCH  20  21
HETATM   21  C2  UNL     1      36.198   3.370  11.237  1.00  0.00     0.034 C 
HETATM   22  C1  UNL     1      37.429   3.775  10.978  1.00  0.00     0.045 C 
BRANCH  21  23
HETATM   23  O1  UNL     1      35.803   2.073  11.030  1.00  0.00    -0.366 OA
ATOM     24  H1  UNL     1      35.190   1.636  11.610  1.00  0.00     0.217 HD
ENDBRANCH  21  23
ENDBRANCH  20  21
ENDBRANCH  19  20
ENDBRANCH  18  19
ENDBRANCH  17  18
ENDBRANCH   1  16
TORSDOF 15
ENDMDL
MODEL 2
REMARK VINA RESULT: -7.151102718      3.880      5.413
REMARK  15 active torsions:
REMARK  status: ('A' for Active; 'I' for Inactive)
REMARK    1  A    between atoms: C2_2  and  O1_3 
REMARK    2  A    between atoms: C2_2  and  C3_5 
REMARK    3  A    between atoms: C3_5  and  C4_6 
REMARK    4  A    between atoms: C4_6  and  C5_7 
REMARK    5  A    between atoms: C5_7  and  C6_8 
REMARK    6  A    between atoms: C7_9  and  C8_10 
REMARK    7  A    between atoms: C9_11  and  C11_13 
REMARK    8  A    between atoms: C11_13  and  C12_14 
REMARK    9  A    between atoms: C12_14  and  C13_15 
REMARK   10  A    between atoms: C13_15  and  O2_16 
REMARK   11  A    between atoms: C13_15  and  C14_18 
REMARK   12  A    between atoms: C14_18  and  C15_19 
REMARK   13  A    between atoms: C15_19  and  C16_20 
REMARK   14  A    between atoms: C16_20  and  C17_21 
REMARK   15  A    between atoms: C17_21  and  C18_22 
ROOT
HETATM    1  C8  UNL     1      33.704   4.130  11.671  1.00  0.00     0.002 C 
HETATM    2  C9  UNL     1      32.921   4.035  12.717  1.00  0.00    -0.084 C 
HETATM    3  C10 UNL     1      33.515   3.935  14.064  1.00  0.00     0.043 C 
ENDROOT
BRANCH   2   4
HETATM    4  C11 UNL     1      31.453   4.027  12.566  1.00  0.00     0.036 C 
BRANCH   4   5
HETATM    5  C12 UNL     1      30.851   4.562  13.859  1.00  0.00     0.036 C 
BRANCH   5   6
HETATM    6  C13 UNL     1      29.955   5.772  13.554  1.00  0.00     0.118 C 
BRANCH   6   7
HETATM    7  O2  UNL     1      28.684   5.414  14.067  1.00  0.00    -0.396 OA
ATOM      8  H2  UNL     1      28.854   5.146  14.962  1.00  0.00     0.210 HD
ENDBRANCH   6   7
BRANCH   6   9
HETATM    9  C14 UNL     1      30.424   6.969  14.300  1.00  0.00     0.032 C 
BRANCH   9  10
HETATM   10  C15 UNL     1      31.537   6.790  15.246  1.00  0.00     0.003 C 
BRANCH  10  11
HETATM   11  C16 UNL     1      32.141   7.992  15.857  1.00  0.00     0.007 C 
BRANCH  11  12
HETATM   12  C17 UNL     1      31.012   8.993  16.146  1.00  0.00     0.077 C 
BRANCH  12  13
HETATM   13  C18 UNL     1      30.477   8.829  17.510  1.00  0.00     0.123 C 
HETATM   14  C19 UNL     1      31.408   8.825  18.667  1.00  0.00     0.091 C 
HETATM   15  O3  UNL     1      29.290   8.697  17.719  1.00  0.00    -0.298 OA
ENDBRANCH  12  13
ENDBRANCH  11  12
ENDBRANCH  10  11
ENDBRANCH   9  10
ENDBRANCH   6   9
ENDBRANCH   5   6
ENDBRANCH   4   5
ENDBRANCH   2   4
BRANCH   1  16
HETATM   16  C7  UNL     1      35.182   4.138  11.833  1.00  0.00    -0.004 C 
HETATM   17  C6  UNL     1      35.909   3.178  11.342  1.00  0.00    -0.027 C 
BRANCH  17  18
HETATM   18  C5  UNL     1      37.353   3.092  11.451  1.00  0.00     0.027 C 
BRANCH  18  19
HETATM   19  C4  UNL     1      38.115   3.202  10.184  1.00  0.00     0.010 C 
BRANCH  19  20
HETATM   20  C3  UNL     1      39.444   3.864  10.256  1.00  0.00     0.063 C 
BRANCH  20  21
HETATM   21  C2  UNL     1      40.530   2.827  10.196  1.00  0.00     0.034 C 
HETATM   22  C1  UNL     1      40.857   2.149  11.281  1.00  0.00     0.045 C 
BRANCH  21  23
HETATM   23  O1  UNL     1      41.156   2.616   8.993  1.00  0.00    -0.366 OA
ATOM     24  H1  UNL     1      41.516   3.331   8.482  1.00  0.00     0.217 HD
ENDBRANCH  21  23
ENDBRANCH  20  21
ENDBRANCH  19  20
ENDBRANCH  18  19
ENDBRANCH  17  18
ENDBRANCH   1  16
TORSDOF 15
ENDMDL
MODEL 3
REMARK VINA RESULT: -7.119134385      1.798      2.485
REMARK  15 active torsions:
REMARK  status: ('A' for Active; 'I' for Inactive)
REMARK    1  A    between atoms: C2_2  and  O1_3 
REMARK    2  A    between atoms: C2_2  and  C3_5 
REMARK    3  A    between atoms: C3_5  and  C4_6 
REMARK    4  A    between atoms: C4_6  and  C5_7 
REMARK    5  A    between atoms: C5_7  and  C6_8 
REMARK    6  A    between atoms: C7_9  and  C8_10 
REMARK    7  A    between atoms: C9_11  and  C11_13 
REMARK    8  A    between atoms: C11_13  and  C12_14 
REMARK    9  A    between atoms: C12_14  and  C13_15 
REMARK   10  A    between atoms: C13_15  and  O2_16 
REMARK   11  A    between atoms: C13_15  and  C14_18 
REMARK   12  A    between atoms: C14_18  and  C15_19 
REMARK   13  A    between atoms: C15_19  and  C16_20 
REMARK   14  A    between atoms: C16_20  and  C17_21 
REMARK   15  A    between atoms: C17_21  and  C18_22 
ROOT
HETATM    1  C8  UNL     1      31.068   6.343  14.676  1.00  0.00     0.002 C 
HETATM    2  C9  UNL     1      31.191   7.546  15.180  1.00  0.00    -0.084 C 
HETATM    3  C10 UNL     1      32.524   8.028  15.591  1.00  0.00     0.043 C 
ENDROOT
BRANCH   2   4
HETATM    4  C11 UNL     1      30.017   8.423  15.341  1.00  0.00     0.036 C 
BRANCH   4   5
HETATM    5  C12 UNL     1      28.835   7.748  14.655  1.00  0.00     0.036 C 
BRANCH   5   6
HETATM    6  C13 UNL     1      28.193   8.718  13.651  1.00  0.00     0.118 C 
BRANCH   6   7
HETATM    7  O2  UNL     1      28.351   8.086  12.393  1.00  0.00    -0.396 OA
ATOM      8  H2  UNL     1      28.717   8.758  11.832  1.00  0.00     0.210 HD
ENDBRANCH   6   7
BRANCH   6   9
HETATM    9  C14 UNL     1      26.737   8.849  13.913  1.00  0.00     0.032 C 
BRANCH   9  10
HETATM   10  C15 UNL     1      26.270   8.638  15.292  1.00  0.00     0.003 C 
BRANCH  10  11
HETATM   11  C16 UNL     1      26.250   9.795  16.212  1.00  0.00     0.007 C 
BRANCH  11  12
HETATM   12  C17 UNL     1      26.776   9.321  17.576  1.00  0.00     0.077 C 
BRANCH  12  13
HETATM   13  C18 UNL     1      25.792   9.554  18.649  1.00  0.00     0.123 C 
HETATM   14  C19 UNL     1      24.520  10.255  18.336  1.00  0.00     0.091 C 
HETATM   15  O3  UNL     1      25.990   9.190  19.788  1.00  0.00    -0.298 OA
ENDBRANCH  12  13
ENDBRANCH  11  12
ENDBRANCH  10  11
ENDBRANCH   9  10
ENDBRANCH   6   9
ENDBRANCH   5   6
ENDBRANCH   4   5
ENDBRANCH   2   4
BRANCH   1  16
HETATM   16  C7  UNL     1      32.256   5.465  14.516  1.00  0.00    -0.004 C 
HETATM   17  C6  UNL     1      32.469   4.831  13.400  1.00  0.00    -0.027 C 
BRANCH  17  18
HETATM   18  C5  UNL     1      33.593   3.950  13.147  1.00  0.00     0.027 C 
BRANCH  18  19
HETATM   19  C4  UNL     1      34.082   3.893  11.748  1.00  0.00     0.010 C 
BRANCH  19  20
HETATM   20  C3  UNL     1      35.459   4.392  11.499  1.00  0.00     0.063 C 
BRANCH  20  21
HETATM   21  C2  UNL     1      36.373   3.234  11.212  1.00  0.00     0.034 C 
HETATM   22  C1  UNL     1      37.674   3.433  11.097  1.00  0.00     0.045 C 
BRANCH  21  23
HETATM   23  O1  UNL     1      35.815   1.988  11.079  1.00  0.00    -0.366 OA
ATOM     24  H1  UNL     1      35.037   1.840  10.555  1.00  0.00     0.217 HD
ENDBRANCH  21  23
ENDBRANCH  20  21
ENDBRANCH  19  20
ENDBRANCH  18  19
ENDBRANCH  17  18
ENDBRANCH   1  16
TORSDOF 15
ENDMDL
MODEL 4
REMARK VINA RESULT: -7.062894543      1.590      9.584
REMARK  15 active torsions:
REMARK  status: ('A' for Active; 'I' for Inactive)
REMARK    1  A    between atoms: C2_2  and  O1_3 
REMARK    2  A    between atoms: C2_2  and  C3_5 
REMARK    3  A    between atoms: C3_5  and  C4_6 
REMARK    4  A    between atoms: C4_6  and  C5_7 
REMARK    5  A    between atoms: C5_7  and  C6_8 
REMARK    6  A    between atoms: C7_9  and  C8_10 
REMARK    7  A    between atoms: C9_11  and  C11_13 
REMARK    8  A    between atoms: C11_13  and  C12_14 
REMARK    9  A    between atoms: C12_14  and  C13_15 
REMARK   10  A    between atoms: C13_15  and  O2_16 
REMARK   11  A    between atoms: C13_15  and  C14_18 
REMARK   12  A    between atoms: C14_18  and  C15_19 
REMARK   13  A    between atoms: C15_19  and  C16_20 
REMARK   14  A    between atoms: C16_20  and  C17_21 
REMARK   15  A    between atoms: C17_21  and  C18_22 
ROOT
HETATM    1  C8  UNL     1      29.339   7.518  14.571  1.00  0.00     0.002 C 
HETATM    2  C9  UNL     1      30.584   7.617  14.968  1.00  0.00    -0.084 C 
HETATM    3  C10 UNL     1      30.999   8.784  15.770  1.00  0.00     0.043 C 
ENDROOT
BRANCH   2   4
HETATM    4  C11 UNL     1      31.574   6.579  14.626  1.00  0.00     0.036 C 
BRANCH   4   5
HETATM    5  C12 UNL     1      30.879   5.225  14.724  1.00  0.00     0.036 C 
BRANCH   5   6
HETATM    6  C13 UNL     1      31.078   4.443  13.417  1.00  0.00     0.118 C 
BRANCH   6   7
HETATM    7  O2  UNL     1      29.966   4.800  12.615  1.00  0.00    -0.396 OA
ATOM      8  H2  UNL     1      30.348   5.192  11.839  1.00  0.00     0.210 HD
ENDBRANCH   6   7
BRANCH   6   9
HETATM    9  C14 UNL     1      32.307   4.900  12.718  1.00  0.00     0.032 C 
BRANCH   9  10
HETATM   10  C15 UNL     1      33.244   3.870  12.243  1.00  0.00     0.003 C 
BRANCH  10  11
HETATM   11  C16 UNL     1      34.594   4.292  11.814  1.00  0.00     0.007 C 
BRANCH  11  12
HETATM   12  C17 UNL     1      35.371   3.034  11.398  1.00  0.00     0.077 C 
BRANCH  12  13
HETATM   13  C18 UNL     1      36.819   3.296  11.300  1.00  0.00     0.123 C 
HETATM   14  C19 UNL     1      37.298   4.492  10.560  1.00  0.00     0.091 C 
HETATM   15  O3  UNL     1      37.638   2.560  11.807  1.00  0.00    -0.298 OA
ENDBRANCH  12  13
ENDBRANCH  11  12
ENDBRANCH  10  11
ENDBRANCH   9  10
ENDBRANCH   6   9
ENDBRANCH   5   6
ENDBRANCH   4   5
ENDBRANCH   2   4
BRANCH   1  16
HETATM   16  C7  UNL     1      28.348   8.568  14.921  1.00  0.00    -0.004 C 
HETATM   17  C6  UNL     1      27.243   8.261  15.535  1.00  0.00    -0.027 C 
BRANCH  17  18
HETATM   18  C5  UNL     1      26.213   9.208  15.915  1.00  0.00     0.027 C 
BRANCH  18  19
HETATM   19  C4  UNL     1      24.952   9.157  15.136  1.00  0.00     0.010 C 
BRANCH  19  20
HETATM   20  C3  UNL     1      24.898   9.971  13.894  1.00  0.00     0.063 C 
BRANCH  20  21
HETATM   21  C2  UNL     1      25.126   9.089  12.699  1.00  0.00     0.034 C 
HETATM   22  C1  UNL     1      26.175   9.288  11.922  1.00  0.00     0.045 C 
BRANCH  21  23
HETATM   23  O1  UNL     1      24.222   8.087  12.454  1.00  0.00    -0.366 OA
ATOM     24  H1  UNL     1      24.225   7.275  12.947  1.00  0.00     0.217 HD
ENDBRANCH  21  23
ENDBRANCH  20  21
ENDBRANCH  19  20
ENDBRANCH  18  19
ENDBRANCH  17  18
ENDBRANCH   1  16
TORSDOF 15
ENDMDL
MODEL 5
REMARK VINA RESULT: -7.038913271      3.519      8.824
REMARK  15 active torsions:
REMARK  status: ('A' for Active; 'I' for Inactive)
REMARK    1  A    between atoms: C2_2  and  O1_3 
REMARK    2  A    between atoms: C2_2  and  C3_5 
REMARK    3  A    between atoms: C3_5  and  C4_6 
REMARK    4  A    between atoms: C4_6  and  C5_7 
REMARK    5  A    between atoms: C5_7  and  C6_8 
REMARK    6  A    between atoms: C7_9  and  C8_10 
REMARK    7  A    between atoms: C9_11  and  C11_13 
REMARK    8  A    between atoms: C11_13  and  C12_14 
REMARK    9  A    between atoms: C12_14  and  C13_15 
REMARK   10  A    between atoms: C13_15  and  O2_16 
REMARK   11  A    between atoms: C13_15  and  C14_18 
REMARK   12  A    between atoms: C14_18  and  C15_19 
REMARK   13  A    between atoms: C15_19  and  C16_20 
REMARK   14  A    between atoms: C16_20  and  C17_21 
REMARK   15  A    between atoms: C17_21  and  C18_22 
ROOT
HETATM    1  C8  UNL     1      27.780   8.312  14.748  1.00  0.00     0.002 C 
HETATM    2  C9  UNL     1      28.258   8.240  13.530  1.00  0.00    -0.084 C 
HETATM    3  C10 UNL     1      27.588   8.978  12.442  1.00  0.00     0.043 C 
ENDROOT
BRANCH   2   4
HETATM    4  C11 UNL     1      29.456   7.432  13.234  1.00  0.00     0.036 C 
BRANCH   4   5
HETATM    5  C12 UNL     1      29.378   6.162  14.074  1.00  0.00     0.036 C 
BRANCH   5   6
HETATM    6  C13 UNL     1      30.785   5.573  14.258  1.00  0.00     0.118 C 
BRANCH   6   7
HETATM    7  O2  UNL     1      31.484   5.945  13.083  1.00  0.00    -0.396 OA
ATOM      8  H2  UNL     1      32.113   5.247  12.948  1.00  0.00     0.210 HD
ENDBRANCH   6   7
BRANCH   6   9
HETATM    9  C14 UNL     1      31.469   6.210  15.413  1.00  0.00     0.032 C 
BRANCH   9  10
HETATM   10  C15 UNL     1      32.195   7.466  15.169  1.00  0.00     0.003 C 
BRANCH  10  11
HETATM   11  C16 UNL     1      31.620   8.724  15.688  1.00  0.00     0.007 C 
BRANCH  11  12
HETATM   12  C17 UNL     1      32.165   8.943  17.107  1.00  0.00     0.077 C 
BRANCH  12  13
HETATM   13  C18 UNL     1      31.114   8.772  18.126  1.00  0.00     0.123 C 
HETATM   14  C19 UNL     1      29.687   8.909  17.737  1.00  0.00     0.091 C 
HETATM   15  O3  UNL     1      31.379   8.522  19.282  1.00  0.00    -0.298 OA
ENDBRANCH  12  13
ENDBRANCH  11  12
ENDBRANCH  10  11
ENDBRANCH   9  10
ENDBRANCH   6   9
ENDBRANCH   5   6
ENDBRANCH   4   5
ENDBRANCH   2   4
BRANCH   1  16
HETATM   16  C7  UNL     1      26.573   9.130  15.039  1.00  0.00    -0.004 C 
HETATM   17  C6  UNL     1      25.506   8.583  15.542  1.00  0.00    -0.027 C 
BRANCH  17  18
HETATM   18  C5  UNL     1      24.279   9.291  15.855  1.00  0.00     0.027 C 
BRANCH  18  19
HETATM   19  C4  UNL     1      24.400  10.434  16.792  1.00  0.00     0.010 C 
BRANCH  19  20
HETATM   20  C3  UNL     1      24.273  10.130  18.241  1.00  0.00     0.063 C 
BRANCH  20  21
HETATM   21  C2  UNL     1      25.634  10.124  18.878  1.00  0.00     0.034 C 
HETATM   22  C1  UNL     1      26.607  10.856  18.366  1.00  0.00     0.045 C 
BRANCH  21  23
HETATM   23  O1  UNL     1      25.823   9.345  19.991  1.00  0.00    -0.366 OA
ATOM     24  H1  UNL     1      25.624   8.416  19.993  1.00  0.00     0.217 HD
ENDBRANCH  21  23
ENDBRANCH  20  21
ENDBRANCH  19  20
ENDBRANCH  18  19
ENDBRANCH  17  18
ENDBRANCH   1  16
TORSDOF 15
ENDMDL
