MODEL 1
REMARK VINA RESULT: -7.339157766      0.000      0.000
REMARK  14 active torsions:
REMARK  status: ('A' for Active; 'I' for Inactive)
REMARK    1  A    between atoms: C2_2  and  C3_3 
REMARK    2  A    between atoms: C3_3  and  C4_4 
REMARK    3  A    between atoms: C4_4  and  C5_5 
REMARK    4  A    between atoms: C5_5  and  C6_6 
REMARK    5  A    between atoms: C6_6  and  O1_7 
REMARK    6  A    between atoms: C6_6  and  C7_9 
REMARK    7  A    between atoms: C7_9  and  C8_10 
REMARK    8  A    between atoms: C8_10  and  S1_11 
REMARK    9  A    between atoms: S1_11  and  C9_12 
REMARK   10  A    between atoms: C9_12  and  C10_13 
REMARK   11  A    between atoms: C10_13  and  C11_14 
REMARK   12  A    between atoms: C13_17  and  C14_18 
REMARK   13  A    between atoms: C14_18  and  C15_19 
REMARK   14  A    between atoms: C17_21  and  O3_22 
ROOT
HETATM    1  C9  UNL     1      30.960   8.970  15.802  1.00  0.00     0.080 C 
ENDROOT
BRANCH   1   2
HETATM    2  S1  UNL     1      32.381   7.876  15.511  1.00  0.00    -0.169 SA
BRANCH   2   3
HETATM    3  C8  UNL     1      31.759   6.213  15.129  1.00  0.00     0.076 C 
BRANCH   3   4
HETATM    4  C7  UNL     1      31.974   5.871  13.650  1.00  0.00     0.042 C 
BRANCH   4   5
HETATM    5  C6  UNL     1      31.052   4.706  13.361  1.00  0.00     0.118 C 
BRANCH   5   6
HETATM    6  C5  UNL     1      31.524   3.842  12.250  1.00  0.00     0.032 C 
BRANCH   6   7
HETATM    7  C4  UNL     1      32.870   3.260  12.315  1.00  0.00     0.006 C 
BRANCH   7   8
HETATM    8  C3  UNL     1      33.927   3.647  11.370  1.00  0.00     0.026 C 
BRANCH   8   9
HETATM    9  C2  UNL     1      35.173   4.221  11.872  1.00  0.00    -0.037 C 
HETATM   10  C1  UNL     1      36.392   3.917  11.427  1.00  0.00     0.007 C 
ENDBRANCH   8   9
ENDBRANCH   7   8
ENDBRANCH   6   7
ENDBRANCH   5   6
BRANCH   5  11
HETATM   11  O1  UNL     1      29.809   5.259  12.927  1.00  0.00    -0.396 OA
ATOM     12  H1  UNL     1      29.611   5.963  13.534  1.00  0.00     0.210 HD
ENDBRANCH   5  11
ENDBRANCH   4   5
ENDBRANCH   3   4
ENDBRANCH   2   3
ENDBRANCH   1   2
BRANCH   1  13
HETATM   13  C10 UNL     1      29.674   8.128  15.747  1.00  0.00     0.078 C 
BRANCH  13  14
HETATM   14  C11 UNL     1      28.963   8.381  14.460  1.00  0.00     0.086 A 
HETATM   15  O2  UNL     1      29.401   8.412  13.231  1.00  0.00    -0.324 OA
HETATM   16  C12 UNL     1      28.421   8.677  12.390  1.00  0.00     0.152 A 
HETATM   17  C13 UNL     1      27.244   8.836  13.081  1.00  0.00    -0.000 A 
HETATM   18  C17 UNL     1      27.595   8.644  14.421  1.00  0.00     0.103 A 
BRANCH  17  19
HETATM   19  C14 UNL     1      25.947   9.134  12.492  1.00  0.00     0.043 C 
BRANCH  19  20
HETATM   20  C15 UNL     1      25.952   9.463  11.035  1.00  0.00     0.000 C 
HETATM   21  C16 UNL     1      25.005  10.577  10.741  1.00  0.00     0.005 C 
ENDBRANCH  19  20
ENDBRANCH  17  19
BRANCH  18  22
HETATM   22  O3  UNL     1      26.682   8.723  15.441  1.00  0.00    -0.358 OA
ATOM     23  H3  UNL     1      25.733   8.701  15.415  1.00  0.00     0.217 HD
ENDBRANCH  18  22
ENDBRANCH  13  14
ENDBRANCH   1  13
TORSDOF 14
ENDMDL
MODEL 2
REMARK VINA RESULT: -7.281137526      0.549      1.331
REMARK  14 active torsions:
REMARK  status: ('A' for Active; 'I' for Inactive)
REMARK    1  A    between atoms: C2_2  and  C3_3 
REMARK    2  A    between atoms: C3_3  and  C4_4 
REMARK    3  A    between atoms: C4_4  and  C5_5 
REMARK    4  A    between atoms: C5_5  and  C6_6 
REMARK    5  A    between atoms: C6_6  and  O1_7 
REMARK    6  A    between atoms: C6_6  and  C7_9 
REMARK    7  A    between atoms: C7_9  and  C8_10 
REMARK    8  A    between atoms: C8_10  and  S1_11 
REMARK    9  A    between atoms: S1_11  and  C9_12 
REMARK   10  A    between atoms: C9_12  and  C10_13 
REMARK   11  A    between atoms: C10_13  and  C11_14 
REMARK   12  A    between atoms: C13_17  and  C14_18 
REMARK   13  A    between atoms: C14_18  and  C15_19 
REMARK   14  A    between atoms: C17_21  and  O3_22 
ROOT
HETATM    1  C9  UNL     1      30.726   8.844  15.702  1.00  0.00     0.080 C 
ENDROOT
BRANCH   1   2
HETATM    2  S1  UNL     1      32.228   7.848  15.473  1.00  0.00    -0.169 SA
BRANCH   2   3
HETATM    3  C8  UNL     1      31.735   6.142  15.093  1.00  0.00     0.076 C 
BRANCH   3   4
HETATM    4  C7  UNL     1      32.009   5.803  13.623  1.00  0.00     0.042 C 
BRANCH   4   5
HETATM    5  C6  UNL     1      31.143   4.602  13.311  1.00  0.00     0.118 C 
BRANCH   5   6
HETATM    6  C5  UNL     1      31.663   3.774  12.193  1.00  0.00     0.032 C 
BRANCH   6   7
HETATM    7  C4  UNL     1      33.023   3.227  12.277  1.00  0.00     0.006 C 
BRANCH   7   8
HETATM    8  C3  UNL     1      34.092   3.669  11.370  1.00  0.00     0.026 C 
BRANCH   8   9
HETATM    9  C2  UNL     1      35.404   4.013  11.911  1.00  0.00    -0.037 C 
HETATM   10  C1  UNL     1      36.554   3.442  11.553  1.00  0.00     0.007 C 
ENDBRANCH   8   9
ENDBRANCH   7   8
ENDBRANCH   6   7
ENDBRANCH   5   6
BRANCH   5  11
HETATM   11  O1  UNL     1      29.881   5.106  12.871  1.00  0.00    -0.396 OA
ATOM     12  H1  UNL     1      29.508   4.427  12.320  1.00  0.00     0.210 HD
ENDBRANCH   5  11
ENDBRANCH   4   5
ENDBRANCH   3   4
ENDBRANCH   2   3
ENDBRANCH   1   2
BRANCH   1  13
HETATM   13  C10 UNL     1      29.523   7.894  15.829  1.00  0.00     0.078 C 
BRANCH  13  14
HETATM   14  C11 UNL     1      28.432   8.342  14.916  1.00  0.00     0.086 A 
HETATM   15  O2  UNL     1      27.207   8.720  15.164  1.00  0.00    -0.324 OA
HETATM   16  C12 UNL     1      26.577   9.034  14.049  1.00  0.00     0.152 A 
HETATM   17  C13 UNL     1      27.417   8.863  12.975  1.00  0.00    -0.000 A 
HETATM   18  C17 UNL     1      28.617   8.415  13.536  1.00  0.00     0.103 A 
BRANCH  17  19
HETATM   19  C14 UNL     1      27.076   9.112  11.583  1.00  0.00     0.043 C 
BRANCH  19  20
HETATM   20  C15 UNL     1      25.618   9.218  11.277  1.00  0.00     0.000 C 
HETATM   21  C16 UNL     1      25.246  10.626  10.953  1.00  0.00     0.005 C 
ENDBRANCH  19  20
ENDBRANCH  17  19
BRANCH  18  22
HETATM   22  O3  UNL     1      29.723   8.125  12.778  1.00  0.00    -0.358 OA
ATOM     23  H3  UNL     1      30.180   8.656  12.137  1.00  0.00     0.217 HD
ENDBRANCH  18  22
ENDBRANCH  13  14
ENDBRANCH   1  13
TORSDOF 14
ENDMDL
MODEL 3
REMARK VINA RESULT: -7.025779570      2.321      7.353
REMARK  14 active torsions:
REMARK  status: ('A' for Active; 'I' for Inactive)
REMARK    1  A    between atoms: C2_2  and  C3_3 
REMARK    2  A    between atoms: C3_3  and  C4_4 
REMARK    3  A    between atoms: C4_4  and  C5_5 
REMARK    4  A    between atoms: C5_5  and  C6_6 
REMARK    5  A    between atoms: C6_6  and  O1_7 
REMARK    6  A    between atoms: C6_6  and  C7_9 
REMARK    7  A    between atoms: C7_9  and  C8_10 
REMARK    8  A    between atoms: C8_10  and  S1_11 
REMARK    9  A    between atoms: S1_11  and  C9_12 
REMARK   10  A    between atoms: C9_12  and  C10_13 
REMARK   11  A    between atoms: C10_13  and  C11_14 
REMARK   12  A    between atoms: C13_17  and  C14_18 
REMARK   13  A    between atoms: C14_18  and  C15_19 
REMARK   14  A    between atoms: C17_21  and  O3_22 
ROOT
HETATM    1  C9  UNL     1      27.476   7.834  15.404  1.00  0.00     0.080 C 
ENDROOT
BRANCH   1   2
HETATM    2  S1  UNL     1      27.245   8.952  16.817  1.00  0.00    -0.169 SA
BRANCH   2   3
HETATM    3  C8  UNL     1      26.002  10.197  16.369  1.00  0.00     0.076 C 
BRANCH   3   4
HETATM    4  C7  UNL     1      24.583   9.682  16.640  1.00  0.00     0.042 C 
BRANCH   4   5
HETATM    5  C6  UNL     1      23.933   9.538  15.280  1.00  0.00     0.118 C 
BRANCH   5   6
HETATM    6  C5  UNL     1      24.801   9.986  14.161  1.00  0.00     0.032 C 
BRANCH   6   7
HETATM    7  C4  UNL     1      24.994   9.103  13.005  1.00  0.00     0.006 C 
BRANCH   7   8
HETATM    8  C3  UNL     1      25.540   9.601  11.734  1.00  0.00     0.026 C 
BRANCH   8   9
HETATM    9  C2  UNL     1      26.702   8.945  11.140  1.00  0.00    -0.037 C 
HETATM   10  C1  UNL     1      27.934   9.452  11.107  1.00  0.00     0.007 C 
ENDBRANCH   8   9
ENDBRANCH   7   8
ENDBRANCH   6   7
ENDBRANCH   5   6
BRANCH   5  11
HETATM   11  O1  UNL     1      22.800  10.408  15.270  1.00  0.00    -0.396 OA
ATOM     12  H1  UNL     1      23.142  11.279  15.104  1.00  0.00     0.210 HD
ENDBRANCH   5  11
ENDBRANCH   4   5
ENDBRANCH   3   4
ENDBRANCH   2   3
ENDBRANCH   1   2
BRANCH   1  13
HETATM   13  C10 UNL     1      28.547   8.432  14.476  1.00  0.00     0.078 C 
BRANCH  13  14
HETATM   14  C11 UNL     1      29.841   7.718  14.676  1.00  0.00     0.086 A 
HETATM   15  O2  UNL     1      30.919   8.064  15.326  1.00  0.00    -0.324 OA
HETATM   16  C12 UNL     1      31.839   7.122  15.244  1.00  0.00     0.152 A 
HETATM   17  C13 UNL     1      31.364   6.071  14.498  1.00  0.00    -0.000 A 
HETATM   18  C17 UNL     1      30.072   6.456  14.130  1.00  0.00     0.103 A 
BRANCH  17  19
HETATM   19  C14 UNL     1      32.094   4.850  14.193  1.00  0.00     0.043 C 
BRANCH  19  20
HETATM   20  C15 UNL     1      32.846   4.843  12.903  1.00  0.00     0.000 C 
HETATM   21  C16 UNL     1      32.174   3.964  11.902  1.00  0.00     0.005 C 
ENDBRANCH  19  20
ENDBRANCH  17  19
BRANCH  18  22
HETATM   22  O3  UNL     1      29.254   5.663  13.365  1.00  0.00    -0.358 OA
ATOM     23  H3  UNL     1      28.804   5.855  12.552  1.00  0.00     0.217 HD
ENDBRANCH  18  22
ENDBRANCH  13  14
ENDBRANCH   1  13
TORSDOF 14
ENDMDL
MODEL 4
REMARK VINA RESULT: -6.939109955      1.913      2.526
REMARK  14 active torsions:
REMARK  status: ('A' for Active; 'I' for Inactive)
REMARK    1  A    between atoms: C2_2  and  C3_3 
REMARK    2  A    between atoms: C3_3  and  C4_4 
REMARK    3  A    between atoms: C4_4  and  C5_5 
REMARK    4  A    between atoms: C5_5  and  C6_6 
REMARK    5  A    between atoms: C6_6  and  O1_7 
REMARK    6  A    between atoms: C6_6  and  C7_9 
REMARK    7  A    between atoms: C7_9  and  C8_10 
REMARK    8  A    between atoms: C8_10  and  S1_11 
REMARK    9  A    between atoms: S1_11  and  C9_12 
REMARK   10  A    between atoms: C9_12  and  C10_13 
REMARK   11  A    between atoms: C10_13  and  C11_14 
REMARK   12  A    between atoms: C13_17  and  C14_18 
REMARK   13  A    between atoms: C14_18  and  C15_19 
REMARK   14  A    between atoms: C17_21  and  O3_22 
ROOT
HETATM    1  C9  UNL     1      30.780   8.798  15.825  1.00  0.00     0.080 C 
ENDROOT
BRANCH   1   2
HETATM    2  S1  UNL     1      32.203   7.708  15.533  1.00  0.00    -0.169 SA
BRANCH   2   3
HETATM    3  C8  UNL     1      31.584   6.065  15.068  1.00  0.00     0.076 C 
BRANCH   3   4
HETATM    4  C7  UNL     1      31.930   5.737  13.611  1.00  0.00     0.042 C 
BRANCH   4   5
HETATM    5  C6  UNL     1      31.099   4.523  13.256  1.00  0.00     0.118 C 
BRANCH   5   6
HETATM    6  C5  UNL     1      31.671   3.721  12.145  1.00  0.00     0.032 C 
BRANCH   6   7
HETATM    7  C4  UNL     1      33.054   3.239  12.245  1.00  0.00     0.006 C 
BRANCH   7   8
HETATM    8  C3  UNL     1      34.110   3.726  11.345  1.00  0.00     0.026 C 
BRANCH   8   9
HETATM    9  C2  UNL     1      35.441   4.006  11.877  1.00  0.00    -0.037 C 
HETATM   10  C1  UNL     1      36.556   3.363  11.530  1.00  0.00     0.007 C 
ENDBRANCH   8   9
ENDBRANCH   7   8
ENDBRANCH   6   7
ENDBRANCH   5   6
BRANCH   5  11
HETATM   11  O1  UNL     1      29.842   5.008  12.783  1.00  0.00    -0.396 OA
ATOM     12  H1  UNL     1      29.208   4.330  12.987  1.00  0.00     0.210 HD
ENDBRANCH   5  11
ENDBRANCH   4   5
ENDBRANCH   3   4
ENDBRANCH   2   3
ENDBRANCH   1   2
BRANCH   1  13
HETATM   13  C10 UNL     1      29.604   8.311  14.962  1.00  0.00     0.078 C 
BRANCH  13  14
HETATM   14  C11 UNL     1      28.327   8.470  15.718  1.00  0.00     0.086 A 
HETATM   15  O2  UNL     1      28.098   8.591  16.997  1.00  0.00    -0.324 OA
HETATM   16  C12 UNL     1      26.806   8.707  17.233  1.00  0.00     0.152 A 
HETATM   17  C13 UNL     1      26.110   8.665  16.049  1.00  0.00    -0.000 A 
HETATM   18  C17 UNL     1      27.095   8.511  15.069  1.00  0.00     0.103 A 
BRANCH  17  19
HETATM   19  C14 UNL     1      24.665   8.765  15.910  1.00  0.00     0.043 C 
BRANCH  19  20
HETATM   20  C15 UNL     1      24.130  10.130  15.627  1.00  0.00     0.000 C 
HETATM   21  C16 UNL     1      22.854  10.362  16.365  1.00  0.00     0.005 C 
ENDBRANCH  19  20
ENDBRANCH  17  19
BRANCH  18  22
HETATM   22  O3  UNL     1      26.797   8.425  13.732  1.00  0.00    -0.358 OA
ATOM     23  H3  UNL     1      26.160   8.904  13.216  1.00  0.00     0.217 HD
ENDBRANCH  18  22
ENDBRANCH  13  14
ENDBRANCH   1  13
TORSDOF 14
ENDMDL
MODEL 5
REMARK VINA RESULT: -6.866255841      2.472      3.292
REMARK  14 active torsions:
REMARK  status: ('A' for Active; 'I' for Inactive)
REMARK    1  A    between atoms: C2_2  and  C3_3 
REMARK    2  A    between atoms: C3_3  and  C4_4 
REMARK    3  A    between atoms: C4_4  and  C5_5 
REMARK    4  A    between atoms: C5_5  and  C6_6 
REMARK    5  A    between atoms: C6_6  and  O1_7 
REMARK    6  A    between atoms: C6_6  and  C7_9 
REMARK    7  A    between atoms: C7_9  and  C8_10 
REMARK    8  A    between atoms: C8_10  and  S1_11 
REMARK    9  A    between atoms: S1_11  and  C9_12 
REMARK   10  A    between atoms: C9_12  and  C10_13 
REMARK   11  A    between atoms: C10_13  and  C11_14 
REMARK   12  A    between atoms: C13_17  and  C14_18 
REMARK   13  A    between atoms: C14_18  and  C15_19 
REMARK   14  A    between atoms: C17_21  and  O3_22 
ROOT
HETATM    1  C9  UNL     1      29.558   8.660  14.822  1.00  0.00     0.080 C 
ENDROOT
BRANCH   1   2
HETATM    2  S1  UNL     1      31.169   7.952  15.273  1.00  0.00    -0.169 SA
BRANCH   2   3
HETATM    3  C8  UNL     1      31.086   6.150  15.063  1.00  0.00     0.076 C 
BRANCH   3   4
HETATM    4  C7  UNL     1      31.847   5.706  13.808  1.00  0.00     0.042 C 
BRANCH   4   5
HETATM    5  C6  UNL     1      31.077   4.526  13.258  1.00  0.00     0.118 C 
BRANCH   5   6
HETATM    6  C5  UNL     1      31.732   3.887  12.088  1.00  0.00     0.032 C 
BRANCH   6   7
HETATM    7  C4  UNL     1      33.057   3.279  12.251  1.00  0.00     0.006 C 
BRANCH   7   8
HETATM    8  C3  UNL     1      34.174   3.605  11.352  1.00  0.00     0.026 C 
BRANCH   8   9
HETATM    9  C2  UNL     1      35.465   3.995  11.914  1.00  0.00    -0.037 C 
HETATM   10  C1  UNL     1      36.650   3.572  11.476  1.00  0.00     0.007 C 
ENDBRANCH   8   9
ENDBRANCH   7   8
ENDBRANCH   6   7
ENDBRANCH   5   6
BRANCH   5  11
HETATM   11  O1  UNL     1      29.829   5.033  12.780  1.00  0.00    -0.396 OA
ATOM     12  H1  UNL     1      29.557   5.689  13.411  1.00  0.00     0.210 HD
ENDBRANCH   5  11
ENDBRANCH   4   5
ENDBRANCH   3   4
ENDBRANCH   2   3
ENDBRANCH   1   2
BRANCH   1  13
HETATM   13  C10 UNL     1      28.477   7.582  15.018  1.00  0.00     0.078 C 
BRANCH  13  14
HETATM   14  C11 UNL     1      27.235   8.210  15.554  1.00  0.00     0.086 A 
HETATM   15  O2  UNL     1      26.080   8.442  14.991  1.00  0.00    -0.324 OA
HETATM   16  C12 UNL     1      25.253   9.023  15.838  1.00  0.00     0.152 A 
HETATM   17  C13 UNL     1      25.875   9.199  17.050  1.00  0.00    -0.000 A 
HETATM   18  C17 UNL     1      27.157   8.672  16.866  1.00  0.00     0.103 A 
BRANCH  17  19
HETATM   19  C14 UNL     1      25.277   9.804  18.230  1.00  0.00     0.043 C 
BRANCH  19  20
HETATM   20  C15 UNL     1      24.463  11.033  17.993  1.00  0.00     0.000 C 
HETATM   21  C16 UNL     1      23.019  10.772  18.261  1.00  0.00     0.005 C 
ENDBRANCH  19  20
ENDBRANCH  17  19
BRANCH  18  22
HETATM   22  O3  UNL     1      28.099   8.661  17.864  1.00  0.00    -0.358 OA
ATOM     23  H3  UNL     1      28.285   8.001  18.520  1.00  0.00     0.217 HD
ENDBRANCH  18  22
ENDBRANCH  13  14
ENDBRANCH   1  13
TORSDOF 14
ENDMDL
