MODEL 1
REMARK VINA RESULT: -5.521765094      0.000      0.000
REMARK  5 active torsions:
REMARK  status: ('A' for Active; 'I' for Inactive)
REMARK    1  A    between atoms: N1_2  and  C3_4 
REMARK    2  A    between atoms: C3_4  and  C4_5 
REMARK    3  A    between atoms: C4_5  and  C5_6 
REMARK    4  A    between atoms: C5_6  and  O1_7 
REMARK    5  A    between atoms: O1_7  and  C6_8 
ROOT
HETATM    1  C6  UNL     1      11.082  -8.560  21.476  1.00  0.00     0.216 C 
HETATM    2  C7  UNL     1      10.842  -9.810  22.209  1.00  0.00     0.053 C 
HETATM    3  C8  UNL     1       9.401  -9.792  22.705  1.00  0.00     0.004 C 
HETATM    4  C9  UNL     1       8.479 -10.427  21.721  1.00  0.00     0.002 C 
HETATM    5  C10 UNL     1       8.502  -9.815  20.364  1.00  0.00     0.019 C 
HETATM    6  C11 UNL     1       9.850  -9.714  19.724  1.00  0.00     0.116 C 
HETATM    7  N2  UNL     1      10.629  -8.588  20.094  1.00  0.00    -0.397 N 
ATOM      8  H2  UNL     1      10.858  -7.845  19.433  1.00  0.00     0.155 HD
ENDROOT
BRANCH   1   9
HETATM    9  O1  UNL     1      12.402  -8.143  21.516  1.00  0.00    -0.367 OA
BRANCH   9  10
HETATM   10  C5  UNL     1      13.222  -8.862  22.335  1.00  0.00     0.172 C 
BRANCH  10  11
HETATM   11  C4  UNL     1      14.647  -9.014  21.900  1.00  0.00     0.056 C 
BRANCH  11  12
HETATM   12  C3  UNL     1      14.969 -10.470  21.714  1.00  0.00     0.273 C 
BRANCH  12  13
HETATM   13  N1  UNL     1      15.739 -10.718  20.517  1.00  0.00     0.080 N 
HETATM   14  C1  UNL     1      17.141 -10.524  20.640  1.00  0.00     0.309 C 
HETATM   15  C2  UNL     1      15.427 -11.930  19.836  1.00  0.00     0.309 C 
ENDBRANCH  12  13
ENDBRANCH  11  12
ENDBRANCH  10  11
ENDBRANCH   9  10
ENDBRANCH   1   9
TORSDOF 5
ENDMDL
MODEL 2
REMARK VINA RESULT: -5.479108867      0.812      1.220
REMARK  5 active torsions:
REMARK  status: ('A' for Active; 'I' for Inactive)
REMARK    1  A    between atoms: N1_2  and  C3_4 
REMARK    2  A    between atoms: C3_4  and  C4_5 
REMARK    3  A    between atoms: C4_5  and  C5_6 
REMARK    4  A    between atoms: C5_6  and  O1_7 
REMARK    5  A    between atoms: O1_7  and  C6_8 
ROOT
HETATM    1  C6  UNL     1      11.100  -8.566  21.569  1.00  0.00     0.216 C 
HETATM    2  C7  UNL     1      10.841  -9.831  22.272  1.00  0.00     0.053 C 
HETATM    3  C8  UNL     1       9.388  -9.821  22.729  1.00  0.00     0.004 C 
HETATM    4  C9  UNL     1       8.492 -10.436  21.710  1.00  0.00     0.002 C 
HETATM    5  C10 UNL     1       8.550  -9.797  20.366  1.00  0.00     0.019 C 
HETATM    6  C11 UNL     1       9.915  -9.684  19.763  1.00  0.00     0.116 C 
HETATM    7  N2  UNL     1      10.683  -8.566  20.176  1.00  0.00    -0.397 N 
ATOM      8  H2  UNL     1      10.929  -7.809  19.536  1.00  0.00     0.155 HD
ENDROOT
BRANCH   1   9
HETATM    9  O1  UNL     1      12.418  -8.150  21.652  1.00  0.00    -0.367 OA
BRANCH   9  10
HETATM   10  C5  UNL     1      13.315  -9.106  22.033  1.00  0.00     0.172 C 
BRANCH  10  11
HETATM   11  C4  UNL     1      14.747  -8.876  21.660  1.00  0.00     0.056 C 
BRANCH  11  12
HETATM   12  C3  UNL     1      15.358 -10.162  21.178  1.00  0.00     0.273 C 
BRANCH  12  13
HETATM   13  N1  UNL     1      16.670 -10.394  21.738  1.00  0.00     0.080 N 
HETATM   14  C1  UNL     1      17.709 -10.605  20.792  1.00  0.00     0.309 C 
HETATM   15  C2  UNL     1      17.060  -9.488  22.765  1.00  0.00     0.309 C 
ENDBRANCH  12  13
ENDBRANCH  11  12
ENDBRANCH  10  11
ENDBRANCH   9  10
ENDBRANCH   1   9
TORSDOF 5
ENDMDL
MODEL 3
REMARK VINA RESULT: -5.359619240      1.596      1.872
REMARK  5 active torsions:
REMARK  status: ('A' for Active; 'I' for Inactive)
REMARK    1  A    between atoms: N1_2  and  C3_4 
REMARK    2  A    between atoms: C3_4  and  C4_5 
REMARK    3  A    between atoms: C4_5  and  C5_6 
REMARK    4  A    between atoms: C5_6  and  O1_7 
REMARK    5  A    between atoms: O1_7  and  C6_8 
ROOT
HETATM    1  C6  UNL     1      10.832 -10.179  22.956  1.00  0.00     0.216 C 
HETATM    2  C7  UNL     1      10.759 -11.331  22.046  1.00  0.00     0.053 C 
HETATM    3  C8  UNL     1       9.301 -11.522  21.650  1.00  0.00     0.004 C 
HETATM    4  C9  UNL     1       8.972 -10.772  20.405  1.00  0.00     0.002 C 
HETATM    5  C10 UNL     1       9.237  -9.309  20.474  1.00  0.00     0.019 C 
HETATM    6  C11 UNL     1      10.623  -8.922  20.884  1.00  0.00     0.116 C 
HETATM    7  N2  UNL     1      10.869  -8.892  22.281  1.00  0.00    -0.397 N 
ATOM      8  H2  UNL     1      11.060  -8.023  22.780  1.00  0.00     0.155 HD
ENDROOT
BRANCH   1   9
HETATM    9  O1  UNL     1      11.881 -10.254  23.856  1.00  0.00    -0.367 OA
BRANCH   9  10
HETATM   10  C5  UNL     1      12.928  -9.413  23.612  1.00  0.00     0.172 C 
BRANCH  10  11
HETATM   11  C4  UNL     1      14.100  -9.987  22.878  1.00  0.00     0.056 C 
BRANCH  11  12
HETATM   12  C3  UNL     1      14.550  -9.029  21.812  1.00  0.00     0.273 C 
BRANCH  12  13
HETATM   13  N1  UNL     1      15.900  -9.289  21.367  1.00  0.00     0.080 N 
HETATM   14  C1  UNL     1      16.897  -9.235  22.377  1.00  0.00     0.309 C 
HETATM   15  C2  UNL     1      16.052 -10.430  20.529  1.00  0.00     0.309 C 
ENDBRANCH  12  13
ENDBRANCH  11  12
ENDBRANCH  10  11
ENDBRANCH   9  10
ENDBRANCH   1   9
TORSDOF 5
ENDMDL
MODEL 4
REMARK VINA RESULT: -5.283164666      1.363      1.746
REMARK  5 active torsions:
REMARK  status: ('A' for Active; 'I' for Inactive)
REMARK    1  A    between atoms: N1_2  and  C3_4 
REMARK    2  A    between atoms: C3_4  and  C4_5 
REMARK    3  A    between atoms: C4_5  and  C5_6 
REMARK    4  A    between atoms: C5_6  and  O1_7 
REMARK    5  A    between atoms: O1_7  and  C6_8 
ROOT
HETATM    1  C6  UNL     1      11.007 -10.189  21.329  1.00  0.00     0.216 C 
HETATM    2  C7  UNL     1      10.046 -10.864  22.212  1.00  0.00     0.053 C 
HETATM    3  C8  UNL     1       9.085  -9.811  22.748  1.00  0.00     0.004 C 
HETATM    4  C9  UNL     1       7.884  -9.675  21.877  1.00  0.00     0.002 C 
HETATM    5  C10 UNL     1       8.182  -9.339  20.457  1.00  0.00     0.019 C 
HETATM    6  C11 UNL     1       9.145 -10.252  19.766  1.00  0.00     0.116 C 
HETATM    7  N2  UNL     1      10.520  -9.976  19.975  1.00  0.00    -0.397 N 
ATOM      8  H2  UNL     1      11.129  -9.648  19.225  1.00  0.00     0.155 HD
ENDROOT
BRANCH   1   9
HETATM    9  O1  UNL     1      12.241 -10.816  21.277  1.00  0.00    -0.367 OA
BRANCH   9  10
HETATM   10  C5  UNL     1      13.028 -10.661  22.381  1.00  0.00     0.172 C 
BRANCH  10  11
HETATM   11  C4  UNL     1      13.551  -9.284  22.650  1.00  0.00     0.056 C 
BRANCH  11  12
HETATM   12  C3  UNL     1      14.604  -8.934  21.637  1.00  0.00     0.273 C 
BRANCH  12  13
HETATM   13  N1  UNL     1      15.761  -9.795  21.721  1.00  0.00     0.080 N 
HETATM   14  C1  UNL     1      16.170 -10.390  20.497  1.00  0.00     0.309 C 
HETATM   15  C2  UNL     1      16.863  -9.260  22.447  1.00  0.00     0.309 C 
ENDBRANCH  12  13
ENDBRANCH  11  12
ENDBRANCH  10  11
ENDBRANCH   9  10
ENDBRANCH   1   9
TORSDOF 5
ENDMDL
MODEL 5
REMARK VINA RESULT: -5.277207329      1.464      1.970
REMARK  5 active torsions:
REMARK  status: ('A' for Active; 'I' for Inactive)
REMARK    1  A    between atoms: N1_2  and  C3_4 
REMARK    2  A    between atoms: C3_4  and  C4_5 
REMARK    3  A    between atoms: C4_5  and  C5_6 
REMARK    4  A    between atoms: C5_6  and  O1_7 
REMARK    5  A    between atoms: O1_7  and  C6_8 
ROOT
HETATM    1  C6  UNL     1      10.588 -10.233  21.113  1.00  0.00     0.216 C 
HETATM    2  C7  UNL     1       9.537 -10.923  21.873  1.00  0.00     0.053 C 
HETATM    3  C8  UNL     1       8.661  -9.862  22.527  1.00  0.00     0.004 C 
HETATM    4  C9  UNL     1       7.509  -9.494  21.655  1.00  0.00     0.002 C 
HETATM    5  C10 UNL     1       7.888  -9.002  20.302  1.00  0.00     0.019 C 
HETATM    6  C11 UNL     1       8.784  -9.904  19.514  1.00  0.00     0.116 C 
HETATM    7  N2  UNL     1      10.171  -9.794  19.790  1.00  0.00    -0.397 N 
ATOM      8  H2  UNL     1      10.834  -9.431  19.105  1.00  0.00     0.155 HD
ENDROOT
BRANCH   1   9
HETATM    9  O1  UNL     1      11.758 -10.965  21.003  1.00  0.00    -0.367 OA
BRANCH   9  10
HETATM   10  C5  UNL     1      12.152 -11.620  22.134  1.00  0.00     0.172 C 
BRANCH  10  11
HETATM   11  C4  UNL     1      13.613 -11.915  22.270  1.00  0.00     0.056 C 
BRANCH  11  12
HETATM   12  C3  UNL     1      14.345 -11.427  21.052  1.00  0.00     0.273 C 
BRANCH  12  13
HETATM   13  N1  UNL     1      15.350 -10.438  21.368  1.00  0.00     0.080 N 
HETATM   14  C1  UNL     1      16.468 -10.401  20.493  1.00  0.00     0.309 C 
HETATM   15  C2  UNL     1      14.850  -9.135  21.649  1.00  0.00     0.309 C 
ENDBRANCH  12  13
ENDBRANCH  11  12
ENDBRANCH  10  11
ENDBRANCH   9  10
ENDBRANCH   1   9
TORSDOF 5
ENDMDL
