MODEL 1
REMARK VINA RESULT: -6.068902013      0.000      0.000
REMARK  6 active torsions:
REMARK  status: ('A' for Active; 'I' for Inactive)
REMARK    1  A    between atoms: N1_1  and  C1_5 
REMARK    2  A    between atoms: C1_5  and  C2_6 
REMARK    3  A    between atoms: C2_6  and  C3_7 
REMARK    4  A    between atoms: C3_7  and  N2_8 
REMARK    5  A    between atoms: C7_12  and  C8_13 
REMARK    6  A    between atoms: C8_13  and  C9_14 
ROOT
HETATM    1  N2  UNL     1      11.718 -10.350  21.925  1.00  0.00     0.088 N 
HETATM    2  C4  UNL     1      11.507 -11.008  23.218  1.00  0.00     0.272 C 
HETATM    3  C5  UNL     1      10.597 -12.167  22.947  1.00  0.00     0.031 C 
HETATM    4  C6  UNL     1       9.787 -11.947  21.657  1.00  0.00     0.008 C 
HETATM    5  C7  UNL     1       9.278 -10.561  21.686  1.00  0.00     0.016 C 
HETATM    6  C12 UNL     1      10.490  -9.603  21.713  1.00  0.00     0.277 C 
ENDROOT
BRANCH   1   7
HETATM    7  C3  UNL     1      12.772  -9.357  22.041  1.00  0.00     0.274 C 
BRANCH   7   8
HETATM    8  C2  UNL     1      14.115 -10.062  21.918  1.00  0.00     0.057 C 
BRANCH   8   9
HETATM    9  C1  UNL     1      15.198  -9.002  21.959  1.00  0.00     0.231 C 
BRANCH   9  10
HETATM   10  N1  UNL     1      15.520  -8.609  20.587  1.00  0.00    -0.079 N 
ATOM     11  H13 UNL     1      16.525  -8.555  20.422  1.00  0.00     0.274 HD
ATOM     12  H12 UNL     1      15.306  -9.341  19.911  1.00  0.00     0.274 HD
ATOM     13  H11 UNL     1      15.043  -7.732  20.378  1.00  0.00     0.274 HD
ENDBRANCH   9  10
ENDBRANCH   8   9
ENDBRANCH   7   8
ENDBRANCH   1   7
BRANCH   5  14
HETATM   14  C8  UNL     1       8.371 -10.099  20.641  1.00  0.00     0.038 C 
BRANCH  14  15
HETATM   15  C9  UNL     1       7.666  -8.830  20.722  1.00  0.00     0.123 C 
HETATM   16  C10 UNL     1       6.473  -8.781  21.692  1.00  0.00     0.058 C 
HETATM   17  C11 UNL     1       6.166  -7.639  20.740  1.00  0.00     0.170 C 
HETATM   18  O1  UNL     1       6.880  -8.332  19.727  1.00  0.00    -0.386 OA
ENDBRANCH  14  15
ENDBRANCH   5  14
TORSDOF 6
ENDMDL
MODEL 2
REMARK VINA RESULT: -5.920261664      0.993      1.142
REMARK  6 active torsions:
REMARK  status: ('A' for Active; 'I' for Inactive)
REMARK    1  A    between atoms: N1_1  and  C1_5 
REMARK    2  A    between atoms: C1_5  and  C2_6 
REMARK    3  A    between atoms: C2_6  and  C3_7 
REMARK    4  A    between atoms: C3_7  and  N2_8 
REMARK    5  A    between atoms: C7_12  and  C8_13 
REMARK    6  A    between atoms: C8_13  and  C9_14 
ROOT
HETATM    1  N2  UNL     1      12.266 -11.316  21.715  1.00  0.00     0.088 N 
HETATM    2  C4  UNL     1      12.042 -11.771  23.090  1.00  0.00     0.272 C 
HETATM    3  C5  UNL     1      10.703 -12.445  23.089  1.00  0.00     0.031 C 
HETATM    4  C6  UNL     1       9.835 -11.952  21.917  1.00  0.00     0.008 C 
HETATM    5  C7  UNL     1       9.955 -10.481  21.867  1.00  0.00     0.016 C 
HETATM    6  C12 UNL     1      11.437 -10.127  21.606  1.00  0.00     0.277 C 
ENDROOT
BRANCH   1   7
HETATM    7  C3  UNL     1      13.636 -10.860  21.561  1.00  0.00     0.274 C 
BRANCH   7   8
HETATM    8  C2  UNL     1      13.732  -9.435  22.083  1.00  0.00     0.057 C 
BRANCH   8   9
HETATM    9  C1  UNL     1      15.184  -9.006  21.993  1.00  0.00     0.231 C 
BRANCH   9  10
HETATM   10  N1  UNL     1      15.479  -8.643  20.607  1.00  0.00    -0.079 N 
ATOM     11  H13 UNL     1      16.390  -8.196  20.506  1.00  0.00     0.274 HD
ATOM     12  H12 UNL     1      15.657  -9.458  20.020  1.00  0.00     0.274 HD
ATOM     13  H11 UNL     1      14.719  -8.064  20.252  1.00  0.00     0.274 HD
ENDBRANCH   9  10
ENDBRANCH   8   9
ENDBRANCH   7   8
ENDBRANCH   1   7
BRANCH   5  14
HETATM   14  C8  UNL     1       9.145  -9.719  20.923  1.00  0.00     0.038 C 
BRANCH  14  15
HETATM   15  C9  UNL     1       7.744  -9.412  21.165  1.00  0.00     0.123 C 
HETATM   16  C10 UNL     1       7.114  -8.361  20.236  1.00  0.00     0.058 C 
HETATM   17  C11 UNL     1       6.198  -8.317  21.446  1.00  0.00     0.170 C 
HETATM   18  O1  UNL     1       7.294  -8.724  22.252  1.00  0.00    -0.386 OA
ENDBRANCH  14  15
ENDBRANCH   5  14
TORSDOF 6
ENDMDL
MODEL 3
REMARK VINA RESULT: -5.896514772      1.345      1.698
REMARK  6 active torsions:
REMARK  status: ('A' for Active; 'I' for Inactive)
REMARK    1  A    between atoms: N1_1  and  C1_5 
REMARK    2  A    between atoms: C1_5  and  C2_6 
REMARK    3  A    between atoms: C2_6  and  C3_7 
REMARK    4  A    between atoms: C3_7  and  N2_8 
REMARK    5  A    between atoms: C7_12  and  C8_13 
REMARK    6  A    between atoms: C8_13  and  C9_14 
ROOT
HETATM    1  N2  UNL     1      12.723 -10.172  22.288  1.00  0.00     0.088 N 
HETATM    2  C4  UNL     1      13.014 -11.352  23.108  1.00  0.00     0.272 C 
HETATM    3  C5  UNL     1      11.942 -12.350  22.789  1.00  0.00     0.031 C 
HETATM    4  C6  UNL     1      10.687 -11.655  22.230  1.00  0.00     0.008 C 
HETATM    5  C7  UNL     1      10.414 -10.481  23.082  1.00  0.00     0.016 C 
HETATM    6  C12 UNL     1      11.626  -9.526  22.989  1.00  0.00     0.277 C 
ENDROOT
BRANCH   1   7
HETATM    7  C3  UNL     1      13.836  -9.240  22.349  1.00  0.00     0.274 C 
BRANCH   7   8
HETATM    8  C2  UNL     1      15.130 -10.038  22.408  1.00  0.00     0.057 C 
BRANCH   8   9
HETATM    9  C1  UNL     1      15.842  -9.864  21.081  1.00  0.00     0.231 C 
BRANCH   9  10
HETATM   10  N1  UNL     1      15.505  -8.548  20.538  1.00  0.00    -0.079 N 
ATOM     11  H13 UNL     1      15.623  -7.802  21.223  1.00  0.00     0.274 HD
ATOM     12  H12 UNL     1      16.188  -8.221  19.855  1.00  0.00     0.274 HD
ATOM     13  H11 UNL     1      14.559  -8.583  20.159  1.00  0.00     0.274 HD
ENDBRANCH   9  10
ENDBRANCH   8   9
ENDBRANCH   7   8
ENDBRANCH   1   7
BRANCH   5  14
HETATM   14  C8  UNL     1       9.209  -9.690  22.863  1.00  0.00     0.038 C 
BRANCH  14  15
HETATM   15  C9  UNL     1       8.488  -9.695  21.600  1.00  0.00     0.123 C 
HETATM   16  C10 UNL     1       9.261  -9.164  20.381  1.00  0.00     0.058 C 
HETATM   17  C11 UNL     1       7.815  -9.002  19.947  1.00  0.00     0.170 C 
HETATM   18  O1  UNL     1       7.453  -8.856  21.312  1.00  0.00    -0.386 OA
ENDBRANCH  14  15
ENDBRANCH   5  14
TORSDOF 6
ENDMDL
MODEL 4
REMARK VINA RESULT: -5.812202839      1.617      2.075
REMARK  6 active torsions:
REMARK  status: ('A' for Active; 'I' for Inactive)
REMARK    1  A    between atoms: N1_1  and  C1_5 
REMARK    2  A    between atoms: C1_5  and  C2_6 
REMARK    3  A    between atoms: C2_6  and  C3_7 
REMARK    4  A    between atoms: C3_7  and  N2_8 
REMARK    5  A    between atoms: C7_12  and  C8_13 
REMARK    6  A    between atoms: C8_13  and  C9_14 
ROOT
HETATM    1  N2  UNL     1      13.155 -10.430  22.368  1.00  0.00     0.088 N 
HETATM    2  C4  UNL     1      13.188 -11.728  23.050  1.00  0.00     0.272 C 
HETATM    3  C5  UNL     1      11.937 -12.443  22.635  1.00  0.00     0.031 C 
HETATM    4  C6  UNL     1      10.858 -11.448  22.170  1.00  0.00     0.008 C 
HETATM    5  C7  UNL     1      10.822 -10.344  23.149  1.00  0.00     0.016 C 
HETATM    6  C12 UNL     1      12.205  -9.654  23.148  1.00  0.00     0.277 C 
ENDROOT
BRANCH   1   7
HETATM    7  C3  UNL     1      14.435  -9.760  22.519  1.00  0.00     0.274 C 
BRANCH   7   8
HETATM    8  C2  UNL     1      15.529 -10.690  22.018  1.00  0.00     0.057 C 
BRANCH   8   9
HETATM    9  C1  UNL     1      16.061 -10.119  20.718  1.00  0.00     0.231 C 
BRANCH   9  10
HETATM   10  N1  UNL     1      15.617  -8.730  20.600  1.00  0.00    -0.079 N 
ATOM     11  H13 UNL     1      14.876  -8.615  19.910  1.00  0.00     0.274 HD
ATOM     12  H12 UNL     1      15.097  -8.416  21.419  1.00  0.00     0.274 HD
ATOM     13  H11 UNL     1      16.428  -8.144  20.404  1.00  0.00     0.274 HD
ENDBRANCH   9  10
ENDBRANCH   8   9
ENDBRANCH   7   8
ENDBRANCH   1   7
BRANCH   5  14
HETATM   14  C8  UNL     1       9.808  -9.303  23.032  1.00  0.00     0.038 C 
BRANCH  14  15
HETATM   15  C9  UNL     1       8.386  -9.601  22.962  1.00  0.00     0.123 C 
HETATM   16  C10 UNL     1       7.781  -9.674  21.549  1.00  0.00     0.058 C 
HETATM   17  C11 UNL     1       6.563  -9.398  22.412  1.00  0.00     0.170 C 
HETATM   18  O1  UNL     1       7.407  -8.731  23.338  1.00  0.00    -0.386 OA
ENDBRANCH  14  15
ENDBRANCH   5  14
TORSDOF 6
ENDMDL
MODEL 5
REMARK VINA RESULT: -5.758891862      1.140      1.377
REMARK  6 active torsions:
REMARK  status: ('A' for Active; 'I' for Inactive)
REMARK    1  A    between atoms: N1_1  and  C1_5 
REMARK    2  A    between atoms: C1_5  and  C2_6 
REMARK    3  A    between atoms: C2_6  and  C3_7 
REMARK    4  A    between atoms: C3_7  and  N2_8 
REMARK    5  A    between atoms: C7_12  and  C8_13 
REMARK    6  A    between atoms: C8_13  and  C9_14 
ROOT
HETATM    1  N2  UNL     1      12.738 -10.317  22.125  1.00  0.00     0.088 N 
HETATM    2  C4  UNL     1      12.651 -10.759  23.520  1.00  0.00     0.272 C 
HETATM    3  C5  UNL     1      11.869 -12.037  23.500  1.00  0.00     0.031 C 
HETATM    4  C6  UNL     1      10.991 -12.131  22.238  1.00  0.00     0.008 C 
HETATM    5  C7  UNL     1      10.330 -10.823  22.062  1.00  0.00     0.016 C 
HETATM    6  C12 UNL     1      11.425  -9.752  21.859  1.00  0.00     0.277 C 
ENDROOT
BRANCH   1   7
HETATM    7  C3  UNL     1      13.676  -9.214  22.012  1.00  0.00     0.274 C 
BRANCH   7   8
HETATM    8  C2  UNL     1      15.014  -9.659  22.582  1.00  0.00     0.057 C 
BRANCH   8   9
HETATM    9  C1  UNL     1      16.079  -9.363  21.543  1.00  0.00     0.231 C 
BRANCH   9  10
HETATM   10  N1  UNL     1      15.498  -8.512  20.506  1.00  0.00    -0.079 N 
ATOM     11  H13 UNL     1      15.440  -8.982  19.602  1.00  0.00     0.274 HD
ATOM     12  H12 UNL     1      14.500  -8.353  20.645  1.00  0.00     0.274 HD
ATOM     13  H11 UNL     1      16.029  -7.643  20.460  1.00  0.00     0.274 HD
ENDBRANCH   9  10
ENDBRANCH   8   9
ENDBRANCH   7   8
ENDBRANCH   1   7
BRANCH   5  14
HETATM   14  C8  UNL     1       9.338 -10.648  21.006  1.00  0.00     0.038 C 
BRANCH  14  15
HETATM   15  C9  UNL     1       8.057 -10.000  21.237  1.00  0.00     0.123 C 
HETATM   16  C10 UNL     1       7.675  -8.888  20.245  1.00  0.00     0.058 C 
HETATM   17  C11 UNL     1       6.822  -8.553  21.455  1.00  0.00     0.170 C 
HETATM   18  O1  UNL     1       7.807  -9.159  22.279  1.00  0.00    -0.386 OA
ENDBRANCH  14  15
ENDBRANCH   5  14
TORSDOF 6
ENDMDL
