MODEL 1
REMARK VINA RESULT: -6.169529929      0.000      0.000
REMARK  5 active torsions:
REMARK  status: ('A' for Active; 'I' for Inactive)
REMARK    1  A    between atoms: C2_2  and  C3_3 
REMARK    2  A    between atoms: C3_3  and  C4_4 
REMARK    3  A    between atoms: C4_4  and  C5_5 
REMARK    4  A    between atoms: C9_12  and  C10_13 
REMARK    5  A    between atoms: C10_13  and  N2_14 
ROOT
HETATM    1  N2  UNL     1       6.361  -8.894  21.655  1.00  0.00    -0.304 N 
HETATM    2  C11 UNL     1       5.160  -9.350  22.419  1.00  0.00     0.168 C 
HETATM    3  C12 UNL     1       6.194  -7.724  20.982  1.00  0.00     0.183 C 
HETATM    4  N3  UNL     1       6.017  -6.719  20.395  1.00  0.00    -0.172 NA
ENDROOT
BRANCH   1   5
HETATM    5  C10 UNL     1       7.461  -9.747  21.708  1.00  0.00     0.082 C 
BRANCH   5   6
HETATM    6  C9  UNL     1       8.847  -9.389  21.430  1.00  0.00     0.060 C 
HETATM    7  C4  UNL     1       9.998 -10.017  22.066  1.00  0.00    -0.007 C 
HETATM    8  C7  UNL     1      11.088  -9.625  20.988  1.00  0.00     0.242 C 
HETATM    9  N1  UNL     1      10.433 -10.203  19.837  1.00  0.00    -0.074 N 
HETATM   10  C8  UNL     1       9.057  -9.828  19.940  1.00  0.00     0.243 C 
ATOM     11  H12 UNL     1      10.862  -9.940  18.950  1.00  0.00     0.277 HD
ATOM     12  H11 UNL     1      10.576 -11.210  19.749  1.00  0.00     0.277 HD
BRANCH   7  13
HETATM   13  C3  UNL     1       9.964 -11.508  21.978  1.00  0.00     0.011 C 
BRANCH  13  14
HETATM   14  C2  UNL     1      10.675 -12.311  22.981  1.00  0.00    -0.004 C 
HETATM   15  C1  UNL     1      12.108 -12.637  22.495  1.00  0.00     0.005 C 
ENDBRANCH  13  14
ENDBRANCH   7  13
BRANCH   7  16
HETATM   16  C5  UNL     1      10.580  -9.522  23.331  1.00  0.00     0.007 C 
HETATM   17  C6  UNL     1      11.937  -8.933  23.275  1.00  0.00     0.006 C 
ENDBRANCH   7  16
ENDBRANCH   5   6
ENDBRANCH   1   5
TORSDOF 5
ENDMDL
MODEL 2
REMARK VINA RESULT: -5.572525546      2.167      5.216
REMARK  5 active torsions:
REMARK  status: ('A' for Active; 'I' for Inactive)
REMARK    1  A    between atoms: C2_2  and  C3_3 
REMARK    2  A    between atoms: C3_3  and  C4_4 
REMARK    3  A    between atoms: C4_4  and  C5_5 
REMARK    4  A    between atoms: C9_12  and  C10_13 
REMARK    5  A    between atoms: C10_13  and  N2_14 
ROOT
HETATM    1  N2  UNL     1      12.844  -9.373  22.870  1.00  0.00    -0.304 N 
HETATM    2  C11 UNL     1      14.022  -8.920  22.070  1.00  0.00     0.168 C 
HETATM    3  C12 UNL     1      13.156 -10.110  23.970  1.00  0.00     0.183 C 
HETATM    4  N3  UNL     1      13.453 -10.759  24.907  1.00  0.00    -0.172 NA
ENDROOT
BRANCH   1   5
HETATM    5  C10 UNL     1      11.600  -9.015  22.357  1.00  0.00     0.082 C 
BRANCH   5   6
HETATM    6  C9  UNL     1      10.854  -9.721  21.323  1.00  0.00     0.060 C 
HETATM    7  C4  UNL     1       9.597 -10.420  21.553  1.00  0.00    -0.007 C 
HETATM    8  C7  UNL     1       9.080 -10.446  20.058  1.00  0.00     0.242 C 
HETATM    9  N1  UNL     1       9.137  -9.023  19.813  1.00  0.00    -0.074 N 
HETATM   10  C8  UNL     1      10.386  -8.582  20.354  1.00  0.00     0.243 C 
ATOM     11  H12 UNL     1       9.006  -8.773  18.833  1.00  0.00     0.277 HD
ATOM     12  H11 UNL     1       8.332  -8.514  20.179  1.00  0.00     0.277 HD
BRANCH   7  13
HETATM   13  C3  UNL     1       8.580  -9.570  22.242  1.00  0.00     0.011 C 
BRANCH  13  14
HETATM   14  C2  UNL     1       7.173  -9.986  22.256  1.00  0.00    -0.004 C 
HETATM   15  C1  UNL     1       6.249  -8.783  21.945  1.00  0.00     0.005 C 
ENDBRANCH  13  14
ENDBRANCH   7  13
BRANCH   7  16
HETATM   16  C5  UNL     1       9.535 -11.841  21.957  1.00  0.00     0.007 C 
HETATM   17  C6  UNL     1      10.646 -12.367  22.781  1.00  0.00     0.006 C 
ENDBRANCH   7  16
ENDBRANCH   5   6
ENDBRANCH   1   5
TORSDOF 5
ENDMDL
MODEL 3
REMARK VINA RESULT: -5.537133077      3.048      5.790
REMARK  5 active torsions:
REMARK  status: ('A' for Active; 'I' for Inactive)
REMARK    1  A    between atoms: C2_2  and  C3_3 
REMARK    2  A    between atoms: C3_3  and  C4_4 
REMARK    3  A    between atoms: C4_4  and  C5_5 
REMARK    4  A    between atoms: C9_12  and  C10_13 
REMARK    5  A    between atoms: C10_13  and  N2_14 
ROOT
HETATM    1  N2  UNL     1      14.625 -10.455  21.335  1.00  0.00    -0.304 N 
HETATM    2  C11 UNL     1      15.745 -10.964  20.487  1.00  0.00     0.168 C 
HETATM    3  C12 UNL     1      14.836  -9.224  21.875  1.00  0.00     0.183 C 
HETATM    4  N3  UNL     1      15.052  -8.166  22.343  1.00  0.00    -0.172 NA
ENDROOT
BRANCH   1   5
HETATM    5  C10 UNL     1      13.547 -11.323  21.485  1.00  0.00     0.082 C 
BRANCH   5   6
HETATM    6  C9  UNL     1      12.387 -11.123  22.345  1.00  0.00     0.060 C 
HETATM    7  C4  UNL     1      11.237 -10.301  21.990  1.00  0.00    -0.007 C 
HETATM    8  C7  UNL     1      10.194 -10.933  22.999  1.00  0.00     0.242 C 
HETATM    9  N1  UNL     1      10.322 -12.307  22.569  1.00  0.00    -0.074 N 
HETATM   10  C8  UNL     1      11.725 -12.541  22.421  1.00  0.00     0.243 C 
ATOM     11  H12 UNL     1       9.860 -12.972  23.189  1.00  0.00     0.277 HD
ATOM     12  H11 UNL     1       9.781 -12.524  21.731  1.00  0.00     0.277 HD
BRANCH   7  13
HETATM   13  C3  UNL     1      10.665 -10.654  20.656  1.00  0.00     0.011 C 
BRANCH  13  14
HETATM   14  C2  UNL     1       9.960  -9.631  19.874  1.00  0.00    -0.004 C 
HETATM   15  C1  UNL     1       8.435  -9.898  19.884  1.00  0.00     0.005 C 
ENDBRANCH  13  14
ENDBRANCH   7  13
BRANCH   7  16
HETATM   16  C5  UNL     1      11.164  -8.856  22.289  1.00  0.00     0.007 C 
HETATM   17  C6  UNL     1      10.748  -8.460  23.654  1.00  0.00     0.006 C 
ENDBRANCH   7  16
ENDBRANCH   5   6
ENDBRANCH   1   5
TORSDOF 5
ENDMDL
MODEL 4
REMARK VINA RESULT: -5.447863635      3.464      5.366
REMARK  5 active torsions:
REMARK  status: ('A' for Active; 'I' for Inactive)
REMARK    1  A    between atoms: C2_2  and  C3_3 
REMARK    2  A    between atoms: C3_3  and  C4_4 
REMARK    3  A    between atoms: C4_4  and  C5_5 
REMARK    4  A    between atoms: C9_12  and  C10_13 
REMARK    5  A    between atoms: C10_13  and  N2_14 
ROOT
HETATM    1  N2  UNL     1      10.703 -10.291  22.224  1.00  0.00    -0.304 N 
HETATM    2  C11 UNL     1       9.599 -11.199  21.787  1.00  0.00     0.168 C 
HETATM    3  C12 UNL     1      10.344  -9.375  23.163  1.00  0.00     0.183 C 
HETATM    4  N3  UNL     1      10.003  -8.581  23.963  1.00  0.00    -0.172 NA
ENDROOT
BRANCH   1   5
HETATM    5  C10 UNL     1      11.924 -10.484  21.583  1.00  0.00     0.082 C 
BRANCH   5   6
HETATM    6  C9  UNL     1      12.760 -11.675  21.655  1.00  0.00     0.060 C 
HETATM    7  C4  UNL     1      14.038 -11.821  20.970  1.00  0.00    -0.007 C 
HETATM    8  C7  UNL     1      14.636 -12.984  21.861  1.00  0.00     0.242 C 
HETATM    9  N1  UNL     1      14.518 -12.323  23.140  1.00  0.00    -0.074 N 
HETATM   10  C8  UNL     1      13.221 -11.721  23.152  1.00  0.00     0.243 C 
ATOM     11  H12 UNL     1      14.689 -12.940  23.934  1.00  0.00     0.277 HD
ATOM     12  H11 UNL     1      15.275 -11.665  23.330  1.00  0.00     0.277 HD
BRANCH   7  13
HETATM   13  C3  UNL     1      14.970 -10.684  21.237  1.00  0.00     0.011 C 
BRANCH  13  14
HETATM   14  C2  UNL     1      16.126 -10.470  20.358  1.00  0.00    -0.004 C 
HETATM   15  C1  UNL     1      17.442 -10.529  21.171  1.00  0.00     0.005 C 
ENDBRANCH  13  14
ENDBRANCH   7  13
BRANCH   7  16
HETATM   16  C5  UNL     1      14.152 -12.354  19.596  1.00  0.00     0.007 C 
HETATM   17  C6  UNL     1      14.589 -13.760  19.442  1.00  0.00     0.006 C 
ENDBRANCH   7  16
ENDBRANCH   5   6
ENDBRANCH   1   5
TORSDOF 5
ENDMDL
MODEL 5
REMARK VINA RESULT: -5.387440402      6.514      7.604
REMARK  5 active torsions:
REMARK  status: ('A' for Active; 'I' for Inactive)
REMARK    1  A    between atoms: C2_2  and  C3_3 
REMARK    2  A    between atoms: C3_3  and  C4_4 
REMARK    3  A    between atoms: C4_4  and  C5_5 
REMARK    4  A    between atoms: C9_12  and  C10_13 
REMARK    5  A    between atoms: C10_13  and  N2_14 
ROOT
HETATM    1  N2  UNL     1      14.948 -11.113  24.975  1.00  0.00    -0.304 N 
HETATM    2  C11 UNL     1      16.362 -10.992  25.446  1.00  0.00     0.168 C 
HETATM    3  C12 UNL     1      14.129 -11.802  25.814  1.00  0.00     0.183 C 
HETATM    4  N3  UNL     1      13.446 -12.418  26.549  1.00  0.00    -0.172 NA
ENDROOT
BRANCH   1   5
HETATM    5  C10 UNL     1      14.681 -10.540  23.734  1.00  0.00     0.082 C 
BRANCH   5   6
HETATM    6  C9  UNL     1      15.662 -10.184  22.717  1.00  0.00     0.060 C 
HETATM    7  C4  UNL     1      15.955 -10.996  21.543  1.00  0.00    -0.007 C 
HETATM    8  C7  UNL     1      16.602  -9.864  20.646  1.00  0.00     0.242 C 
HETATM    9  N1  UNL     1      15.495  -8.936  20.684  1.00  0.00    -0.074 N 
HETATM   10  C8  UNL     1      15.059  -8.902  22.046  1.00  0.00     0.243 C 
ATOM     11  H12 UNL     1      15.722  -8.017  20.305  1.00  0.00     0.277 HD
ATOM     12  H11 UNL     1      14.751  -9.162  20.023  1.00  0.00     0.277 HD
BRANCH   7  13
HETATM   13  C3  UNL     1      14.728 -11.368  20.776  1.00  0.00     0.011 C 
BRANCH  13  14
HETATM   14  C2  UNL     1      14.519 -12.763  20.370  1.00  0.00    -0.004 C 
HETATM   15  C1  UNL     1      14.461 -12.874  18.827  1.00  0.00     0.005 C 
ENDBRANCH  13  14
ENDBRANCH   7  13
BRANCH   7  16
HETATM   16  C5  UNL     1      16.984 -12.057  21.542  1.00  0.00     0.007 C 
HETATM   17  C6  UNL     1      18.258 -11.775  20.844  1.00  0.00     0.006 C 
ENDBRANCH   7  16
ENDBRANCH   5   6
ENDBRANCH   1   5
TORSDOF 5
ENDMDL
