MODEL 1
REMARK VINA RESULT: -5.617086219      0.000      0.000
REMARK  0 active torsions:
REMARK  status: ('A' for Active; 'I' for Inactive)
ROOT
HETATM    1  O1  UNL     1      34.758  28.728 -44.951  1.00  0.00    -0.265 OA
HETATM    2  C1  UNL     1      34.495  27.886 -44.065  1.00  0.00     0.278 A 
HETATM    3  N1  UNL     1      33.209  27.751 -43.632  1.00  0.00    -0.318 N 
ATOM      4  H1  UNL     1      32.469  28.331 -44.027  1.00  0.00     0.169 HD
HETATM    5  C2  UNL     1      32.927  26.848 -42.683  1.00  0.00     0.185 A 
HETATM    6  N2  UNL     1      33.911  26.070 -42.151  1.00  0.00    -0.335 N 
ATOM      7  H2  UNL     1      33.676  25.389 -41.429  1.00  0.00     0.168 HD
HETATM    8  C3  UNL     1      35.187  26.186 -42.564  1.00  0.00     0.156 A 
HETATM    9  N3  UNL     1      36.359  25.578 -42.241  1.00  0.00    -0.269 N 
ATOM     10  H3  UNL     1      36.461  24.843 -41.542  1.00  0.00     0.190 HD
HETATM   11  N4  UNL     1      37.338  26.074 -42.957  1.00  0.00    -0.240 N 
ATOM     12  H4  UNL     1      38.316  25.788 -42.906  1.00  0.00     0.208 HD
HETATM   13  N5  UNL     1      36.847  27.007 -43.756  1.00  0.00    -0.278 N 
ATOM     14  H5  UNL     1      37.387  27.560 -44.423  1.00  0.00     0.189 HD
HETATM   15  C4  UNL     1      35.511  27.112 -43.546  1.00  0.00     0.163 A 
ENDROOT
TORSDOF 0
ENDMDL
MODEL 2
REMARK VINA RESULT: -5.512892424      2.124      2.611
REMARK  0 active torsions:
REMARK  status: ('A' for Active; 'I' for Inactive)
ROOT
HETATM    1  O1  UNL     1      36.039  26.797 -40.337  1.00  0.00    -0.265 OA
HETATM    2  C1  UNL     1      35.190  26.432 -41.179  1.00  0.00     0.278 A 
HETATM    3  N1  UNL     1      33.975  25.984 -40.753  1.00  0.00    -0.318 N 
ATOM      4  H1  UNL     1      33.760  25.947 -39.756  1.00  0.00     0.169 HD
HETATM    5  C2  UNL     1      33.065  25.592 -41.656  1.00  0.00     0.185 A 
HETATM    6  N2  UNL     1      33.345  25.638 -42.988  1.00  0.00    -0.335 N 
ATOM      7  H2  UNL     1      32.640  25.335 -43.660  1.00  0.00     0.168 HD
HETATM    8  C3  UNL     1      34.538  26.077 -43.431  1.00  0.00     0.156 A 
HETATM    9  N3  UNL     1      35.107  26.238 -44.655  1.00  0.00    -0.269 N 
ATOM     10  H3  UNL     1      34.653  26.021 -45.543  1.00  0.00     0.190 HD
HETATM   11  N4  UNL     1      36.322  26.713 -44.531  1.00  0.00    -0.240 N 
ATOM     12  H4  UNL     1      36.960  26.924 -45.299  1.00  0.00     0.208 HD
HETATM   13  N5  UNL     1      36.584  26.873 -43.244  1.00  0.00    -0.278 N 
ATOM     14  H5  UNL     1      37.459  27.228 -42.858  1.00  0.00     0.189 HD
HETATM   15  C4  UNL     1      35.501  26.490 -42.520  1.00  0.00     0.163 A 
ENDROOT
TORSDOF 0
ENDMDL
MODEL 3
REMARK VINA RESULT: -5.506555061      3.247      4.084
REMARK  0 active torsions:
REMARK  status: ('A' for Active; 'I' for Inactive)
ROOT
HETATM    1  O1  UNL     1      33.367  30.219 -45.286  1.00  0.00    -0.265 OA
HETATM    2  C1  UNL     1      34.320  29.842 -44.571  1.00  0.00     0.278 A 
HETATM    3  N1  UNL     1      34.259  28.623 -43.964  1.00  0.00    -0.318 N 
ATOM      4  H1  UNL     1      33.444  28.024 -44.092  1.00  0.00     0.169 HD
HETATM    5  C2  UNL     1      35.282  28.219 -43.198  1.00  0.00     0.185 A 
HETATM    6  N2  UNL     1      36.374  29.013 -43.023  1.00  0.00    -0.335 N 
ATOM      7  H2  UNL     1      37.142  28.688 -42.436  1.00  0.00     0.168 HD
HETATM    8  C3  UNL     1      36.456  30.220 -43.613  1.00  0.00     0.156 A 
HETATM    9  N3  UNL     1      37.380  31.217 -43.635  1.00  0.00    -0.269 N 
ATOM     10  H3  UNL     1      38.271  31.197 -43.139  1.00  0.00     0.190 HD
HETATM   11  N4  UNL     1      36.960  32.207 -44.384  1.00  0.00    -0.240 N 
ATOM     12  H4  UNL     1      37.467  33.073 -44.564  1.00  0.00     0.208 HD
HETATM   13  N5  UNL     1      35.768  31.896 -44.866  1.00  0.00    -0.278 N 
ATOM     14  H5  UNL     1      35.205  32.485 -45.480  1.00  0.00     0.189 HD
HETATM   15  C4  UNL     1      35.413  30.667 -44.413  1.00  0.00     0.163 A 
ENDROOT
TORSDOF 0
ENDMDL
MODEL 4
REMARK VINA RESULT: -5.472337496      2.141      2.809
REMARK  0 active torsions:
REMARK  status: ('A' for Active; 'I' for Inactive)
ROOT
HETATM    1  O1  UNL     1      32.681  25.138 -42.394  1.00  0.00    -0.265 OA
HETATM    2  C1  UNL     1      33.719  25.723 -42.014  1.00  0.00     0.278 A 
HETATM    3  N1  UNL     1      33.891  25.986 -40.687  1.00  0.00    -0.318 N 
ATOM      4  H1  UNL     1      33.180  25.708 -40.011  1.00  0.00     0.169 HD
HETATM    5  C2  UNL     1      35.004  26.613 -40.280  1.00  0.00     0.185 A 
HETATM    6  N2  UNL     1      35.957  26.987 -41.178  1.00  0.00    -0.335 N 
ATOM      7  H2  UNL     1      36.797  27.463 -40.849  1.00  0.00     0.168 HD
HETATM    8  C3  UNL     1      35.808  26.737 -42.493  1.00  0.00     0.156 A 
HETATM    9  N3  UNL     1      36.552  26.975 -43.605  1.00  0.00    -0.269 N 
ATOM     10  H3  UNL     1      37.459  27.443 -43.611  1.00  0.00     0.190 HD
HETATM   11  N4  UNL     1      35.937  26.517 -44.668  1.00  0.00    -0.240 N 
ATOM     12  H4  UNL     1      36.285  26.570 -45.625  1.00  0.00     0.208 HD
HETATM   13  N5  UNL     1      34.791  25.976 -44.292  1.00  0.00    -0.278 N 
ATOM     14  H5  UNL     1      34.108  25.542 -44.915  1.00  0.00     0.189 HD
HETATM   15  C4  UNL     1      34.667  26.089 -42.945  1.00  0.00     0.163 A 
ENDROOT
TORSDOF 0
ENDMDL
MODEL 5
REMARK VINA RESULT: -5.457392969      2.036      2.433
REMARK  0 active torsions:
REMARK  status: ('A' for Active; 'I' for Inactive)
ROOT
HETATM    1  O1  UNL     1      32.887  24.531 -42.694  1.00  0.00    -0.265 OA
HETATM    2  C1  UNL     1      33.220  25.721 -42.504  1.00  0.00     0.278 A 
HETATM    3  N1  UNL     1      32.276  26.627 -42.123  1.00  0.00    -0.318 N 
ATOM      4  H1  UNL     1      31.307  26.338 -41.993  1.00  0.00     0.169 HD
HETATM    5  C2  UNL     1      32.634  27.903 -41.919  1.00  0.00     0.185 A 
HETATM    6  N2  UNL     1      33.926  28.297 -42.089  1.00  0.00    -0.335 N 
ATOM      7  H2  UNL     1      34.179  29.272 -41.929  1.00  0.00     0.168 HD
HETATM    8  C3  UNL     1      34.875  27.419 -42.465  1.00  0.00     0.156 A 
HETATM    9  N3  UNL     1      36.209  27.496 -42.713  1.00  0.00    -0.269 N 
ATOM     10  H3  UNL     1      36.768  28.346 -42.642  1.00  0.00     0.190 HD
HETATM   11  N4  UNL     1      36.675  26.320 -43.057  1.00  0.00    -0.240 N 
ATOM     12  H4  UNL     1      37.644  26.109 -43.293  1.00  0.00     0.208 HD
HETATM   13  N5  UNL     1      35.677  25.451 -43.046  1.00  0.00    -0.278 N 
ATOM     14  H5  UNL     1      35.752  24.459 -43.275  1.00  0.00     0.189 HD
HETATM   15  C4  UNL     1      34.536  26.090 -42.684  1.00  0.00     0.163 A 
ENDROOT
TORSDOF 0
ENDMDL
