MODEL 1
REMARK VINA RESULT: -4.710635297      0.000      0.000
REMARK  2 active torsions:
REMARK  status: ('A' for Active; 'I' for Inactive)
REMARK    1  A    between atoms: C3_9  and  N5_10 
REMARK    2  A    between atoms: N5_10  and  N6_12 
ROOT
HETATM    1  C1  UNL     1      35.395  28.704 -43.012  1.00  0.00     0.199 C 
HETATM    2  N1  UNL     1      34.342  29.724 -43.083  1.00  0.00    -0.110 N 
HETATM    3  N2  UNL     1      33.416  29.994 -42.181  1.00  0.00    -0.210 N 
ATOM      4  H2  UNL     1      33.319  29.507 -41.291  1.00  0.00     0.211 HD
HETATM    5  N3  UNL     1      32.633  30.977 -42.581  1.00  0.00    -0.209 N 
HETATM    6  C2  UNL     1      31.529  31.473 -41.774  1.00  0.00     0.202 C 
HETATM    7  N4  UNL     1      33.050  31.357 -43.760  1.00  0.00    -0.112 N 
ATOM      8  H4  UNL     1      32.646  32.100 -44.329  1.00  0.00     0.207 HD
HETATM    9  C3  UNL     1      34.112  30.591 -44.091  1.00  0.00     0.729 A 
ENDROOT
BRANCH   9  10
HETATM   10  N5  UNL     1      34.808  30.643 -45.162  1.00  0.00    -0.136 N 
ATOM     11  H5  UNL     1      34.640  29.935 -45.878  1.00  0.00     0.205 HD
BRANCH  10  12
HETATM   12  N6  UNL     1      35.777  31.602 -45.408  1.00  0.00    -0.331 N 
ATOM     13  H62 UNL     1      36.202  32.050 -44.596  1.00  0.00     0.177 HD
ATOM     14  H61 UNL     1      36.080  31.878 -46.343  1.00  0.00     0.177 HD
ENDBRANCH  10  12
ENDBRANCH   9  10
TORSDOF 2
ENDMDL
MODEL 2
REMARK VINA RESULT: -4.584908385      1.920      3.366
REMARK  2 active torsions:
REMARK  status: ('A' for Active; 'I' for Inactive)
REMARK    1  A    between atoms: C3_9  and  N5_10 
REMARK    2  A    between atoms: N5_10  and  N6_12 
ROOT
HETATM    1  C1  UNL     1      37.056  31.471 -44.055  1.00  0.00     0.199 C 
HETATM    2  N1  UNL     1      36.195  30.321 -43.756  1.00  0.00    -0.110 N 
HETATM    3  N2  UNL     1      36.559  29.133 -43.307  1.00  0.00    -0.210 N 
ATOM      4  H2  UNL     1      37.522  28.863 -43.106  1.00  0.00     0.211 HD
HETATM    5  N3  UNL     1      35.516  28.342 -43.151  1.00  0.00    -0.209 N 
HETATM    6  C2  UNL     1      35.639  26.975 -42.668  1.00  0.00     0.202 C 
HETATM    7  N4  UNL     1      34.454  29.018 -43.502  1.00  0.00    -0.112 N 
ATOM      8  H4  UNL     1      33.494  28.675 -43.491  1.00  0.00     0.207 HD
HETATM    9  C3  UNL     1      34.854  30.251 -43.881  1.00  0.00     0.729 A 
ENDROOT
BRANCH   9  10
HETATM   10  N5  UNL     1      34.123  31.216 -44.294  1.00  0.00    -0.136 N 
ATOM     11  H5  UNL     1      34.547  31.907 -44.914  1.00  0.00     0.205 HD
BRANCH  10  12
HETATM   12  N6  UNL     1      32.791  31.378 -43.950  1.00  0.00    -0.331 N 
ATOM     13  H62 UNL     1      32.109  30.814 -44.457  1.00  0.00     0.177 HD
ATOM     14  H61 UNL     1      32.464  32.022 -43.230  1.00  0.00     0.177 HD
ENDBRANCH  10  12
ENDBRANCH   9  10
TORSDOF 2
ENDMDL
MODEL 3
REMARK VINA RESULT: -4.461588907      2.366      3.893
REMARK  2 active torsions:
REMARK  status: ('A' for Active; 'I' for Inactive)
REMARK    1  A    between atoms: C3_9  and  N5_10 
REMARK    2  A    between atoms: N5_10  and  N6_12 
ROOT
HETATM    1  C1  UNL     1      33.486  28.474 -44.328  1.00  0.00     0.199 C 
HETATM    2  N1  UNL     1      34.728  29.235 -44.151  1.00  0.00    -0.110 N 
HETATM    3  N2  UNL     1      35.042  30.405 -44.678  1.00  0.00    -0.210 N 
ATOM      4  H2  UNL     1      34.432  30.940 -45.296  1.00  0.00     0.211 HD
HETATM    5  N3  UNL     1      36.245  30.791 -44.302  1.00  0.00    -0.209 N 
HETATM    6  C2  UNL     1      36.835  32.046 -44.741  1.00  0.00     0.202 C 
HETATM    7  N4  UNL     1      36.727  29.863 -43.517  1.00  0.00    -0.112 N 
ATOM      8  H4  UNL     1      37.642  29.875 -43.066  1.00  0.00     0.207 HD
HETATM    9  C3  UNL     1      35.800  28.887 -43.410  1.00  0.00     0.729 A 
ENDROOT
BRANCH   9  10
HETATM   10  N5  UNL     1      35.882  27.804 -42.735  1.00  0.00    -0.136 N 
ATOM     11  H5  UNL     1      35.398  27.760 -41.838  1.00  0.00     0.205 HD
BRANCH  10  12
HETATM   12  N6  UNL     1      36.589  26.687 -43.151  1.00  0.00    -0.331 N 
ATOM     13  H62 UNL     1      36.578  26.477 -44.149  1.00  0.00     0.177 HD
ATOM     14  H61 UNL     1      37.109  26.076 -42.521  1.00  0.00     0.177 HD
ENDBRANCH  10  12
ENDBRANCH   9  10
TORSDOF 2
ENDMDL
MODEL 4
REMARK VINA RESULT: -4.438253111      1.816      3.394
REMARK  2 active torsions:
REMARK  status: ('A' for Active; 'I' for Inactive)
REMARK    1  A    between atoms: C3_9  and  N5_10 
REMARK    2  A    between atoms: N5_10  and  N6_12 
ROOT
HETATM    1  C1  UNL     1      33.317  30.755 -43.777  1.00  0.00     0.199 C 
HETATM    2  N1  UNL     1      34.429  29.834 -43.516  1.00  0.00    -0.110 N 
HETATM    3  N2  UNL     1      34.361  28.565 -43.155  1.00  0.00    -0.210 N 
ATOM      4  H2  UNL     1      33.490  28.054 -43.009  1.00  0.00     0.211 HD
HETATM    5  N3  UNL     1      35.563  28.045 -43.007  1.00  0.00    -0.209 N 
HETATM    6  C2  UNL     1      35.772  26.661 -42.613  1.00  0.00     0.202 C 
HETATM    7  N4  UNL     1      36.432  28.984 -43.276  1.00  0.00    -0.112 N 
ATOM      8  H4  UNL     1      37.447  28.887 -43.249  1.00  0.00     0.207 HD
HETATM    9  C3  UNL     1      35.749  30.104 -43.594  1.00  0.00     0.729 A 
ENDROOT
BRANCH   9  10
HETATM   10  N5  UNL     1      36.227  31.245 -43.919  1.00  0.00    -0.136 N 
ATOM     11  H5  UNL     1      35.760  31.767 -44.661  1.00  0.00     0.205 HD
BRANCH  10  12
HETATM   12  N6  UNL     1      37.341  31.813 -43.323  1.00  0.00    -0.331 N 
ATOM     13  H62 UNL     1      37.293  31.983 -42.318  1.00  0.00     0.177 HD
ATOM     14  H61 UNL     1      38.190  32.065 -43.829  1.00  0.00     0.177 HD
ENDBRANCH  10  12
ENDBRANCH   9  10
TORSDOF 2
ENDMDL
MODEL 5
REMARK VINA RESULT: -4.386319157      0.986      1.077
REMARK  2 active torsions:
REMARK  status: ('A' for Active; 'I' for Inactive)
REMARK    1  A    between atoms: C3_9  and  N5_10 
REMARK    2  A    between atoms: N5_10  and  N6_12 
ROOT
HETATM    1  C1  UNL     1      36.672  29.649 -43.460  1.00  0.00     0.199 C 
HETATM    2  N1  UNL     1      35.344  30.268 -43.522  1.00  0.00    -0.110 N 
HETATM    3  N2  UNL     1      34.374  30.192 -42.628  1.00  0.00    -0.210 N 
ATOM      4  H2  UNL     1      34.436  29.674 -41.752  1.00  0.00     0.211 HD
HETATM    5  N3  UNL     1      33.314  30.875 -43.015  1.00  0.00    -0.209 N 
HETATM    6  C2  UNL     1      32.103  30.956 -42.213  1.00  0.00     0.202 C 
HETATM    7  N4  UNL     1      33.591  31.405 -44.177  1.00  0.00    -0.112 N 
ATOM      8  H4  UNL     1      32.968  31.991 -44.733  1.00  0.00     0.207 HD
HETATM    9  C3  UNL     1      34.848  31.041 -44.510  1.00  0.00     0.729 A 
ENDROOT
BRANCH   9  10
HETATM   10  N5  UNL     1      35.495  31.350 -45.569  1.00  0.00    -0.136 N 
ATOM     11  H5  UNL     1      35.401  30.743 -46.383  1.00  0.00     0.205 HD
BRANCH  10  12
HETATM   12  N6  UNL     1      36.318  32.460 -45.674  1.00  0.00    -0.331 N 
ATOM     13  H62 UNL     1      37.274  32.362 -45.331  1.00  0.00     0.177 HD
ATOM     14  H61 UNL     1      36.021  33.352 -46.070  1.00  0.00     0.177 HD
ENDBRANCH  10  12
ENDBRANCH   9  10
TORSDOF 2
ENDMDL
