MODEL 1
REMARK VINA RESULT: -4.967534008      0.000      0.000
REMARK  1 active torsions:
REMARK  status: ('A' for Active; 'I' for Inactive)
REMARK       I    between atoms: C1_2  and  N2_4 
REMARK    1  A    between atoms: N2_4  and  N3_6 
ROOT
HETATM    1  N3  UNL     1      35.761  30.171 -44.093  1.00  0.00    -0.121 N 
HETATM    2  N4  UNL     1      36.550  30.806 -44.957  1.00  0.00     0.009 NA
HETATM    3  N5  UNL     1      35.569  31.564 -45.432  1.00  0.00    -0.231 N 
ATOM      4  H5  UNL     1      35.475  32.295 -46.138  1.00  0.00     0.189 HD
HETATM    5  C2  UNL     1      34.751  30.935 -44.565  1.00  0.00     0.372 A 
HETATM    6  O2  UNL     1      33.505  31.019 -44.290  1.00  0.00    -0.242 OA
ENDROOT
BRANCH   1   7
HETATM    7  N2  UNL     1      35.924  29.171 -43.137  1.00  0.00    -0.230 N 
HETATM    8  C1  UNL     1      35.551  27.840 -43.416  1.00  0.00     0.348 C 
HETATM    9  N1  UNL     1      35.726  26.840 -42.430  1.00  0.00    -0.038 NA
HETATM   10  O1  UNL     1      35.065  27.544 -44.543  1.00  0.00    -0.249 OA
ATOM     11  H2  UNL     1      36.318  29.404 -42.225  1.00  0.00     0.193 HD
ENDBRANCH   1   7
TORSDOF 1
ENDMDL
MODEL 2
REMARK VINA RESULT: -4.767544497      2.328      2.862
REMARK  1 active torsions:
REMARK  status: ('A' for Active; 'I' for Inactive)
REMARK       I    between atoms: C1_2  and  N2_4 
REMARK    1  A    between atoms: N2_4  and  N3_6 
ROOT
HETATM    1  N3  UNL     1      36.285  30.980 -44.147  1.00  0.00    -0.121 N 
HETATM    2  N4  UNL     1      37.364  30.228 -44.355  1.00  0.00     0.009 NA
HETATM    3  N5  UNL     1      37.856  31.038 -45.285  1.00  0.00    -0.231 N 
ATOM      4  H5  UNL     1      38.685  31.061 -45.880  1.00  0.00     0.189 HD
HETATM    5  C2  UNL     1      36.773  31.814 -45.090  1.00  0.00     0.372 A 
HETATM    6  O2  UNL     1      36.358  32.913 -45.597  1.00  0.00    -0.242 OA
ENDROOT
BRANCH   1   7
HETATM    7  N2  UNL     1      35.166  30.917 -43.319  1.00  0.00    -0.230 N 
HETATM    8  C1  UNL     1      33.894  30.616 -43.849  1.00  0.00     0.348 C 
HETATM    9  N1  UNL     1      32.771  30.558 -42.990  1.00  0.00    -0.038 NA
HETATM   10  O1  UNL     1      33.761  30.398 -45.085  1.00  0.00    -0.249 OA
ATOM     11  H2  UNL     1      35.267  31.091 -42.319  1.00  0.00     0.193 HD
ENDBRANCH   1   7
TORSDOF 1
ENDMDL
MODEL 3
REMARK VINA RESULT: -4.767264431      1.903      2.004
REMARK  1 active torsions:
REMARK  status: ('A' for Active; 'I' for Inactive)
REMARK       I    between atoms: C1_2  and  N2_4 
REMARK    1  A    between atoms: N2_4  and  N3_6 
ROOT
HETATM    1  N3  UNL     1      35.458  30.905 -44.344  1.00  0.00    -0.121 N 
HETATM    2  N4  UNL     1      34.971  31.635 -45.345  1.00  0.00     0.009 NA
HETATM    3  N5  UNL     1      36.156  32.139 -45.670  1.00  0.00    -0.231 N 
ATOM      4  H5  UNL     1      36.515  32.789 -46.370  1.00  0.00     0.189 HD
HETATM    5  C2  UNL     1      36.671  31.408 -44.662  1.00  0.00     0.372 A 
HETATM    6  O2  UNL     1      37.846  31.249 -44.184  1.00  0.00    -0.242 OA
ENDROOT
BRANCH   1   7
HETATM    7  N2  UNL     1      34.934  30.022 -43.402  1.00  0.00    -0.230 N 
HETATM    8  C1  UNL     1      34.561  28.713 -43.771  1.00  0.00     0.348 C 
HETATM    9  N1  UNL     1      34.031  27.833 -42.798  1.00  0.00    -0.038 NA
HETATM   10  O1  UNL     1      34.702  28.331 -44.966  1.00  0.00    -0.249 OA
ATOM     11  H2  UNL     1      34.820  30.325 -42.434  1.00  0.00     0.193 HD
ENDBRANCH   1   7
TORSDOF 1
ENDMDL
MODEL 4
REMARK VINA RESULT: -4.643192211      2.106      3.861
REMARK  1 active torsions:
REMARK  status: ('A' for Active; 'I' for Inactive)
REMARK       I    between atoms: C1_2  and  N2_4 
REMARK    1  A    between atoms: N2_4  and  N3_6 
ROOT
HETATM    1  N3  UNL     1      34.109  30.361 -43.958  1.00  0.00    -0.121 N 
HETATM    2  N4  UNL     1      33.473  30.161 -42.805  1.00  0.00     0.009 NA
HETATM    3  N5  UNL     1      33.448  28.841 -42.947  1.00  0.00    -0.231 N 
ATOM      4  H5  UNL     1      33.097  28.047 -42.411  1.00  0.00     0.189 HD
HETATM    5  C2  UNL     1      34.093  29.020 -44.117  1.00  0.00     0.372 A 
HETATM    6  O2  UNL     1      34.524  28.234 -45.029  1.00  0.00    -0.242 OA
ENDROOT
BRANCH   1   7
HETATM    7  N2  UNL     1      34.576  31.468 -44.664  1.00  0.00    -0.230 N 
HETATM    8  C1  UNL     1      35.951  31.619 -44.938  1.00  0.00     0.348 C 
HETATM    9  N1  UNL     1      36.404  32.751 -45.657  1.00  0.00    -0.038 NA
HETATM   10  O1  UNL     1      36.773  30.746 -44.544  1.00  0.00    -0.249 OA
ATOM     11  H2  UNL     1      33.917  32.176 -44.987  1.00  0.00     0.193 HD
ENDBRANCH   1   7
TORSDOF 1
ENDMDL
MODEL 5
REMARK VINA RESULT: -4.629133166      1.515      1.693
REMARK  1 active torsions:
REMARK  status: ('A' for Active; 'I' for Inactive)
REMARK       I    between atoms: C1_2  and  N2_4 
REMARK    1  A    between atoms: N2_4  and  N3_6 
ROOT
HETATM    1  N3  UNL     1      34.893  29.809 -43.437  1.00  0.00    -0.121 N 
HETATM    2  N4  UNL     1      33.712  30.390 -43.235  1.00  0.00     0.009 NA
HETATM    3  N5  UNL     1      33.886  31.280 -44.205  1.00  0.00    -0.231 N 
ATOM      4  H5  UNL     1      33.351  32.052 -44.603  1.00  0.00     0.189 HD
HETATM    5  C2  UNL     1      35.085  30.707 -44.428  1.00  0.00     0.372 A 
HETATM    6  O2  UNL     1      36.040  30.923 -45.251  1.00  0.00    -0.242 OA
ENDROOT
BRANCH   1   7
HETATM    7  N2  UNL     1      35.596  28.747 -42.871  1.00  0.00    -0.230 N 
HETATM    8  C1  UNL     1      35.608  27.480 -43.489  1.00  0.00     0.348 C 
HETATM    9  N1  UNL     1      36.329  26.416 -42.896  1.00  0.00    -0.038 NA
HETATM   10  O1  UNL     1      34.979  27.298 -44.568  1.00  0.00    -0.249 OA
ATOM     11  H2  UNL     1      36.108  28.889 -42.000  1.00  0.00     0.193 HD
ENDBRANCH   1   7
TORSDOF 1
ENDMDL
