MODEL 1
REMARK VINA RESULT: -5.818504841      0.000      0.000
REMARK  2 active torsions:
REMARK  status: ('A' for Active; 'I' for Inactive)
REMARK    1  A    between atoms: C1_4  and  C2_5 
REMARK    2  A    between atoms: C4_11  and  N4_12 
ROOT
HETATM    1  C2  UNL     1      21.638   2.329   7.470  1.00  0.00     0.076 A 
HETATM    2  N2  UNL     1      21.073   1.563   8.419  1.00  0.00    -0.350 N 
ATOM      3  H2  UNL     1      20.237   1.024   8.192  1.00  0.00     0.166 HD
HETATM    4  C3  UNL     1      21.592   1.489   9.680  1.00  0.00     0.182 A 
HETATM    5  N3  UNL     1      22.690   2.186  10.013  1.00  0.00    -0.337 N 
ATOM      6  H3  UNL     1      23.064   2.119  10.959  1.00  0.00     0.168 HD
HETATM    7  C4  UNL     1      23.300   2.970   9.109  1.00  0.00     0.126 A 
HETATM    8  C5  UNL     1      22.776   3.047   7.827  1.00  0.00     0.117 A 
HETATM    9  N5  UNL     1      23.360   3.846   6.829  1.00  0.00    -0.096 NA
ENDROOT
BRANCH   1  10
HETATM   10  C1  UNL     1      21.080   2.403   6.128  1.00  0.00     0.112 C 
HETATM   11  N1  UNL     1      21.786   2.100   5.094  1.00  0.00    -0.406 N 
ATOM     12  H12 UNL     1      22.752   1.806   5.236  1.00  0.00     0.155 HD
ATOM     13  H11 UNL     1      21.394   2.152   4.154  1.00  0.00     0.155 HD
ENDBRANCH   1  10
BRANCH   7  14
HETATM   14  N4  UNL     1      24.355   3.652   9.397  1.00  0.00    -0.384 N 
ATOM     15  H42 UNL     1      24.647   3.727  10.371  1.00  0.00     0.157 HD
ATOM     16  H41 UNL     1      24.909   4.120   8.680  1.00  0.00     0.157 HD
ENDBRANCH   7  14
TORSDOF 2
ENDMDL
MODEL 2
REMARK VINA RESULT: -5.629941167      9.153     10.830
REMARK  2 active torsions:
REMARK  status: ('A' for Active; 'I' for Inactive)
REMARK    1  A    between atoms: C1_4  and  C2_5 
REMARK    2  A    between atoms: C4_11  and  N4_12 
ROOT
HETATM    1  C2  UNL     1      17.366  -2.100   0.778  1.00  0.00     0.076 A 
HETATM    2  N2  UNL     1      16.557  -3.161   0.938  1.00  0.00    -0.350 N 
ATOM      3  H2  UNL     1      16.922  -4.005   1.379  1.00  0.00     0.166 HD
HETATM    4  C3  UNL     1      15.257  -3.135   0.521  1.00  0.00     0.182 A 
HETATM    5  N3  UNL     1      14.744  -2.042  -0.064  1.00  0.00    -0.337 N 
ATOM      6  H3  UNL     1      13.771  -2.040  -0.369  1.00  0.00     0.168 HD
HETATM    7  C4  UNL     1      15.503  -0.949  -0.252  1.00  0.00     0.126 A 
HETATM    8  C5  UNL     1      16.824  -0.972   0.170  1.00  0.00     0.117 A 
HETATM    9  N5  UNL     1      17.679   0.133   0.007  1.00  0.00    -0.096 NA
ENDROOT
BRANCH   1  10
HETATM   10  C1  UNL     1      18.751  -2.134   1.225  1.00  0.00     0.112 C 
HETATM   11  N1  UNL     1      19.193  -3.096   1.958  1.00  0.00    -0.406 N 
ATOM     12  H12 UNL     1      18.547  -3.839   2.222  1.00  0.00     0.155 HD
ATOM     13  H11 UNL     1      20.164  -3.119   2.271  1.00  0.00     0.155 HD
ENDBRANCH   1  10
BRANCH   7  14
HETATM   14  N4  UNL     1      15.041   0.116  -0.812  1.00  0.00    -0.384 N 
ATOM     15  H42 UNL     1      14.413   0.025  -1.610  1.00  0.00     0.157 HD
ATOM     16  H41 UNL     1      15.283   1.049  -0.480  1.00  0.00     0.157 HD
ENDBRANCH   7  14
TORSDOF 2
ENDMDL
MODEL 3
REMARK VINA RESULT: -5.574720951      2.867      4.715
REMARK  2 active torsions:
REMARK  status: ('A' for Active; 'I' for Inactive)
REMARK    1  A    between atoms: C1_4  and  C2_5 
REMARK    2  A    between atoms: C4_11  and  N4_12 
ROOT
HETATM    1  C2  UNL     1      19.049   2.449  10.237  1.00  0.00     0.076 A 
HETATM    2  N2  UNL     1      19.729   3.590  10.024  1.00  0.00    -0.350 N 
ATOM      3  H2  UNL     1      19.449   4.437  10.517  1.00  0.00     0.166 HD
HETATM    4  C3  UNL     1      20.786   3.638   9.161  1.00  0.00     0.182 A 
HETATM    5  N3  UNL     1      21.181   2.542   8.495  1.00  0.00    -0.337 N 
ATOM      6  H3  UNL     1      21.973   2.597   7.854  1.00  0.00     0.168 HD
HETATM    7  C4  UNL     1      20.540   1.373   8.665  1.00  0.00     0.126 A 
HETATM    8  C5  UNL     1      19.467   1.320   9.540  1.00  0.00     0.117 A 
HETATM    9  N5  UNL     1      18.749   0.133   9.769  1.00  0.00    -0.096 NA
ENDROOT
BRANCH   1  10
HETATM   10  C1  UNL     1      17.923   2.404  11.159  1.00  0.00     0.112 C 
HETATM   11  N1  UNL     1      16.719   2.608  10.751  1.00  0.00    -0.406 N 
ATOM     12  H12 UNL     1      16.568   2.804   9.762  1.00  0.00     0.155 HD
ATOM     13  H11 UNL     1      15.930   2.576  11.398  1.00  0.00     0.155 HD
ENDBRANCH   1  10
BRANCH   7  14
HETATM   14  N4  UNL     1      20.894   0.303   8.039  1.00  0.00    -0.384 N 
ATOM     15  H42 UNL     1      20.184  -0.252   7.562  1.00  0.00     0.157 HD
ATOM     16  H41 UNL     1      21.865  -0.007   8.005  1.00  0.00     0.157 HD
ENDBRANCH   7  14
TORSDOF 2
ENDMDL
MODEL 4
REMARK VINA RESULT: -5.541184393      9.617     10.628
REMARK  2 active torsions:
REMARK  status: ('A' for Active; 'I' for Inactive)
REMARK    1  A    between atoms: C1_4  and  C2_5 
REMARK    2  A    between atoms: C4_11  and  N4_12 
ROOT
HETATM    1  C2  UNL     1      15.716  -1.386  -0.012  1.00  0.00     0.076 A 
HETATM    2  N2  UNL     1      14.844  -2.379   0.234  1.00  0.00    -0.350 N 
ATOM      3  H2  UNL     1      13.901  -2.322  -0.151  1.00  0.00     0.166 HD
HETATM    4  C3  UNL     1      15.192  -3.463   0.988  1.00  0.00     0.182 A 
HETATM    5  N3  UNL     1      16.424  -3.569   1.511  1.00  0.00    -0.337 N 
ATOM      6  H3  UNL     1      16.667  -4.386   2.072  1.00  0.00     0.168 HD
HETATM    7  C4  UNL     1      17.339  -2.609   1.301  1.00  0.00     0.126 A 
HETATM    8  C5  UNL     1      16.989  -1.507   0.535  1.00  0.00     0.117 A 
HETATM    9  N5  UNL     1      17.894  -0.463   0.272  1.00  0.00    -0.096 NA
ENDROOT
BRANCH   1  10
HETATM   10  C1  UNL     1      15.339  -0.234  -0.818  1.00  0.00     0.112 C 
HETATM   11  N1  UNL     1      15.447   0.965  -0.360  1.00  0.00    -0.406 N 
ATOM     12  H12 UNL     1      15.804   1.092   0.587  1.00  0.00     0.155 HD
ATOM     13  H11 UNL     1      15.182   1.772  -0.925  1.00  0.00     0.155 HD
ENDBRANCH   1  10
BRANCH   7  14
HETATM   14  N4  UNL     1      18.530  -2.681   1.790  1.00  0.00    -0.384 N 
ATOM     15  H42 UNL     1      18.649  -2.909   2.777  1.00  0.00     0.157 HD
ATOM     16  H41 UNL     1      19.360  -2.519   1.219  1.00  0.00     0.157 HD
ENDBRANCH   7  14
TORSDOF 2
ENDMDL
MODEL 5
REMARK VINA RESULT: -5.512939911      1.161      3.231
REMARK  2 active torsions:
REMARK  status: ('A' for Active; 'I' for Inactive)
REMARK    1  A    between atoms: C1_4  and  C2_5 
REMARK    2  A    between atoms: C4_11  and  N4_12 
ROOT
HETATM    1  C2  UNL     1      21.781   1.986   9.246  1.00  0.00     0.076 A 
HETATM    2  N2  UNL     1      22.823   2.492   9.929  1.00  0.00    -0.350 N 
ATOM      3  H2  UNL     1      22.877   2.345  10.936  1.00  0.00     0.166 HD
HETATM    4  C3  UNL     1      23.809   3.199   9.303  1.00  0.00     0.182 A 
HETATM    5  N3  UNL     1      23.768   3.412   7.978  1.00  0.00    -0.337 N 
ATOM      6  H3  UNL     1      24.514   3.943   7.528  1.00  0.00     0.168 HD
HETATM    7  C4  UNL     1      22.752   2.933   7.242  1.00  0.00     0.126 A 
HETATM    8  C5  UNL     1      21.749   2.214   7.873  1.00  0.00     0.117 A 
HETATM    9  N5  UNL     1      20.655   1.681   7.168  1.00  0.00    -0.096 NA
ENDROOT
BRANCH   1  10
HETATM   10  C1  UNL     1      20.732   1.233   9.918  1.00  0.00     0.112 C 
HETATM   11  N1  UNL     1      19.640   1.801  10.296  1.00  0.00    -0.406 N 
ATOM     12  H12 UNL     1      19.523   2.797  10.113  1.00  0.00     0.155 HD
ATOM     13  H11 UNL     1      18.905   1.272  10.767  1.00  0.00     0.155 HD
ENDBRANCH   1  10
BRANCH   7  14
HETATM   14  N4  UNL     1      22.683   3.121   5.968  1.00  0.00    -0.384 N 
ATOM     15  H42 UNL     1      22.562   4.068   5.612  1.00  0.00     0.157 HD
ATOM     16  H41 UNL     1      22.747   2.350   5.304  1.00  0.00     0.157 HD
ENDBRANCH   7  14
TORSDOF 2
ENDMDL
