MODEL 1
REMARK VINA RESULT: -5.872514089      0.000      0.000
REMARK  2 active torsions:
REMARK  status: ('A' for Active; 'I' for Inactive)
REMARK    1  A    between atoms: N1_2  and  C2_4 
REMARK    2  A    between atoms: C3_7  and  N3_8 
ROOT
HETATM    1  C2  UNL     1      20.797   1.976   9.116  1.00  0.00     0.707 A 
HETATM    2  N2  UNL     1      21.700   2.696   8.667  1.00  0.00    -0.018 N 
ATOM      3  H2  UNL     1      21.461   3.226   7.829  1.00  0.00     0.203 HD
HETATM    4  C3  UNL     1      22.881   2.870   9.100  1.00  0.00     0.726 A 
HETATM    5  N5  UNL     1      22.867   2.052  10.178  1.00  0.00    -0.116 N 
ATOM      6  H5  UNL     1      23.663   1.919  10.801  1.00  0.00     0.206 HD
HETATM    7  N6  UNL     1      21.781   1.488  10.317  1.00  0.00    -0.117 N 
ATOM      8  H6  UNL     1      21.540   0.829  11.057  1.00  0.00     0.206 HD
ENDROOT
BRANCH   4   9
HETATM    9  N3  UNL     1      23.995   3.660   8.693  1.00  0.00    -0.137 N 
HETATM   10  N4  UNL     1      24.905   4.005   9.485  1.00  0.00    -0.331 N 
ATOM     11  H42 UNL     1      24.830   3.699  10.455  1.00  0.00     0.177 HD
ATOM     12  H41 UNL     1      25.703   4.571   9.193  1.00  0.00     0.177 HD
ATOM     13  H3  UNL     1      24.055   3.958   7.719  1.00  0.00     0.205 HD
ENDBRANCH   4   9
BRANCH   1  14
HETATM   14  N1  UNL     1      19.863   1.233   9.579  1.00  0.00    -0.229 N 
HETATM   15  C1  UNL     1      18.749   1.620  10.345  1.00  0.00     0.165 C 
ATOM     16  H1  UNL     1      19.936   0.237   9.366  1.00  0.00     0.177 HD
ENDBRANCH   1  14
TORSDOF 2
ENDMDL
MODEL 2
REMARK VINA RESULT: -5.832023491      1.237      1.237
REMARK  2 active torsions:
REMARK  status: ('A' for Active; 'I' for Inactive)
REMARK    1  A    between atoms: N1_2  and  C2_4 
REMARK    2  A    between atoms: C3_7  and  N3_8 
ROOT
HETATM    1  C2  UNL     1      21.786   1.451   8.271  1.00  0.00     0.707 A 
HETATM    2  N2  UNL     1      22.564   2.410   8.382  1.00  0.00    -0.018 N 
ATOM      3  H2  UNL     1      22.793   2.889   7.511  1.00  0.00     0.203 HD
HETATM    4  C3  UNL     1      23.116   2.882   9.423  1.00  0.00     0.726 A 
HETATM    5  N5  UNL     1      22.616   2.047  10.363  1.00  0.00    -0.116 N 
ATOM      6  H5  UNL     1      22.837   2.111  11.356  1.00  0.00     0.206 HD
HETATM    7  N6  UNL     1      21.863   1.201   9.878  1.00  0.00    -0.117 N 
ATOM      8  H6  UNL     1      21.374   0.471  10.393  1.00  0.00     0.206 HD
ENDROOT
BRANCH   4   9
HETATM    9  N3  UNL     1      24.004   3.965   9.687  1.00  0.00    -0.137 N 
HETATM   10  N4  UNL     1      25.180   3.997   9.251  1.00  0.00    -0.331 N 
ATOM     11  H42 UNL     1      25.497   3.209   8.686  1.00  0.00     0.177 HD
ATOM     12  H41 UNL     1      25.816   4.772   9.440  1.00  0.00     0.177 HD
ATOM     13  H3  UNL     1      23.671   4.745  10.254  1.00  0.00     0.205 HD
ENDBRANCH   4   9
BRANCH   1  14
HETATM   14  N1  UNL     1      20.983   0.461   8.155  1.00  0.00    -0.229 N 
HETATM   15  C1  UNL     1      19.835   0.184   8.921  1.00  0.00     0.165 C 
ATOM     16  H1  UNL     1      21.201  -0.209   7.418  1.00  0.00     0.177 HD
ENDBRANCH   1  14
TORSDOF 2
ENDMDL
MODEL 3
REMARK VINA RESULT: -5.706562278      0.708      1.005
REMARK  2 active torsions:
REMARK  status: ('A' for Active; 'I' for Inactive)
REMARK    1  A    between atoms: N1_2  and  C2_4 
REMARK    2  A    between atoms: C3_7  and  N3_8 
ROOT
HETATM    1  C2  UNL     1      20.824   2.151   9.449  1.00  0.00     0.707 A 
HETATM    2  N2  UNL     1      21.638   2.770   8.749  1.00  0.00    -0.018 N 
ATOM      3  H2  UNL     1      21.236   3.297   7.974  1.00  0.00     0.203 HD
HETATM    4  C3  UNL     1      22.901   2.842   8.857  1.00  0.00     0.726 A 
HETATM    5  N5  UNL     1      23.097   2.059   9.943  1.00  0.00    -0.116 N 
ATOM      6  H5  UNL     1      24.013   1.867  10.349  1.00  0.00     0.206 HD
HETATM    7  N6  UNL     1      22.040   1.604  10.383  1.00  0.00    -0.117 N 
ATOM      8  H6  UNL     1      21.944   0.991  11.192  1.00  0.00     0.206 HD
ENDROOT
BRANCH   4   9
HETATM    9  N3  UNL     1      23.935   3.512   8.141  1.00  0.00    -0.137 N 
HETATM   10  N4  UNL     1      23.863   3.748   6.911  1.00  0.00    -0.331 N 
ATOM     11  H42 UNL     1      23.024   3.442   6.419  1.00  0.00     0.177 HD
ATOM     12  H41 UNL     1      24.604   4.228   6.399  1.00  0.00     0.177 HD
ATOM     13  H3  UNL     1      24.768   3.811   8.649  1.00  0.00     0.205 HD
ENDBRANCH   4   9
BRANCH   1  14
HETATM   14  N1  UNL     1      19.982   1.513  10.172  1.00  0.00    -0.229 N 
HETATM   15  C1  UNL     1      18.679   1.904  10.532  1.00  0.00     0.165 C 
ATOM     16  H1  UNL     1      20.293   0.609  10.530  1.00  0.00     0.177 HD
ENDBRANCH   1  14
TORSDOF 2
ENDMDL
MODEL 4
REMARK VINA RESULT: -5.486132756      0.839      1.086
REMARK  2 active torsions:
REMARK  status: ('A' for Active; 'I' for Inactive)
REMARK    1  A    between atoms: N1_2  and  C2_4 
REMARK    2  A    between atoms: C3_7  and  N3_8 
ROOT
HETATM    1  C2  UNL     1      21.346   1.488   9.281  1.00  0.00     0.707 A 
HETATM    2  N2  UNL     1      22.487   1.886   9.003  1.00  0.00    -0.018 N 
ATOM      3  H2  UNL     1      23.148   1.159   8.731  1.00  0.00     0.203 HD
HETATM    4  C3  UNL     1      22.951   3.067   9.007  1.00  0.00     0.726 A 
HETATM    5  N5  UNL     1      21.855   3.757   9.397  1.00  0.00    -0.116 N 
ATOM      6  H5  UNL     1      21.832   4.769   9.519  1.00  0.00     0.206 HD
HETATM    7  N6  UNL     1      20.886   3.019   9.587  1.00  0.00    -0.117 N 
ATOM      8  H6  UNL     1      19.958   3.317   9.885  1.00  0.00     0.206 HD
ENDROOT
BRANCH   4   9
HETATM    9  N3  UNL     1      24.214   3.653   8.704  1.00  0.00    -0.137 N 
HETATM   10  N4  UNL     1      25.001   4.060   9.592  1.00  0.00    -0.331 N 
ATOM     11  H42 UNL     1      24.710   3.961  10.565  1.00  0.00     0.177 HD
ATOM     12  H41 UNL     1      25.906   4.479   9.375  1.00  0.00     0.177 HD
ATOM     13  H3  UNL     1      24.490   3.744   7.726  1.00  0.00     0.205 HD
ENDBRANCH   4   9
BRANCH   1  14
HETATM   14  N1  UNL     1      20.168   1.077   9.568  1.00  0.00    -0.229 N 
HETATM   15  C1  UNL     1      19.185   1.734  10.331  1.00  0.00     0.165 C 
ATOM     16  H1  UNL     1      19.911   0.161   9.199  1.00  0.00     0.177 HD
ENDBRANCH   1  14
TORSDOF 2
ENDMDL
MODEL 5
REMARK VINA RESULT: -5.482811498      1.915      4.202
REMARK  2 active torsions:
REMARK  status: ('A' for Active; 'I' for Inactive)
REMARK    1  A    between atoms: N1_2  and  C2_4 
REMARK    2  A    between atoms: C3_7  and  N3_8 
ROOT
HETATM    1  C2  UNL     1      23.403   3.243   7.170  1.00  0.00     0.707 A 
HETATM    2  N2  UNL     1      22.834   2.605   8.068  1.00  0.00    -0.018 N 
ATOM      3  H2  UNL     1      22.070   2.005   7.760  1.00  0.00     0.203 HD
HETATM    4  C3  UNL     1      23.066   2.593   9.316  1.00  0.00     0.726 A 
HETATM    5  N5  UNL     1      24.099   3.463   9.381  1.00  0.00    -0.116 N 
ATOM      6  H5  UNL     1      24.572   3.722  10.246  1.00  0.00     0.206 HD
HETATM    7  N6  UNL     1      24.400   3.908   8.272  1.00  0.00    -0.117 N 
ATOM      8  H6  UNL     1      25.145   4.576   8.078  1.00  0.00     0.206 HD
ENDROOT
BRANCH   4   9
HETATM    9  N3  UNL     1      22.505   1.912  10.436  1.00  0.00    -0.137 N 
HETATM   10  N4  UNL     1      21.467   1.212  10.352  1.00  0.00    -0.331 N 
ATOM     11  H42 UNL     1      21.018   1.138   9.439  1.00  0.00     0.177 HD
ATOM     12  H41 UNL     1      21.066   0.725  11.154  1.00  0.00     0.177 HD
ATOM     13  H3  UNL     1      22.967   1.996  11.342  1.00  0.00     0.205 HD
ENDBRANCH   4   9
BRANCH   1  14
HETATM   14  N1  UNL     1      23.990   3.901   6.242  1.00  0.00    -0.229 N 
HETATM   15  C1  UNL     1      23.719   3.878   4.861  1.00  0.00     0.165 C 
ATOM     16  H1  UNL     1      24.747   4.517   6.540  1.00  0.00     0.177 HD
ENDBRANCH   1  14
TORSDOF 2
ENDMDL
