MODEL 1
REMARK VINA RESULT: -5.255946931      0.000      0.000
REMARK  3 active torsions:
REMARK  status: ('A' for Active; 'I' for Inactive)
REMARK    1  A    between atoms: N1_1  and  N2_4 
REMARK    2  A    between atoms: N2_4  and  N3_6 
REMARK    3  A    between atoms: N3_6  and  C1_8 
ROOT
HETATM    1  N3  UNL     1      23.304   2.680  10.056  1.00  0.00    -0.265 N 
ATOM      2  H3  UNL     1      23.483   2.233  10.954  1.00  0.00     0.190 HD
ENDROOT
BRANCH   1   3
HETATM    3  N2  UNL     1      23.846   3.916   9.846  1.00  0.00    -0.247 N 
ATOM      4  H2  UNL     1      23.303   4.750  10.064  1.00  0.00     0.207 HD
BRANCH   3   5
HETATM    5  N1  UNL     1      25.131   4.044   9.337  1.00  0.00    -0.331 N 
ATOM      6  H12 UNL     1      25.550   3.248   8.857  1.00  0.00     0.178 HD
ATOM      7  H11 UNL     1      25.645   4.919   9.442  1.00  0.00     0.178 HD
ENDBRANCH   3   5
ENDBRANCH   1   3
BRANCH   1   8
HETATM    8  C1  UNL     1      22.577   2.032   9.195  1.00  0.00     0.164 A 
HETATM    9  N4  UNL     1      22.236   0.749   9.127  1.00  0.00    -0.345 N 
HETATM   10  C2  UNL     1      21.484   0.347   8.145  1.00  0.00     0.097 A 
ATOM     11  H4  UNL     1      22.559   0.090   9.835  1.00  0.00     0.167 HD
HETATM   12  C3  UNL     1      21.082   1.281   7.223  1.00  0.00     0.070 A 
HETATM   13  S1  UNL     1      21.815   2.702   7.828  1.00  0.00    -0.063 SA
ENDBRANCH   1   8
TORSDOF 3
ENDMDL
MODEL 2
REMARK VINA RESULT: -5.178560562      1.237      1.318
REMARK  3 active torsions:
REMARK  status: ('A' for Active; 'I' for Inactive)
REMARK    1  A    between atoms: N1_1  and  N2_4 
REMARK    2  A    between atoms: N2_4  and  N3_6 
REMARK    3  A    between atoms: N3_6  and  C1_8 
ROOT
HETATM    1  N3  UNL     1      22.968   2.301  10.019  1.00  0.00    -0.265 N 
ATOM      2  H3  UNL     1      23.442   1.922  10.839  1.00  0.00     0.190 HD
ENDROOT
BRANCH   1   3
HETATM    3  N2  UNL     1      23.311   3.560   9.616  1.00  0.00    -0.247 N 
ATOM      4  H2  UNL     1      22.581   4.234   9.387  1.00  0.00     0.207 HD
BRANCH   3   5
HETATM    5  N1  UNL     1      24.645   3.929   9.515  1.00  0.00    -0.331 N 
ATOM      6  H12 UNL     1      25.155   4.159  10.367  1.00  0.00     0.178 HD
ATOM      7  H11 UNL     1      25.104   3.967   8.605  1.00  0.00     0.178 HD
ENDBRANCH   3   5
ENDBRANCH   1   3
BRANCH   1   8
HETATM    8  C1  UNL     1      22.083   1.550   9.436  1.00  0.00     0.164 A 
HETATM    9  N4  UNL     1      22.196   0.673   8.443  1.00  0.00    -0.345 N 
HETATM   10  C2  UNL     1      21.135   0.040   8.036  1.00  0.00     0.097 A 
ATOM     11  H4  UNL     1      23.102   0.500   8.007  1.00  0.00     0.167 HD
HETATM   12  C3  UNL     1      19.945   0.317   8.661  1.00  0.00     0.070 A 
HETATM   13  S1  UNL     1      20.424   1.486   9.813  1.00  0.00    -0.063 SA
ENDBRANCH   1   8
TORSDOF 3
ENDMDL
MODEL 3
REMARK VINA RESULT: -5.079914602      1.627      1.691
REMARK  3 active torsions:
REMARK  status: ('A' for Active; 'I' for Inactive)
REMARK    1  A    between atoms: N1_1  and  N2_4 
REMARK    2  A    between atoms: N2_4  and  N3_6 
REMARK    3  A    between atoms: N3_6  and  C1_8 
ROOT
HETATM    1  N3  UNL     1      22.956   2.320   9.977  1.00  0.00    -0.265 N 
ATOM      2  H3  UNL     1      23.631   1.801  10.539  1.00  0.00     0.190 HD
ENDROOT
BRANCH   1   3
HETATM    3  N2  UNL     1      23.303   3.578   9.575  1.00  0.00    -0.247 N 
ATOM      4  H2  UNL     1      22.575   4.251   9.334  1.00  0.00     0.207 HD
BRANCH   3   5
HETATM    5  N1  UNL     1      24.638   3.948   9.491  1.00  0.00    -0.331 N 
ATOM      6  H12 UNL     1      25.350   3.285   9.796  1.00  0.00     0.178 HD
ATOM      7  H11 UNL     1      24.899   4.865   9.130  1.00  0.00     0.178 HD
ENDBRANCH   3   5
ENDBRANCH   1   3
BRANCH   1   8
HETATM    8  C1  UNL     1      21.830   1.735   9.698  1.00  0.00     0.164 A 
HETATM    9  N4  UNL     1      20.632   1.826  10.267  1.00  0.00    -0.345 N 
HETATM   10  C2  UNL     1      19.650   1.121   9.786  1.00  0.00     0.097 A 
ATOM     11  H4  UNL     1      20.485   2.438  11.070  1.00  0.00     0.167 HD
HETATM   12  C3  UNL     1      19.910   0.315   8.706  1.00  0.00     0.070 A 
HETATM   13  S1  UNL     1      21.570   0.619   8.439  1.00  0.00    -0.063 SA
ENDBRANCH   1   8
TORSDOF 3
ENDMDL
MODEL 4
REMARK VINA RESULT: -4.936658236      9.934     10.481
REMARK  3 active torsions:
REMARK  status: ('A' for Active; 'I' for Inactive)
REMARK    1  A    between atoms: N1_1  and  N2_4 
REMARK    2  A    between atoms: N2_4  and  N3_6 
REMARK    3  A    between atoms: N3_6  and  C1_8 
ROOT
HETATM    1  N3  UNL     1      18.219  -2.890   1.845  1.00  0.00    -0.265 N 
ATOM      2  H3  UNL     1      17.764  -3.588   2.433  1.00  0.00     0.190 HD
ENDROOT
BRANCH   1   3
HETATM    3  N2  UNL     1      19.584  -2.870   1.828  1.00  0.00    -0.247 N 
ATOM      4  H2  UNL     1      20.073  -2.126   1.331  1.00  0.00     0.207 HD
BRANCH   3   5
HETATM    5  N1  UNL     1      20.311  -3.855   2.483  1.00  0.00    -0.331 N 
ATOM      6  H12 UNL     1      20.679  -3.656   3.413  1.00  0.00     0.178 HD
ATOM      7  H11 UNL     1      20.473  -4.759   2.041  1.00  0.00     0.178 HD
ENDBRANCH   3   5
ENDBRANCH   1   3
BRANCH   1   8
HETATM    8  C1  UNL     1      17.457  -2.086   1.166  1.00  0.00     0.164 A 
HETATM    9  N4  UNL     1      17.689  -0.879   0.659  1.00  0.00    -0.345 N 
HETATM   10  C2  UNL     1      16.739  -0.274   0.009  1.00  0.00     0.097 A 
ATOM     11  H4  UNL     1      18.599  -0.434   0.780  1.00  0.00     0.167 HD
HETATM   12  C3  UNL     1      15.536  -0.924  -0.119  1.00  0.00     0.070 A 
HETATM   13  S1  UNL     1      15.843  -2.385   0.713  1.00  0.00    -0.063 SA
ENDBRANCH   1   8
TORSDOF 3
ENDMDL
MODEL 5
REMARK VINA RESULT: -4.903077399      9.806     10.664
REMARK  3 active torsions:
REMARK  status: ('A' for Active; 'I' for Inactive)
REMARK    1  A    between atoms: N1_1  and  N2_4 
REMARK    2  A    between atoms: N2_4  and  N3_6 
REMARK    3  A    between atoms: N3_6  and  C1_8 
ROOT
HETATM    1  N3  UNL     1      18.026  -2.774   1.911  1.00  0.00    -0.265 N 
ATOM      2  H3  UNL     1      17.707  -3.239   2.760  1.00  0.00     0.190 HD
ENDROOT
BRANCH   1   3
HETATM    3  N2  UNL     1      19.368  -2.768   1.659  1.00  0.00    -0.247 N 
ATOM      4  H2  UNL     1      19.743  -2.168   0.924  1.00  0.00     0.207 HD
BRANCH   3   5
HETATM    5  N1  UNL     1      20.227  -3.572   2.397  1.00  0.00    -0.331 N 
ATOM      6  H12 UNL     1      20.404  -3.334   3.372  1.00  0.00     0.178 HD
ATOM      7  H11 UNL     1      20.670  -4.384   1.969  1.00  0.00     0.178 HD
ENDBRANCH   3   5
ENDBRANCH   1   3
BRANCH   1   8
HETATM    8  C1  UNL     1      17.126  -2.231   1.148  1.00  0.00     0.164 A 
HETATM    9  N4  UNL     1      15.957  -2.690   0.708  1.00  0.00    -0.345 N 
HETATM   10  C2  UNL     1      15.230  -1.933  -0.059  1.00  0.00     0.097 A 
ATOM     11  H4  UNL     1      15.637  -3.623   0.969  1.00  0.00     0.167 HD
HETATM   12  C3  UNL     1      15.715  -0.688  -0.376  1.00  0.00     0.070 A 
HETATM   13  S1  UNL     1      17.207  -0.677   0.457  1.00  0.00    -0.063 SA
ENDBRANCH   1   8
TORSDOF 3
ENDMDL
