MODEL 1
REMARK VINA RESULT: -4.748321053      0.000      0.000
REMARK  4 active torsions:
REMARK  status: ('A' for Active; 'I' for Inactive)
REMARK    1  A    between atoms: N1_1  and  N2_4 
REMARK    2  A    between atoms: N2_4  and  N3_5 
REMARK    3  A    between atoms: N3_5  and  O1_6 
REMARK    4  A    between atoms: N3_5  and  C1_8 
ROOT
HETATM    1  C1  UNL     1       9.419   1.328  20.553  1.00  0.00     0.259 C 
HETATM    2  C2  UNL     1       7.995   1.646  20.290  1.00  0.00     0.165 C 
HETATM    3  N4  UNL     1       7.601   2.952  20.649  1.00  0.00    -0.415 N 
ATOM      4  H4  UNL     1       6.658   3.129  20.996  1.00  0.00     0.153 HD
HETATM    5  C3  UNL     1       8.510   3.997  20.525  1.00  0.00     0.140 C 
HETATM    6  C4  UNL     1       9.813   3.454  19.921  1.00  0.00     0.189 C 
HETATM    7  O2  UNL     1      10.221   2.435  20.796  1.00  0.00    -0.364 OA
ENDROOT
BRANCH   1   8
HETATM    8  N3  UNL     1      10.015   0.611  19.437  1.00  0.00    -0.060 NA
BRANCH   8   9
HETATM    9  N2  UNL     1       9.112  -0.187  18.760  1.00  0.00    -0.027 NA
BRANCH   9  10
HETATM   10  N1  UNL     1       9.765  -1.416  18.502  1.00  0.00    -0.331 N 
ATOM     11  H12 UNL     1      10.620  -1.536  17.959  1.00  0.00     0.173 HD
ATOM     12  H11 UNL     1       9.217  -2.145  18.960  1.00  0.00     0.173 HD
ENDBRANCH   9  10
ENDBRANCH   8   9
BRANCH   8  13
HETATM   13  O1  UNL     1      10.991  -0.188  19.948  1.00  0.00    -0.293 OA
ATOM     14  H1  UNL     1      11.825   0.105  19.602  1.00  0.00     0.238 HD
ENDBRANCH   8  13
ENDBRANCH   1   8
TORSDOF 4
ENDMDL
MODEL 2
REMARK VINA RESULT: -4.660674908      2.771      3.334
REMARK  4 active torsions:
REMARK  status: ('A' for Active; 'I' for Inactive)
REMARK    1  A    between atoms: N1_1  and  N2_4 
REMARK    2  A    between atoms: N2_4  and  N3_5 
REMARK    3  A    between atoms: N3_5  and  O1_6 
REMARK    4  A    between atoms: N3_5  and  C1_8 
ROOT
HETATM    1  C1  UNL     1       8.975   3.909  20.562  1.00  0.00     0.259 C 
HETATM    2  C2  UNL     1       8.044   2.953  19.916  1.00  0.00     0.165 C 
HETATM    3  N4  UNL     1       8.213   2.808  18.522  1.00  0.00    -0.415 N 
ATOM      4  H4  UNL     1       7.408   2.630  17.922  1.00  0.00     0.153 HD
HETATM    5  C3  UNL     1       9.488   2.908  17.977  1.00  0.00     0.140 C 
HETATM    6  C4  UNL     1      10.501   3.109  19.111  1.00  0.00     0.189 C 
HETATM    7  O2  UNL     1      10.070   4.263  19.784  1.00  0.00    -0.364 OA
ENDROOT
BRANCH   1   8
HETATM    8  N3  UNL     1       9.498   3.376  21.809  1.00  0.00    -0.060 NA
BRANCH   8   9
HETATM    9  N2  UNL     1       8.970   2.141  22.136  1.00  0.00    -0.027 NA
BRANCH   9  10
HETATM   10  N1  UNL     1      10.063   1.258  22.302  1.00  0.00    -0.331 N 
ATOM     11  H12 UNL     1      10.431   0.623  21.593  1.00  0.00     0.173 HD
ATOM     12  H11 UNL     1      10.403   1.382  23.255  1.00  0.00     0.173 HD
ENDBRANCH   9  10
ENDBRANCH   8   9
BRANCH   8  13
HETATM   13  O1  UNL     1       9.165   4.255  22.793  1.00  0.00    -0.293 OA
ATOM     14  H1  UNL     1       8.222   4.234  22.904  1.00  0.00     0.238 HD
ENDBRANCH   8  13
ENDBRANCH   1   8
TORSDOF 4
ENDMDL
MODEL 3
REMARK VINA RESULT: -4.646179419      2.283      3.510
REMARK  4 active torsions:
REMARK  status: ('A' for Active; 'I' for Inactive)
REMARK    1  A    between atoms: N1_1  and  N2_4 
REMARK    2  A    between atoms: N2_4  and  N3_5 
REMARK    3  A    between atoms: N3_5  and  O1_6 
REMARK    4  A    between atoms: N3_5  and  C1_8 
ROOT
HETATM    1  C1  UNL     1       8.685   1.490  21.175  1.00  0.00     0.259 C 
HETATM    2  C2  UNL     1       9.202   1.094  19.843  1.00  0.00     0.165 C 
HETATM    3  N4  UNL     1       8.213   0.717  18.910  1.00  0.00    -0.415 N 
ATOM      4  H4  UNL     1       8.406  -0.008  18.219  1.00  0.00     0.153 HD
HETATM    5  C3  UNL     1       6.972   1.344  18.942  1.00  0.00     0.140 C 
HETATM    6  C4  UNL     1       6.988   2.427  20.028  1.00  0.00     0.189 C 
HETATM    7  O2  UNL     1       7.322   1.750  21.212  1.00  0.00    -0.364 OA
ENDROOT
BRANCH   1   8
HETATM    8  N3  UNL     1       9.356   2.683  21.668  1.00  0.00    -0.060 NA
BRANCH   8   9
HETATM    9  N2  UNL     1      10.512   2.984  20.972  1.00  0.00    -0.027 NA
BRANCH   9  10
HETATM   10  N1  UNL     1      11.483   3.356  21.932  1.00  0.00    -0.331 N 
ATOM     11  H12 UNL     1      11.294   3.771  22.844  1.00  0.00     0.173 HD
ATOM     12  H11 UNL     1      12.394   3.128  21.534  1.00  0.00     0.173 HD
ENDBRANCH   9  10
ENDBRANCH   8   9
BRANCH   8  13
HETATM   13  O1  UNL     1       9.689   2.450  22.967  1.00  0.00    -0.293 OA
ATOM     14  H1  UNL     1      10.071   1.582  23.024  1.00  0.00     0.238 HD
ENDBRANCH   8  13
ENDBRANCH   1   8
TORSDOF 4
ENDMDL
MODEL 4
REMARK VINA RESULT: -4.611770510      2.568      3.839
REMARK  4 active torsions:
REMARK  status: ('A' for Active; 'I' for Inactive)
REMARK    1  A    between atoms: N1_1  and  N2_4 
REMARK    2  A    between atoms: N2_4  and  N3_5 
REMARK    3  A    between atoms: N3_5  and  O1_6 
REMARK    4  A    between atoms: N3_5  and  C1_8 
ROOT
HETATM    1  C1  UNL     1       9.618   2.351  21.444  1.00  0.00     0.259 C 
HETATM    2  C2  UNL     1      10.227   3.478  22.191  1.00  0.00     0.165 C 
HETATM    3  N4  UNL     1      11.623   3.614  22.031  1.00  0.00    -0.415 N 
ATOM      4  H4  UNL     1      12.199   3.952  22.801  1.00  0.00     0.153 HD
HETATM    5  C3  UNL     1      12.203   3.281  20.811  1.00  0.00     0.140 C 
HETATM    6  C4  UNL     1      11.099   2.871  19.828  1.00  0.00     0.189 C 
HETATM    7  O2  UNL     1      10.429   1.809  20.456  1.00  0.00    -0.364 OA
ENDROOT
BRANCH   1   8
HETATM    8  N3  UNL     1       8.379   2.753  20.799  1.00  0.00    -0.060 NA
BRANCH   8   9
HETATM    9  N2  UNL     1       7.979   4.032  21.139  1.00  0.00    -0.027 NA
BRANCH   9  10
HETATM   10  N1  UNL     1       6.667   4.200  20.635  1.00  0.00    -0.331 N 
ATOM     11  H12 UNL     1       6.174   5.087  20.538  1.00  0.00     0.173 HD
ATOM     12  H11 UNL     1       6.322   3.271  20.393  1.00  0.00     0.173 HD
ENDBRANCH   9  10
ENDBRANCH   8   9
BRANCH   8  13
HETATM   13  O1  UNL     1       7.414   1.884  21.205  1.00  0.00    -0.293 OA
ATOM     14  H1  UNL     1       7.095   2.169  22.053  1.00  0.00     0.238 HD
ENDBRANCH   8  13
ENDBRANCH   1   8
TORSDOF 4
ENDMDL
MODEL 5
REMARK VINA RESULT: -4.604938796      2.104      3.748
REMARK  4 active torsions:
REMARK  status: ('A' for Active; 'I' for Inactive)
REMARK    1  A    between atoms: N1_1  and  N2_4 
REMARK    2  A    between atoms: N2_4  and  N3_5 
REMARK    3  A    between atoms: N3_5  and  O1_6 
REMARK    4  A    between atoms: N3_5  and  C1_8 
ROOT
HETATM    1  C1  UNL     1      10.506   1.361  20.076  1.00  0.00     0.259 C 
HETATM    2  C2  UNL     1      10.044   2.058  18.852  1.00  0.00     0.165 C 
HETATM    3  N4  UNL     1      10.371   1.412  17.641  1.00  0.00    -0.415 N 
ATOM      4  H4  UNL     1      10.579   1.959  16.805  1.00  0.00     0.153 HD
HETATM    5  C3  UNL     1      10.406   0.023  17.597  1.00  0.00     0.140 C 
HETATM    6  C4  UNL     1       9.989  -0.529  18.966  1.00  0.00     0.189 C 
HETATM    7  O2  UNL     1      10.890   0.042  19.879  1.00  0.00    -0.364 OA
ENDROOT
BRANCH   1   8
HETATM    8  N3  UNL     1       9.474   1.352  21.100  1.00  0.00    -0.060 NA
BRANCH   8   9
HETATM    9  N2  UNL     1       8.839   2.572  21.243  1.00  0.00    -0.027 NA
BRANCH   9  10
HETATM   10  N1  UNL     1       9.385   3.186  22.396  1.00  0.00    -0.331 N 
ATOM     11  H12 UNL     1      10.292   2.975  22.812  1.00  0.00     0.173 HD
ATOM     12  H11 UNL     1       8.701   3.869  22.720  1.00  0.00     0.173 HD
ENDBRANCH   9  10
ENDBRANCH   8   9
BRANCH   8  13
HETATM   13  O1  UNL     1      10.080   1.047  22.280  1.00  0.00    -0.293 OA
ATOM     14  H1  UNL     1      10.930   1.469  22.294  1.00  0.00     0.238 HD
ENDBRANCH   8  13
ENDBRANCH   1   8
TORSDOF 4
ENDMDL
