MODEL 1
REMARK VINA RESULT: -5.018875111      0.000      0.000
REMARK  6 active torsions:
REMARK  status: ('A' for Active; 'I' for Inactive)
REMARK    1  A    between atoms: N1_1  and  C1_4 
REMARK    2  A    between atoms: N3_8  and  C3_9 
REMARK    3  A    between atoms: C3_9  and  C4_10 
REMARK    4  A    between atoms: C4_10  and  C5_11 
REMARK    5  A    between atoms: C5_11  and  N4_12 
REMARK    6  A    between atoms: C5_11  and  N5_16 
ROOT
HETATM    1  C3  UNL     1      10.274   2.954  20.081  1.00  0.00     0.173 C 
ENDROOT
BRANCH   1   2
HETATM    2  N3  UNL     1      10.463   1.765  19.298  1.00  0.00    -0.233 N 
HETATM    3  N2  UNL     1      11.300   1.560  18.272  1.00  0.00    -0.292 N 
HETATM    4  C2  UNL     1      11.165   0.301  17.816  1.00  0.00     0.158 A 
ATOM      5  H2  UNL     1      11.944   2.254  17.893  1.00  0.00     0.188 HD
HETATM    6  C1  UNL     1      10.191  -0.273  18.619  1.00  0.00     0.132 A 
HETATM    7  N6  UNL     1       9.782   0.643  19.515  1.00  0.00    -0.268 N 
ATOM      8  H6  UNL     1       9.073   0.502  20.235  1.00  0.00     0.190 HD
BRANCH   6   9
HETATM    9  N1  UNL     1       9.779  -1.502  18.485  1.00  0.00    -0.383 N 
ATOM     10  H12 UNL     1       9.435  -1.959  17.641  1.00  0.00     0.157 HD
ATOM     11  H11 UNL     1       9.754  -2.174  19.251  1.00  0.00     0.157 HD
ENDBRANCH   6   9
ENDBRANCH   1   2
BRANCH   1  12
HETATM   12  C4  UNL     1      11.283   3.099  21.194  1.00  0.00     0.085 C 
BRANCH  12  13
HETATM   13  C5  UNL     1      10.480   3.433  22.458  1.00  0.00     0.379 C 
BRANCH  13  14
HETATM   14  N4  UNL     1      11.322   3.892  23.518  1.00  0.00    -0.050 N 
ATOM     15  H43 UNL     1      12.029   4.543  23.174  1.00  0.00     0.276 HD
ATOM     16  H42 UNL     1      10.819   4.519  24.146  1.00  0.00     0.276 HD
ATOM     17  H41 UNL     1      11.747   3.118  24.029  1.00  0.00     0.276 HD
ENDBRANCH  13  14
BRANCH  13  18
HETATM   18  N5  UNL     1       9.735   2.254  22.801  1.00  0.00    -0.050 N 
ATOM     19  H53 UNL     1       8.734   2.349  22.633  1.00  0.00     0.276 HD
ATOM     20  H52 UNL     1       9.900   1.476  22.163  1.00  0.00     0.276 HD
ATOM     21  H51 UNL     1       9.961   2.034  23.772  1.00  0.00     0.276 HD
ENDBRANCH  13  18
ENDBRANCH  12  13
ENDBRANCH   1  12
TORSDOF 6
ENDMDL
MODEL 2
REMARK VINA RESULT: -4.944074113      0.957      1.659
REMARK  6 active torsions:
REMARK  status: ('A' for Active; 'I' for Inactive)
REMARK    1  A    between atoms: N1_1  and  C1_4 
REMARK    2  A    between atoms: N3_8  and  C3_9 
REMARK    3  A    between atoms: C3_9  and  C4_10 
REMARK    4  A    between atoms: C4_10  and  C5_11 
REMARK    5  A    between atoms: C5_11  and  N4_12 
REMARK    6  A    between atoms: C5_11  and  N5_16 
ROOT
HETATM    1  C3  UNL     1      10.867   2.766  19.919  1.00  0.00     0.173 C 
ENDROOT
BRANCH   1   2
HETATM    2  N3  UNL     1      10.106   1.653  19.424  1.00  0.00    -0.233 N 
HETATM    3  N2  UNL     1       8.801   1.594  19.128  1.00  0.00    -0.292 N 
HETATM    4  C2  UNL     1       8.486   0.361  18.692  1.00  0.00     0.158 A 
ATOM      5  H2  UNL     1       8.143   2.369  19.220  1.00  0.00     0.188 HD
HETATM    6  C1  UNL     1       9.674  -0.352  18.730  1.00  0.00     0.132 A 
HETATM    7  N6  UNL     1      10.646   0.462  19.180  1.00  0.00    -0.268 N 
ATOM      8  H6  UNL     1      11.625   0.210  19.311  1.00  0.00     0.190 HD
BRANCH   6   9
HETATM    9  N1  UNL     1       9.776  -1.601  18.376  1.00  0.00    -0.383 N 
ATOM     10  H12 UNL     1       9.307  -2.075  17.605  1.00  0.00     0.157 HD
ATOM     11  H11 UNL     1      10.367  -2.278  18.859  1.00  0.00     0.157 HD
ENDBRANCH   6   9
ENDBRANCH   1   2
BRANCH   1  12
HETATM   12  C4  UNL     1      10.130   3.572  20.960  1.00  0.00     0.085 C 
BRANCH  12  13
HETATM   13  C5  UNL     1      10.478   2.941  22.315  1.00  0.00     0.379 C 
BRANCH  13  14
HETATM   14  N4  UNL     1       9.419   2.117  22.806  1.00  0.00    -0.050 N 
ATOM     15  H43 UNL     1       9.739   1.514  23.564  1.00  0.00     0.276 HD
ATOM     16  H42 UNL     1       8.728   2.666  23.318  1.00  0.00     0.276 HD
ATOM     17  H41 UNL     1       8.982   1.575  22.060  1.00  0.00     0.276 HD
ENDBRANCH  13  14
BRANCH  13  18
HETATM   18  N5  UNL     1      10.811   4.019  23.203  1.00  0.00    -0.050 N 
ATOM     19  H53 UNL     1      10.973   4.902  22.719  1.00  0.00     0.276 HD
ATOM     20  H52 UNL     1      10.024   4.327  23.774  1.00  0.00     0.276 HD
ATOM     21  H51 UNL     1      11.612   3.711  23.754  1.00  0.00     0.276 HD
ENDBRANCH  13  18
ENDBRANCH  12  13
ENDBRANCH   1  12
TORSDOF 6
ENDMDL
MODEL 3
REMARK VINA RESULT: -4.915462235      3.217      4.612
REMARK  6 active torsions:
REMARK  status: ('A' for Active; 'I' for Inactive)
REMARK    1  A    between atoms: N1_1  and  C1_4 
REMARK    2  A    between atoms: N3_8  and  C3_9 
REMARK    3  A    between atoms: C3_9  and  C4_10 
REMARK    4  A    between atoms: C4_10  and  C5_11 
REMARK    5  A    between atoms: C5_11  and  N4_12 
REMARK    6  A    between atoms: C5_11  and  N5_16 
ROOT
HETATM    1  C3  UNL     1       9.130   2.685  20.336  1.00  0.00     0.173 C 
ENDROOT
BRANCH   1   2
HETATM    2  N3  UNL     1       7.877   3.367  20.161  1.00  0.00    -0.233 N 
HETATM    3  N2  UNL     1       6.919   3.140  19.252  1.00  0.00    -0.292 N 
HETATM    4  C2  UNL     1       5.904   4.004  19.433  1.00  0.00     0.158 A 
ATOM      5  H2  UNL     1       6.953   2.419  18.531  1.00  0.00     0.188 HD
HETATM    6  C1  UNL     1       6.283   4.789  20.512  1.00  0.00     0.132 A 
HETATM    7  N6  UNL     1       7.491   4.376  20.935  1.00  0.00    -0.268 N 
ATOM      8  H6  UNL     1       8.019   4.769  21.715  1.00  0.00     0.190 HD
BRANCH   6   9
HETATM    9  N1  UNL     1       5.551   5.752  20.995  1.00  0.00    -0.383 N 
ATOM     10  H12 UNL     1       5.712   6.757  20.926  1.00  0.00     0.157 HD
ATOM     11  H11 UNL     1       4.693   5.598  21.524  1.00  0.00     0.157 HD
ENDBRANCH   6   9
ENDBRANCH   1   2
BRANCH   1  12
HETATM   12  C4  UNL     1      10.197   3.555  20.953  1.00  0.00     0.085 C 
BRANCH  12  13
HETATM   13  C5  UNL     1      10.543   2.913  22.303  1.00  0.00     0.379 C 
BRANCH  13  14
HETATM   14  N4  UNL     1       9.494   2.064  22.774  1.00  0.00    -0.050 N 
ATOM     15  H43 UNL     1       8.909   2.544  23.458  1.00  0.00     0.276 HD
ATOM     16  H42 UNL     1       8.795   1.902  22.050  1.00  0.00     0.276 HD
ATOM     17  H41 UNL     1       9.855   1.185  23.146  1.00  0.00     0.276 HD
ENDBRANCH  13  14
BRANCH  13  18
HETATM   18  N5  UNL     1      10.849   3.986  23.207  1.00  0.00    -0.050 N 
ATOM     19  H53 UNL     1      11.742   4.436  23.009  1.00  0.00     0.276 HD
ATOM     20  H52 UNL     1      10.257   4.806  23.072  1.00  0.00     0.276 HD
ATOM     21  H51 UNL     1      10.793   3.602  24.151  1.00  0.00     0.276 HD
ENDBRANCH  13  18
ENDBRANCH  12  13
ENDBRANCH   1  12
TORSDOF 6
ENDMDL
MODEL 4
REMARK VINA RESULT: -4.901940348      2.311      4.822
REMARK  6 active torsions:
REMARK  status: ('A' for Active; 'I' for Inactive)
REMARK    1  A    between atoms: N1_1  and  C1_4 
REMARK    2  A    between atoms: N3_8  and  C3_9 
REMARK    3  A    between atoms: C3_9  and  C4_10 
REMARK    4  A    between atoms: C4_10  and  C5_11 
REMARK    5  A    between atoms: C5_11  and  N4_12 
REMARK    6  A    between atoms: C5_11  and  N5_16 
ROOT
HETATM    1  C3  UNL     1       8.603   1.362  21.204  1.00  0.00     0.173 C 
ENDROOT
BRANCH   1   2
HETATM    2  N3  UNL     1       9.739   2.162  21.573  1.00  0.00    -0.233 N 
HETATM    3  N2  UNL     1      10.795   2.514  20.827  1.00  0.00    -0.292 N 
HETATM    4  C2  UNL     1      11.637   3.270  21.554  1.00  0.00     0.158 A 
ATOM      5  H2  UNL     1      10.939   2.248  19.852  1.00  0.00     0.188 HD
HETATM    6  C1  UNL     1      11.045   3.373  22.804  1.00  0.00     0.132 A 
HETATM    7  N6  UNL     1       9.888   2.687  22.785  1.00  0.00    -0.268 N 
ATOM      8  H6  UNL     1       9.238   2.587  23.565  1.00  0.00     0.190 HD
BRANCH   6   9
HETATM    9  N1  UNL     1      11.566   4.037  23.796  1.00  0.00    -0.383 N 
ATOM     10  H12 UNL     1      11.621   3.760  24.776  1.00  0.00     0.157 HD
ATOM     11  H11 UNL     1      11.996   4.956  23.695  1.00  0.00     0.157 HD
ENDBRANCH   6   9
ENDBRANCH   1   2
BRANCH   1  12
HETATM   12  C4  UNL     1       8.446   1.208  19.711  1.00  0.00     0.085 C 
BRANCH  12  13
HETATM   13  C5  UNL     1       7.050   1.745  19.371  1.00  0.00     0.379 C 
BRANCH  13  14
HETATM   14  N4  UNL     1       6.399   2.300  20.516  1.00  0.00    -0.050 N 
ATOM     15  H43 UNL     1       6.994   2.983  20.986  1.00  0.00     0.276 HD
ATOM     16  H42 UNL     1       5.631   2.914  20.245  1.00  0.00     0.276 HD
ATOM     17  H41 UNL     1       6.084   1.576  21.162  1.00  0.00     0.276 HD
ENDBRANCH  13  14
BRANCH  13  18
HETATM   18  N5  UNL     1       6.320   0.660  18.779  1.00  0.00    -0.050 N 
ATOM     19  H53 UNL     1       6.337   0.673  17.760  1.00  0.00     0.276 HD
ATOM     20  H52 UNL     1       6.774  -0.245  18.905  1.00  0.00     0.276 HD
ATOM     21  H51 UNL     1       5.376   0.693  19.165  1.00  0.00     0.276 HD
ENDBRANCH  13  18
ENDBRANCH  12  13
ENDBRANCH   1  12
TORSDOF 6
ENDMDL
MODEL 5
REMARK VINA RESULT: -4.874962002      1.800      5.109
REMARK  6 active torsions:
REMARK  status: ('A' for Active; 'I' for Inactive)
REMARK    1  A    between atoms: N1_1  and  C1_4 
REMARK    2  A    between atoms: N3_8  and  C3_9 
REMARK    3  A    between atoms: C3_9  and  C4_10 
REMARK    4  A    between atoms: C4_10  and  C5_11 
REMARK    5  A    between atoms: C5_11  and  N4_12 
REMARK    6  A    between atoms: C5_11  and  N5_16 
ROOT
HETATM    1  C3  UNL     1       8.942   1.034  20.300  1.00  0.00     0.173 C 
ENDROOT
BRANCH   1   2
HETATM    2  N3  UNL     1       9.343   2.160  21.098  1.00  0.00    -0.233 N 
HETATM    3  N2  UNL     1       8.800   3.384  21.153  1.00  0.00    -0.292 N 
HETATM    4  C2  UNL     1       9.479   4.145  22.031  1.00  0.00     0.158 A 
ATOM      5  H2  UNL     1       7.994   3.693  20.610  1.00  0.00     0.188 HD
HETATM    6  C1  UNL     1      10.481   3.324  22.525  1.00  0.00     0.132 A 
HETATM    7  N6  UNL     1      10.372   2.118  21.938  1.00  0.00    -0.268 N 
ATOM      8  H6  UNL     1      10.975   1.313  22.108  1.00  0.00     0.190 HD
BRANCH   6   9
HETATM    9  N1  UNL     1      11.355   3.707  23.411  1.00  0.00    -0.383 N 
ATOM     10  H12 UNL     1      12.248   4.172  23.251  1.00  0.00     0.157 HD
ATOM     11  H11 UNL     1      11.236   3.574  24.415  1.00  0.00     0.157 HD
ENDBRANCH   6   9
ENDBRANCH   1   2
BRANCH   1  12
HETATM   12  C4  UNL     1      10.060   0.480  19.451  1.00  0.00     0.085 C 
BRANCH  12  13
HETATM   13  C5  UNL     1       9.389  -0.327  18.332  1.00  0.00     0.379 C 
BRANCH  13  14
HETATM   14  N4  UNL     1       7.964  -0.299  18.438  1.00  0.00    -0.050 N 
ATOM     15  H43 UNL     1       7.665   0.097  19.330  1.00  0.00     0.276 HD
ATOM     16  H42 UNL     1       7.558   0.394  17.810  1.00  0.00     0.276 HD
ATOM     17  H41 UNL     1       7.553  -1.221  18.286  1.00  0.00     0.276 HD
ENDBRANCH  13  14
BRANCH  13  18
HETATM   18  N5  UNL     1       9.933  -1.654  18.393  1.00  0.00    -0.050 N 
ATOM     19  H53 UNL     1      10.747  -1.727  19.003  1.00  0.00     0.276 HD
ATOM     20  H52 UNL     1       9.335  -2.310  18.896  1.00  0.00     0.276 HD
ATOM     21  H51 UNL     1      10.123  -1.939  17.432  1.00  0.00     0.276 HD
ENDBRANCH  13  18
ENDBRANCH  12  13
ENDBRANCH   1  12
TORSDOF 6
ENDMDL
