MODEL 1
REMARK VINA RESULT: -5.861448264      0.000      0.000
REMARK  3 active torsions:
REMARK  status: ('A' for Active; 'I' for Inactive)
REMARK    1  A    between atoms: C3_6  and  N2_7 
REMARK    2  A    between atoms: N2_7  and  N3_9 
REMARK    3  A    between atoms: N3_9  and  C4_11 
ROOT
HETATM    1  N1  UNL     1      -5.321  -4.319  10.672  1.00  0.00    -0.385 N 
ATOM      2  H11 UNL     1      -5.208  -4.769   9.765  1.00  0.00     0.157 HD
ATOM      3  H12 UNL     1      -6.245  -4.280  11.103  1.00  0.00     0.157 HD
HETATM    4  C1  UNL     1      -4.299  -3.802  11.272  1.00  0.00     0.103 A 
HETATM    5  C2  UNL     1      -4.450  -3.200  12.485  1.00  0.00     0.097 A 
HETATM    6  C3  UNL     1      -3.378  -2.642  13.143  1.00  0.00     0.124 A 
HETATM    7  N4  UNL     1      -2.173  -2.707  12.555  1.00  0.00    -0.337 N 
ATOM      8  H4  UNL     1      -1.357  -2.304  13.015  1.00  0.00     0.168 HD
HETATM    9  C5  UNL     1      -2.044  -3.311  11.347  1.00  0.00     0.183 A 
HETATM   10  N5  UNL     1      -3.094  -3.854  10.710  1.00  0.00    -0.339 N 
ATOM     11  H5  UNL     1      -2.968  -4.302   9.803  1.00  0.00     0.168 HD
ENDROOT
BRANCH   6  12
HETATM   12  N2  UNL     1      -3.593  -2.016  14.397  1.00  0.00    -0.283 N 
ATOM     13  H2  UNL     1      -4.059  -1.108  14.410  1.00  0.00     0.188 HD
BRANCH  12  14
HETATM   14  N3  UNL     1      -3.205  -2.573  15.604  1.00  0.00    -0.276 N 
ATOM     15  H3  UNL     1      -2.879  -3.540  15.622  1.00  0.00     0.189 HD
BRANCH  14  16
HETATM   16  C4  UNL     1      -3.246  -1.838  16.815  1.00  0.00     0.368 C 
HETATM   17  O1  UNL     1      -4.267  -1.828  17.536  1.00  0.00    -0.282 OA
ENDBRANCH  14  16
ENDBRANCH  12  14
ENDBRANCH   6  12
TORSDOF 3
ENDMDL
MODEL 2
REMARK VINA RESULT: -5.631408804      0.996      1.907
REMARK  3 active torsions:
REMARK  status: ('A' for Active; 'I' for Inactive)
REMARK    1  A    between atoms: C3_6  and  N2_7 
REMARK    2  A    between atoms: N2_7  and  N3_9 
REMARK    3  A    between atoms: N3_9  and  C4_11 
ROOT
HETATM    1  N1  UNL     1      -1.247  -3.392  10.842  1.00  0.00    -0.385 N 
ATOM      2  H11 UNL     1      -1.157  -3.842   9.932  1.00  0.00     0.157 HD
ATOM      3  H12 UNL     1      -0.419  -3.001  11.294  1.00  0.00     0.157 HD
HETATM    4  C1  UNL     1      -2.402  -3.316  11.417  1.00  0.00     0.103 A 
HETATM    5  C2  UNL     1      -2.522  -2.714  12.634  1.00  0.00     0.097 A 
HETATM    6  C3  UNL     1      -3.740  -2.622  13.268  1.00  0.00     0.124 A 
HETATM    7  N4  UNL     1      -4.812  -3.143  12.652  1.00  0.00    -0.337 N 
ATOM      8  H4  UNL     1      -5.731  -3.092  13.093  1.00  0.00     0.168 HD
HETATM    9  C5  UNL     1      -4.672  -3.738  11.441  1.00  0.00     0.183 A 
HETATM   10  N5  UNL     1      -3.481  -3.825  10.828  1.00  0.00    -0.339 N 
ATOM     11  H5  UNL     1      -3.404  -4.277   9.917  1.00  0.00     0.168 HD
ENDROOT
BRANCH   6  12
HETATM   12  N2  UNL     1      -3.806  -1.998  14.539  1.00  0.00    -0.283 N 
ATOM     13  H2  UNL     1      -4.349  -1.138  14.628  1.00  0.00     0.188 HD
BRANCH  12  14
HETATM   14  N3  UNL     1      -3.171  -2.494  15.666  1.00  0.00    -0.276 N 
ATOM     15  H3  UNL     1      -2.637  -3.360  15.594  1.00  0.00     0.189 HD
BRANCH  14  16
HETATM   16  C4  UNL     1      -3.243  -1.832  16.918  1.00  0.00     0.368 C 
HETATM   17  O1  UNL     1      -4.288  -1.847  17.602  1.00  0.00    -0.282 OA
ENDBRANCH  14  16
ENDBRANCH  12  14
ENDBRANCH   6  12
TORSDOF 3
ENDMDL
MODEL 3
REMARK VINA RESULT: -5.614520791      1.298      1.298
REMARK  3 active torsions:
REMARK  status: ('A' for Active; 'I' for Inactive)
REMARK    1  A    between atoms: C3_6  and  N2_7 
REMARK    2  A    between atoms: N2_7  and  N3_9 
REMARK    3  A    between atoms: N3_9  and  C4_11 
ROOT
HETATM    1  N1  UNL     1      -5.334  -4.361  10.753  1.00  0.00    -0.385 N 
ATOM      2  H11 UNL     1      -5.239  -4.838   9.857  1.00  0.00     0.157 HD
ATOM      3  H12 UNL     1      -6.246  -4.322  11.208  1.00  0.00     0.157 HD
HETATM    4  C1  UNL     1      -4.304  -3.811  11.308  1.00  0.00     0.103 A 
HETATM    5  C2  UNL     1      -4.431  -3.173  12.506  1.00  0.00     0.097 A 
HETATM    6  C3  UNL     1      -3.350  -2.579  13.116  1.00  0.00     0.124 A 
HETATM    7  N4  UNL     1      -2.161  -2.644  12.497  1.00  0.00    -0.337 N 
ATOM      8  H4  UNL     1      -1.339  -2.215  12.921  1.00  0.00     0.168 HD
HETATM    9  C5  UNL     1      -2.056  -3.283  11.305  1.00  0.00     0.183 A 
HETATM   10  N5  UNL     1      -3.114  -3.862  10.715  1.00  0.00    -0.339 N 
ATOM     11  H5  UNL     1      -3.006  -4.336   9.819  1.00  0.00     0.168 HD
ENDROOT
BRANCH   6  12
HETATM   12  N2  UNL     1      -3.541  -1.917  14.355  1.00  0.00    -0.283 N 
ATOM     13  H2  UNL     1      -3.786  -0.926  14.342  1.00  0.00     0.188 HD
BRANCH  12  14
HETATM   14  N3  UNL     1      -3.413  -2.545  15.583  1.00  0.00    -0.276 N 
ATOM     15  H3  UNL     1      -3.779  -2.085  16.417  1.00  0.00     0.189 HD
BRANCH  14  16
HETATM   16  C4  UNL     1      -2.787  -3.811  15.714  1.00  0.00     0.368 C 
HETATM   17  O1  UNL     1      -3.454  -4.867  15.734  1.00  0.00    -0.282 OA
ENDBRANCH  14  16
ENDBRANCH  12  14
ENDBRANCH   6  12
TORSDOF 3
ENDMDL
MODEL 4
REMARK VINA RESULT: -5.558399577      3.216      4.173
REMARK  3 active torsions:
REMARK  status: ('A' for Active; 'I' for Inactive)
REMARK    1  A    between atoms: C3_6  and  N2_7 
REMARK    2  A    between atoms: N2_7  and  N3_9 
REMARK    3  A    between atoms: N3_9  and  C4_11 
ROOT
HETATM    1  N1  UNL     1      -5.271  -4.374  11.110  1.00  0.00    -0.385 N 
ATOM      2  H11 UNL     1      -6.267  -4.305  11.319  1.00  0.00     0.157 HD
ATOM      3  H12 UNL     1      -4.941  -5.096  10.468  1.00  0.00     0.157 HD
HETATM    4  C1  UNL     1      -4.435  -3.552  11.654  1.00  0.00     0.103 A 
HETATM    5  C2  UNL     1      -3.104  -3.645  11.374  1.00  0.00     0.097 A 
HETATM    6  C3  UNL     1      -2.195  -2.782  11.941  1.00  0.00     0.124 A 
HETATM    7  N4  UNL     1      -2.655  -1.842  12.780  1.00  0.00    -0.337 N 
ATOM      8  H4  UNL     1      -2.008  -1.186  13.218  1.00  0.00     0.168 HD
HETATM    9  C5  UNL     1      -3.983  -1.767  13.046  1.00  0.00     0.183 A 
HETATM   10  N5  UNL     1      -4.866  -2.611  12.490  1.00  0.00    -0.339 N 
ATOM     11  H5  UNL     1      -5.859  -2.531  12.707  1.00  0.00     0.168 HD
ENDROOT
BRANCH   6  12
HETATM   12  N2  UNL     1      -0.820  -2.932  11.626  1.00  0.00    -0.283 N 
ATOM     13  H2  UNL     1      -0.550  -3.673  10.978  1.00  0.00     0.188 HD
BRANCH  12  14
HETATM   14  N3  UNL     1       0.175  -2.123  12.151  1.00  0.00    -0.276 N 
ATOM     15  H3  UNL     1       0.155  -1.895  13.145  1.00  0.00     0.189 HD
BRANCH  14  16
HETATM   16  C4  UNL     1       1.220  -1.605  11.345  1.00  0.00     0.368 C 
HETATM   17  O1  UNL     1       1.052  -0.590  10.636  1.00  0.00    -0.282 OA
ENDBRANCH  14  16
ENDBRANCH  12  14
ENDBRANCH   6  12
TORSDOF 3
ENDMDL
MODEL 5
REMARK VINA RESULT: -5.526650821      3.517      4.677
REMARK  3 active torsions:
REMARK  status: ('A' for Active; 'I' for Inactive)
REMARK    1  A    between atoms: C3_6  and  N2_7 
REMARK    2  A    between atoms: N2_7  and  N3_9 
REMARK    3  A    between atoms: N3_9  and  C4_11 
ROOT
HETATM    1  N1  UNL     1      -5.281  -4.389  11.139  1.00  0.00    -0.385 N 
ATOM      2  H11 UNL     1      -6.278  -4.327  11.344  1.00  0.00     0.157 HD
ATOM      3  H12 UNL     1      -4.942  -5.112  10.504  1.00  0.00     0.157 HD
HETATM    4  C1  UNL     1      -4.454  -3.556  11.680  1.00  0.00     0.103 A 
HETATM    5  C2  UNL     1      -3.121  -3.638  11.406  1.00  0.00     0.097 A 
HETATM    6  C3  UNL     1      -2.222  -2.764  11.970  1.00  0.00     0.124 A 
HETATM    7  N4  UNL     1      -2.693  -1.822  12.802  1.00  0.00    -0.337 N 
ATOM      8  H4  UNL     1      -2.054  -1.157  13.237  1.00  0.00     0.168 HD
HETATM    9  C5  UNL     1      -4.023  -1.757  13.062  1.00  0.00     0.183 A 
HETATM   10  N5  UNL     1      -4.896  -2.613  12.508  1.00  0.00    -0.339 N 
ATOM     11  H5  UNL     1      -5.891  -2.540  12.721  1.00  0.00     0.168 HD
ENDROOT
BRANCH   6  12
HETATM   12  N2  UNL     1      -0.845  -2.903  11.661  1.00  0.00    -0.283 N 
ATOM     13  H2  UNL     1      -0.162  -2.708  12.394  1.00  0.00     0.188 HD
BRANCH  12  14
HETATM   14  N3  UNL     1      -0.378  -3.291  10.416  1.00  0.00    -0.276 N 
ATOM     15  H3  UNL     1      -1.026  -3.311   9.627  1.00  0.00     0.189 HD
BRANCH  14  16
HETATM   16  C4  UNL     1       0.974  -3.661  10.205  1.00  0.00     0.368 C 
HETATM   17  O1  UNL     1       1.279  -4.794   9.777  1.00  0.00    -0.282 OA
ENDBRANCH  14  16
ENDBRANCH  12  14
ENDBRANCH   6  12
TORSDOF 3
ENDMDL
