MODEL 1
REMARK VINA RESULT: -5.855958648      0.000      0.000
REMARK  4 active torsions:
REMARK  status: ('A' for Active; 'I' for Inactive)
REMARK    1  A    between atoms: C2_3  and  C3_4 
REMARK    2  A    between atoms: C3_4  and  N2_5 
REMARK    3  A    between atoms: C3_4  and  C4_9 
REMARK    4  A    between atoms: C5_14  and  N5_15 
ROOT
HETATM    1  N1  UNL     1      -2.321  -0.324  17.895  1.00  0.00    -0.197 NA
HETATM    2  C1  UNL     1      -2.411  -1.228  17.147  1.00  0.00     0.061 C 
HETATM    3  C2  UNL     1      -2.529  -2.355  16.234  1.00  0.00     0.164 C 
ENDROOT
BRANCH   3   4
HETATM    4  C3  UNL     1      -2.180  -1.962  14.810  1.00  0.00     0.265 C 
BRANCH   4   5
HETATM    5  N2  UNL     1      -1.924  -0.573  14.655  1.00  0.00    -0.067 N 
ATOM      6  H23 UNL     1      -1.410  -0.209  15.457  1.00  0.00     0.275 HD
ATOM      7  H22 UNL     1      -1.231  -0.413  13.923  1.00  0.00     0.275 HD
ATOM      8  H21 UNL     1      -2.765  -0.024  14.482  1.00  0.00     0.275 HD
ENDBRANCH   4   5
BRANCH   4   9
HETATM    9  C4  UNL     1      -3.291  -2.338  13.895  1.00  0.00     0.144 A 
HETATM   10  N3  UNL     1      -4.461  -1.702  13.706  1.00  0.00    -0.272 N 
HETATM   11  N4  UNL     1      -5.174  -2.367  12.801  1.00  0.00    -0.131 N 
ATOM     12  H3  UNL     1      -4.755  -0.848  14.181  1.00  0.00     0.189 HD
HETATM   13  C5  UNL     1      -4.431  -3.415  12.437  1.00  0.00     0.691 A 
ATOM     14  H4  UNL     1      -6.102  -2.125  12.454  1.00  0.00     0.205 HD
HETATM   15  N6  UNL     1      -3.264  -3.426  13.092  1.00  0.00    -0.176 N 
ATOM     16  H6  UNL     1      -2.512  -4.111  13.005  1.00  0.00     0.185 HD
BRANCH  13  17
HETATM   17  N5  UNL     1      -4.786  -4.308  11.565  1.00  0.00    -0.233 N 
ATOM     18  H52 UNL     1      -5.440  -4.135  10.803  1.00  0.00     0.174 HD
ATOM     19  H51 UNL     1      -4.450  -5.270  11.548  1.00  0.00     0.174 HD
ENDBRANCH  13  17
ENDBRANCH   4   9
ENDBRANCH   3   4
TORSDOF 4
ENDMDL
MODEL 2
REMARK VINA RESULT: -5.621604506      1.779      2.158
REMARK  4 active torsions:
REMARK  status: ('A' for Active; 'I' for Inactive)
REMARK    1  A    between atoms: C2_3  and  C3_4 
REMARK    2  A    between atoms: C3_4  and  N2_5 
REMARK    3  A    between atoms: C3_4  and  C4_9 
REMARK    4  A    between atoms: C5_14  and  N5_15 
ROOT
HETATM    1  N1  UNL     1      -0.400  -1.750  15.966  1.00  0.00    -0.197 NA
HETATM    2  C1  UNL     1      -1.130  -1.382  15.120  1.00  0.00     0.061 C 
HETATM    3  C2  UNL     1      -2.021  -0.919  14.067  1.00  0.00     0.164 C 
ENDROOT
BRANCH   3   4
HETATM    4  C3  UNL     1      -3.374  -1.604  14.136  1.00  0.00     0.265 C 
BRANCH   4   5
HETATM    5  N2  UNL     1      -3.532  -2.427  15.282  1.00  0.00    -0.067 N 
ATOM      6  H23 UNL     1      -2.659  -2.903  15.508  1.00  0.00     0.275 HD
ATOM      7  H22 UNL     1      -3.638  -1.859  16.123  1.00  0.00     0.275 HD
ATOM      8  H21 UNL     1      -4.298  -3.095  15.198  1.00  0.00     0.275 HD
ENDBRANCH   4   5
BRANCH   4   9
HETATM    9  C4  UNL     1      -3.577  -2.445  12.925  1.00  0.00     0.144 A 
HETATM   10  N3  UNL     1      -2.699  -2.707  11.941  1.00  0.00    -0.272 N 
HETATM   11  N4  UNL     1      -3.278  -3.502  11.045  1.00  0.00    -0.131 N 
ATOM     12  H3  UNL     1      -1.743  -2.354  11.890  1.00  0.00     0.189 HD
HETATM   13  C5  UNL     1      -4.518  -3.724  11.489  1.00  0.00     0.691 A 
ATOM     14  H4  UNL     1      -2.859  -3.869  10.190  1.00  0.00     0.205 HD
HETATM   15  N6  UNL     1      -4.735  -3.087  12.645  1.00  0.00    -0.176 N 
ATOM     16  H6  UNL     1      -5.591  -3.086  13.200  1.00  0.00     0.185 HD
BRANCH  13  17
HETATM   17  N5  UNL     1      -5.400  -4.458  10.884  1.00  0.00    -0.233 N 
ATOM     18  H52 UNL     1      -5.187  -5.093  10.115  1.00  0.00     0.174 HD
ATOM     19  H51 UNL     1      -6.394  -4.480  11.113  1.00  0.00     0.174 HD
ENDBRANCH  13  17
ENDBRANCH   4   9
ENDBRANCH   3   4
TORSDOF 4
ENDMDL
MODEL 3
REMARK VINA RESULT: -5.562157014      1.956      2.213
REMARK  4 active torsions:
REMARK  status: ('A' for Active; 'I' for Inactive)
REMARK    1  A    between atoms: C2_3  and  C3_4 
REMARK    2  A    between atoms: C3_4  and  N2_5 
REMARK    3  A    between atoms: C3_4  and  C4_9 
REMARK    4  A    between atoms: C5_14  and  N5_15 
ROOT
HETATM    1  N1  UNL     1      -3.805  -5.312  16.444  1.00  0.00    -0.197 NA
HETATM    2  C1  UNL     1      -3.077  -4.445  16.123  1.00  0.00     0.061 C 
HETATM    3  C2  UNL     1      -2.177  -3.367  15.743  1.00  0.00     0.164 C 
ENDROOT
BRANCH   3   4
HETATM    4  C3  UNL     1      -1.819  -3.430  14.268  1.00  0.00     0.265 C 
BRANCH   4   5
HETATM    5  N2  UNL     1      -0.910  -2.416  13.865  1.00  0.00    -0.067 N 
ATOM      6  H23 UNL     1      -1.411  -1.604  13.505  1.00  0.00     0.275 HD
ATOM      7  H22 UNL     1      -0.460  -1.991  14.676  1.00  0.00     0.275 HD
ATOM      8  H21 UNL     1      -0.214  -2.740  13.194  1.00  0.00     0.275 HD
ENDBRANCH   4   5
BRANCH   4   9
HETATM    9  C4  UNL     1      -3.052  -3.308  13.443  1.00  0.00     0.144 A 
HETATM   10  N3  UNL     1      -4.016  -2.374  13.527  1.00  0.00    -0.272 N 
HETATM   11  N4  UNL     1      -4.944  -2.627  12.606  1.00  0.00    -0.131 N 
ATOM     12  H3  UNL     1      -4.034  -1.598  14.189  1.00  0.00     0.189 HD
HETATM   13  C5  UNL     1      -4.538  -3.722  11.959  1.00  0.00     0.691 A 
ATOM     14  H4  UNL     1      -5.793  -2.091  12.430  1.00  0.00     0.205 HD
HETATM   15  N6  UNL     1      -3.375  -4.167  12.450  1.00  0.00    -0.176 N 
ATOM     16  H6  UNL     1      -2.845  -4.982  12.141  1.00  0.00     0.185 HD
BRANCH  13  17
HETATM   17  N5  UNL     1      -5.181  -4.286  10.984  1.00  0.00    -0.233 N 
ATOM     18  H52 UNL     1      -5.045  -4.056   9.999  1.00  0.00     0.174 HD
ATOM     19  H51 UNL     1      -5.885  -5.015  11.095  1.00  0.00     0.174 HD
ENDBRANCH  13  17
ENDBRANCH   4   9
ENDBRANCH   3   4
TORSDOF 4
ENDMDL
MODEL 4
REMARK VINA RESULT: -5.520359133      3.804      5.377
REMARK  4 active torsions:
REMARK  status: ('A' for Active; 'I' for Inactive)
REMARK    1  A    between atoms: C2_3  and  C3_4 
REMARK    2  A    between atoms: C3_4  and  N2_5 
REMARK    3  A    between atoms: C3_4  and  C4_9 
REMARK    4  A    between atoms: C5_14  and  N5_15 
ROOT
HETATM    1  N1  UNL     1       2.472  -4.365   9.701  1.00  0.00    -0.197 NA
HETATM    2  C1  UNL     1       1.307  -4.200   9.693  1.00  0.00     0.061 C 
HETATM    3  C2  UNL     1      -0.135  -4.007   9.670  1.00  0.00     0.164 C 
ENDROOT
BRANCH   3   4
HETATM    4  C3  UNL     1      -0.595  -3.084  10.784  1.00  0.00     0.265 C 
BRANCH   4   5
HETATM    5  N2  UNL     1       0.119  -3.266  11.998  1.00  0.00    -0.067 N 
ATOM      6  H23 UNL     1      -0.524  -3.373  12.783  1.00  0.00     0.275 HD
ATOM      7  H22 UNL     1       0.566  -4.182  12.020  1.00  0.00     0.275 HD
ATOM      8  H21 UNL     1       0.797  -2.528  12.184  1.00  0.00     0.275 HD
ENDBRANCH   4   5
BRANCH   4   9
HETATM    9  C4  UNL     1      -2.042  -3.300  11.056  1.00  0.00     0.144 A 
HETATM   10  N3  UNL     1      -2.885  -4.145  10.435  1.00  0.00    -0.272 N 
HETATM   11  N4  UNL     1      -4.093  -4.030  10.982  1.00  0.00    -0.131 N 
ATOM     12  H3  UNL     1      -2.638  -4.772   9.669  1.00  0.00     0.189 HD
HETATM   13  C5  UNL     1      -3.982  -3.109  11.942  1.00  0.00     0.691 A 
ATOM     14  H4  UNL     1      -4.934  -4.543  10.720  1.00  0.00     0.205 HD
HETATM   15  N6  UNL     1      -2.731  -2.639  12.014  1.00  0.00    -0.176 N 
ATOM     16  H6  UNL     1      -2.372  -1.932  12.656  1.00  0.00     0.185 HD
BRANCH  13  17
HETATM   17  N5  UNL     1      -4.953  -2.717  12.707  1.00  0.00    -0.233 N 
ATOM     18  H52 UNL     1      -5.933  -2.702  12.426  1.00  0.00     0.174 HD
ATOM     19  H51 UNL     1      -4.841  -2.383  13.664  1.00  0.00     0.174 HD
ENDBRANCH  13  17
ENDBRANCH   4   9
ENDBRANCH   3   4
TORSDOF 4
ENDMDL
MODEL 5
REMARK VINA RESULT: -5.498024514      1.379      1.459
REMARK  4 active torsions:
REMARK  status: ('A' for Active; 'I' for Inactive)
REMARK    1  A    between atoms: C2_3  and  C3_4 
REMARK    2  A    between atoms: C3_4  and  N2_5 
REMARK    3  A    between atoms: C3_4  and  C4_9 
REMARK    4  A    between atoms: C5_14  and  N5_15 
ROOT
HETATM    1  N1  UNL     1      -3.865  -1.956  17.001  1.00  0.00    -0.197 NA
HETATM    2  C1  UNL     1      -3.208  -1.708  16.056  1.00  0.00     0.061 C 
HETATM    3  C2  UNL     1      -2.395  -1.387  14.894  1.00  0.00     0.164 C 
ENDROOT
BRANCH   3   4
HETATM    4  C3  UNL     1      -2.164  -2.604  14.017  1.00  0.00     0.265 C 
BRANCH   4   5
HETATM    5  N2  UNL     1      -0.968  -2.531  13.254  1.00  0.00    -0.067 N 
ATOM      6  H23 UNL     1      -0.363  -1.787  13.601  1.00  0.00     0.275 HD
ATOM      7  H22 UNL     1      -0.370  -3.336  13.440  1.00  0.00     0.275 HD
ATOM      8  H21 UNL     1      -1.132  -2.427  12.253  1.00  0.00     0.275 HD
ENDBRANCH   4   5
BRANCH   4   9
HETATM    9  C4  UNL     1      -3.307  -2.776  13.079  1.00  0.00     0.144 A 
HETATM   10  N3  UNL     1      -4.201  -1.853  12.684  1.00  0.00    -0.272 N 
HETATM   11  N4  UNL     1      -5.061  -2.417  11.840  1.00  0.00    -0.131 N 
ATOM     12  H3  UNL     1      -4.218  -0.878  12.984  1.00  0.00     0.189 HD
HETATM   13  C5  UNL     1      -4.685  -3.693  11.721  1.00  0.00     0.691 A 
ATOM     14  H4  UNL     1      -5.849  -1.966  11.376  1.00  0.00     0.205 HD
HETATM   15  N6  UNL     1      -3.607  -3.947  12.472  1.00  0.00    -0.176 N 
ATOM     16  H6  UNL     1      -3.114  -4.836  12.566  1.00  0.00     0.185 HD
BRANCH  13  17
HETATM   17  N5  UNL     1      -5.281  -4.574  10.980  1.00  0.00    -0.233 N 
ATOM     18  H52 UNL     1      -4.797  -5.218  10.354  1.00  0.00     0.174 HD
ATOM     19  H51 UNL     1      -6.290  -4.719  10.944  1.00  0.00     0.174 HD
ENDBRANCH  13  17
ENDBRANCH   4   9
ENDBRANCH   3   4
TORSDOF 4
ENDMDL
