MODEL 1
REMARK VINA RESULT: -5.404405372      0.000      0.000
REMARK  6 active torsions:
REMARK  status: ('A' for Active; 'I' for Inactive)
REMARK    1  A    between atoms: N1_1  and  C1_4 
REMARK    2  A    between atoms: C1_4  and  N2_5 
REMARK    3  A    between atoms: N2_5  and  N3_7 
REMARK    4  A    between atoms: N3_7  and  C2_9 
REMARK    5  A    between atoms: C2_9  and  C3_10 
REMARK    6  A    between atoms: C5_16  and  O1_17 
ROOT
HETATM    1  C3  UNL     1      -2.232  -1.458  14.143  1.00  0.00     0.101 A 
HETATM    2  N4  UNL     1      -1.266  -2.010  14.914  1.00  0.00    -0.348 N 
ATOM      3  H4  UNL     1      -1.428  -2.651  15.690  1.00  0.00     0.167 HD
HETATM    4  C4  UNL     1      -0.068  -1.586  14.504  1.00  0.00     0.183 A 
HETATM    5  N5  UNL     1      -0.273  -0.764  13.471  1.00  0.00    -0.331 N 
ATOM      6  H5  UNL     1       0.460  -0.284  12.948  1.00  0.00     0.168 HD
HETATM    7  C5  UNL     1      -1.585  -0.665  13.226  1.00  0.00     0.169 A 
ENDROOT
BRANCH   1   8
HETATM    8  C2  UNL     1      -3.658  -1.673  14.272  1.00  0.00     0.141 C 
BRANCH   8   9
HETATM    9  N3  UNL     1      -4.391  -1.643  13.235  1.00  0.00    -0.309 N 
ATOM     10  H3  UNL     1      -4.515  -0.746  12.766  1.00  0.00     0.186 HD
BRANCH   9  11
HETATM   11  N2  UNL     1      -5.040  -2.758  12.693  1.00  0.00    -0.297 N 
ATOM     12  H2  UNL     1      -5.964  -3.013  13.042  1.00  0.00     0.187 HD
BRANCH  11  13
HETATM   13  C1  UNL     1      -4.443  -3.544  11.666  1.00  0.00     0.190 C 
BRANCH  13  14
HETATM   14  N1  UNL     1      -5.209  -4.363  11.030  1.00  0.00    -0.394 N 
ATOM     15  H12 UNL     1      -6.212  -4.385  11.219  1.00  0.00     0.156 HD
ATOM     16  H11 UNL     1      -4.770  -4.973  10.341  1.00  0.00     0.156 HD
ENDBRANCH  13  14
ENDBRANCH  11  13
ENDBRANCH   9  11
ENDBRANCH   8   9
ENDBRANCH   1   8
BRANCH   7  17
HETATM   17  O1  UNL     1      -2.155   0.093  12.235  1.00  0.00    -0.344 OA
ATOM     18  H1  UNL     1      -1.708   0.639  11.600  1.00  0.00     0.219 HD
ENDBRANCH   7  17
TORSDOF 6
ENDMDL
MODEL 2
REMARK VINA RESULT: -5.204186585      2.356      2.767
REMARK  6 active torsions:
REMARK  status: ('A' for Active; 'I' for Inactive)
REMARK    1  A    between atoms: N1_1  and  C1_4 
REMARK    2  A    between atoms: C1_4  and  N2_5 
REMARK    3  A    between atoms: N2_5  and  N3_7 
REMARK    4  A    between atoms: N3_7  and  C2_9 
REMARK    5  A    between atoms: C2_9  and  C3_10 
REMARK    6  A    between atoms: C5_16  and  O1_17 
ROOT
HETATM    1  C3  UNL     1      -2.929  -2.525  14.500  1.00  0.00     0.101 A 
HETATM    2  N4  UNL     1      -3.199  -2.050  15.738  1.00  0.00    -0.348 N 
ATOM      3  H4  UNL     1      -3.521  -1.106  15.949  1.00  0.00     0.167 HD
HETATM    4  C4  UNL     1      -2.981  -3.008  16.643  1.00  0.00     0.183 A 
HETATM    5  N5  UNL     1      -2.571  -4.093  15.979  1.00  0.00    -0.331 N 
ATOM      6  H5  UNL     1      -2.327  -4.986  16.406  1.00  0.00     0.168 HD
HETATM    7  C5  UNL     1      -2.529  -3.828  14.667  1.00  0.00     0.169 A 
ENDROOT
BRANCH   1   8
HETATM    8  C2  UNL     1      -3.044  -1.790  13.258  1.00  0.00     0.141 C 
BRANCH   8   9
HETATM    9  N3  UNL     1      -4.189  -1.628  12.731  1.00  0.00    -0.309 N 
ATOM     10  H3  UNL     1      -4.548  -0.677  12.659  1.00  0.00     0.186 HD
BRANCH   9  11
HETATM   11  N2  UNL     1      -4.990  -2.667  12.245  1.00  0.00    -0.297 N 
ATOM     12  H2  UNL     1      -5.963  -2.726  12.544  1.00  0.00     0.187 HD
BRANCH  11  13
HETATM   13  C1  UNL     1      -4.481  -3.643  11.341  1.00  0.00     0.190 C 
BRANCH  13  14
HETATM   14  N1  UNL     1      -5.336  -4.418  10.766  1.00  0.00    -0.394 N 
ATOM     15  H12 UNL     1      -5.800  -5.157  11.294  1.00  0.00     0.156 HD
ATOM     16  H11 UNL     1      -5.520  -4.256   9.777  1.00  0.00     0.156 HD
ENDBRANCH  13  14
ENDBRANCH  11  13
ENDBRANCH   9  11
ENDBRANCH   8   9
ENDBRANCH   1   8
BRANCH   7  17
HETATM   17  O1  UNL     1      -2.153  -4.714  13.689  1.00  0.00    -0.344 OA
ATOM     18  H1  UNL     1      -1.400  -5.292  13.695  1.00  0.00     0.219 HD
ENDBRANCH   7  17
TORSDOF 6
ENDMDL
MODEL 3
REMARK VINA RESULT: -5.196462319      1.928      2.257
REMARK  6 active torsions:
REMARK  status: ('A' for Active; 'I' for Inactive)
REMARK    1  A    between atoms: N1_1  and  C1_4 
REMARK    2  A    between atoms: C1_4  and  N2_5 
REMARK    3  A    between atoms: N2_5  and  N3_7 
REMARK    4  A    between atoms: N3_7  and  C2_9 
REMARK    5  A    between atoms: C2_9  and  C3_10 
REMARK    6  A    between atoms: C5_16  and  O1_17 
ROOT
HETATM    1  C3  UNL     1      -2.513  -1.200  14.317  1.00  0.00     0.101 A 
HETATM    2  N4  UNL     1      -1.760  -0.177  14.783  1.00  0.00    -0.348 N 
ATOM      3  H4  UNL     1      -1.419   0.604  14.224  1.00  0.00     0.167 HD
HETATM    4  C4  UNL     1      -1.531  -0.348  16.088  1.00  0.00     0.183 A 
HETATM    5  N5  UNL     1      -2.140  -1.481  16.451  1.00  0.00    -0.331 N 
ATOM      6  H5  UNL     1      -2.140  -1.872  17.393  1.00  0.00     0.168 HD
HETATM    7  C5  UNL     1      -2.748  -2.025  15.390  1.00  0.00     0.169 A 
ENDROOT
BRANCH   1   8
HETATM    8  C2  UNL     1      -2.971  -1.374  12.954  1.00  0.00     0.141 C 
BRANCH   8   9
HETATM    9  N3  UNL     1      -4.217  -1.453  12.719  1.00  0.00    -0.309 N 
ATOM     10  H3  UNL     1      -4.732  -0.583  12.587  1.00  0.00     0.186 HD
BRANCH   9  11
HETATM   11  N2  UNL     1      -4.930  -2.653  12.628  1.00  0.00    -0.297 N 
ATOM     12  H2  UNL     1      -5.831  -2.733  13.101  1.00  0.00     0.187 HD
BRANCH  11  13
HETATM   13  C1  UNL     1      -4.431  -3.766  11.892  1.00  0.00     0.190 C 
BRANCH  13  14
HETATM   14  N1  UNL     1      -5.230  -4.320  11.045  1.00  0.00    -0.394 N 
ATOM     15  H12 UNL     1      -5.480  -5.304  11.139  1.00  0.00     0.156 HD
ATOM     16  H11 UNL     1      -5.591  -3.734  10.293  1.00  0.00     0.156 HD
ENDBRANCH  13  14
ENDBRANCH  11  13
ENDBRANCH   9  11
ENDBRANCH   8   9
ENDBRANCH   1   8
BRANCH   7  17
HETATM   17  O1  UNL     1      -3.470  -3.191  15.399  1.00  0.00    -0.344 OA
ATOM     18  H1  UNL     1      -4.353  -3.319  15.725  1.00  0.00     0.219 HD
ENDBRANCH   7  17
TORSDOF 6
ENDMDL
MODEL 4
REMARK VINA RESULT: -5.184628971      1.924      2.339
REMARK  6 active torsions:
REMARK  status: ('A' for Active; 'I' for Inactive)
REMARK    1  A    between atoms: N1_1  and  C1_4 
REMARK    2  A    between atoms: C1_4  and  N2_5 
REMARK    3  A    between atoms: N2_5  and  N3_7 
REMARK    4  A    between atoms: N3_7  and  C2_9 
REMARK    5  A    between atoms: C2_9  and  C3_10 
REMARK    6  A    between atoms: C5_16  and  O1_17 
ROOT
HETATM    1  C3  UNL     1      -2.487  -1.872  14.821  1.00  0.00     0.101 A 
HETATM    2  N4  UNL     1      -1.179  -2.211  14.736  1.00  0.00    -0.348 N 
ATOM      3  H4  UNL     1      -0.625  -2.208  13.880  1.00  0.00     0.167 HD
HETATM    4  C4  UNL     1      -0.725  -2.548  15.945  1.00  0.00     0.183 A 
HETATM    5  N5  UNL     1      -1.745  -2.425  16.799  1.00  0.00    -0.331 N 
ATOM      6  H5  UNL     1      -1.700  -2.615  17.801  1.00  0.00     0.168 HD
HETATM    7  C5  UNL     1      -2.836  -2.013  16.142  1.00  0.00     0.169 A 
ENDROOT
BRANCH   1   8
HETATM    8  C2  UNL     1      -3.333  -1.447  13.725  1.00  0.00     0.141 C 
BRANCH   8   9
HETATM    9  N3  UNL     1      -4.562  -1.771  13.724  1.00  0.00    -0.309 N 
ATOM     10  H3  UNL     1      -5.130  -1.485  14.520  1.00  0.00     0.186 HD
BRANCH   9  11
HETATM   11  N2  UNL     1      -5.187  -2.494  12.702  1.00  0.00    -0.297 N 
ATOM     12  H2  UNL     1      -6.195  -2.400  12.572  1.00  0.00     0.187 HD
BRANCH  11  13
HETATM   13  C1  UNL     1      -4.453  -3.357  11.839  1.00  0.00     0.190 C 
BRANCH  13  14
HETATM   14  N1  UNL     1      -5.108  -4.296  11.246  1.00  0.00    -0.394 N 
ATOM     15  H12 UNL     1      -5.935  -4.077  10.689  1.00  0.00     0.156 HD
ATOM     16  H11 UNL     1      -4.765  -5.249  11.361  1.00  0.00     0.156 HD
ENDBRANCH  13  14
ENDBRANCH  11  13
ENDBRANCH   9  11
ENDBRANCH   8   9
ENDBRANCH   1   8
BRANCH   7  17
HETATM   17  O1  UNL     1      -4.064  -1.780  16.706  1.00  0.00    -0.344 OA
ATOM     18  H1  UNL     1      -4.576  -2.378  17.237  1.00  0.00     0.219 HD
ENDBRANCH   7  17
TORSDOF 6
ENDMDL
MODEL 5
REMARK VINA RESULT: -5.169014997      1.236      1.236
REMARK  6 active torsions:
REMARK  status: ('A' for Active; 'I' for Inactive)
REMARK    1  A    between atoms: N1_1  and  C1_4 
REMARK    2  A    between atoms: C1_4  and  N2_5 
REMARK    3  A    between atoms: N2_5  and  N3_7 
REMARK    4  A    between atoms: N3_7  and  C2_9 
REMARK    5  A    between atoms: C2_9  and  C3_10 
REMARK    6  A    between atoms: C5_16  and  O1_17 
ROOT
HETATM    1  C3  UNL     1      -2.367  -1.039  14.098  1.00  0.00     0.101 A 
HETATM    2  N4  UNL     1      -1.758  -0.127  14.891  1.00  0.00    -0.348 N 
ATOM      3  H4  UNL     1      -2.054   0.124  15.834  1.00  0.00     0.167 HD
HETATM    4  C4  UNL     1      -0.707   0.393  14.251  1.00  0.00     0.183 A 
HETATM    5  N5  UNL     1      -0.650  -0.189  13.049  1.00  0.00    -0.331 N 
ATOM      6  H5  UNL     1       0.051   0.007  12.334  1.00  0.00     0.168 HD
HETATM    7  C5  UNL     1      -1.651  -1.069  12.926  1.00  0.00     0.169 A 
ENDROOT
BRANCH   1   8
HETATM    8  C2  UNL     1      -3.540  -1.818  14.435  1.00  0.00     0.141 C 
BRANCH   8   9
HETATM    9  N3  UNL     1      -4.601  -1.679  13.750  1.00  0.00    -0.309 N 
ATOM     10  H3  UNL     1      -5.233  -0.919  14.001  1.00  0.00     0.186 HD
BRANCH   9  11
HETATM   11  N2  UNL     1      -4.961  -2.498  12.674  1.00  0.00    -0.297 N 
ATOM     12  H2  UNL     1      -5.601  -2.137  11.967  1.00  0.00     0.187 HD
BRANCH  11  13
HETATM   13  C1  UNL     1      -4.457  -3.823  12.542  1.00  0.00     0.190 C 
BRANCH  13  14
HETATM   14  N1  UNL     1      -3.807  -4.102  11.464  1.00  0.00    -0.394 N 
ATOM     15  H12 UNL     1      -2.828  -4.387  11.511  1.00  0.00     0.156 HD
ATOM     16  H11 UNL     1      -4.311  -4.026  10.582  1.00  0.00     0.156 HD
ENDBRANCH  13  14
ENDBRANCH  11  13
ENDBRANCH   9  11
ENDBRANCH   8   9
ENDBRANCH   1   8
BRANCH   7  17
HETATM   17  O1  UNL     1      -1.896  -1.847  11.823  1.00  0.00    -0.344 OA
ATOM     18  H1  UNL     1      -1.329  -2.511  11.451  1.00  0.00     0.219 HD
ENDBRANCH   7  17
TORSDOF 6
ENDMDL
