MODEL 1
REMARK VINA RESULT: -5.538527797      0.000      0.000
REMARK  6 active torsions:
REMARK  status: ('A' for Active; 'I' for Inactive)
REMARK    1  A    between atoms: N1_1  and  C1_5 
REMARK    2  A    between atoms: C1_5  and  O1_6 
REMARK    3  A    between atoms: C1_5  and  C2_8 
REMARK    4  A    between atoms: C2_8  and  N2_9 
REMARK    5  A    between atoms: C2_8  and  C3_13 
REMARK    6  A    between atoms: C3_13  and  N3_14 
ROOT
HETATM    1  C3  UNL     1      -3.367  -2.223  13.554  1.00  0.00     0.317 C 
HETATM    2  C4  UNL     1      -2.421  -1.089  13.440  1.00  0.00     0.078 C 
HETATM    3  C5  UNL     1      -2.072  -0.721  14.876  1.00  0.00     0.022 A 
HETATM    4  C6  UNL     1      -1.130  -1.640  15.572  1.00  0.00     0.040 A 
HETATM    5  C7  UNL     1      -2.651  -1.776  15.732  1.00  0.00     0.193 A 
HETATM    6  N4  UNL     1      -3.241  -2.769  14.893  1.00  0.00    -0.034 N 
ATOM      7  H41 UNL     1      -2.728  -3.651  14.910  1.00  0.00     0.280 HD
ATOM      8  H42 UNL     1      -4.127  -3.116  15.260  1.00  0.00     0.280 HD
ENDROOT
BRANCH   1   9
HETATM    9  C2  UNL     1      -3.195  -3.351  12.597  1.00  0.00     0.303 C 
BRANCH   9  10
HETATM   10  C1  UNL     1      -4.369  -3.657  11.741  1.00  0.00     0.351 C 
BRANCH  10  11
HETATM   11  N1  UNL     1      -3.849  -4.104  10.442  1.00  0.00    -0.051 N 
ATOM     12  H13 UNL     1      -2.834  -4.028  10.368  1.00  0.00     0.277 HD
ATOM     13  H12 UNL     1      -3.913  -5.113  10.310  1.00  0.00     0.277 HD
ATOM     14  H11 UNL     1      -4.345  -3.573   9.726  1.00  0.00     0.277 HD
ENDBRANCH  10  11
BRANCH  10  15
HETATM   15  O1  UNL     1      -5.216  -4.630  12.185  1.00  0.00    -0.368 OA
ATOM     16  H1  UNL     1      -5.674  -4.275  12.937  1.00  0.00     0.212 HD
ENDBRANCH  10  15
ENDBRANCH   9  10
BRANCH   9  17
HETATM   17  N2  UNL     1      -2.595  -4.543  13.182  1.00  0.00    -0.067 N 
ATOM     18  H23 UNL     1      -1.655  -4.348  13.526  1.00  0.00     0.275 HD
ATOM     19  H22 UNL     1      -3.048  -4.785  14.063  1.00  0.00     0.275 HD
ATOM     20  H21 UNL     1      -2.592  -5.339  12.543  1.00  0.00     0.275 HD
ENDBRANCH   9  17
ENDBRANCH   1   9
BRANCH   1  21
HETATM   21  N3  UNL     1      -4.722  -1.701  13.349  1.00  0.00    -0.042 N 
ATOM     22  H33 UNL     1      -4.859  -1.286  12.427  1.00  0.00     0.277 HD
ATOM     23  H32 UNL     1      -5.427  -2.433  13.266  1.00  0.00     0.277 HD
ATOM     24  H31 UNL     1      -4.904  -1.052  14.114  1.00  0.00     0.277 HD
ENDBRANCH   1  21
TORSDOF 6
ENDMDL
MODEL 2
REMARK VINA RESULT: -5.418504246      1.667      2.216
REMARK  6 active torsions:
REMARK  status: ('A' for Active; 'I' for Inactive)
REMARK    1  A    between atoms: N1_1  and  C1_5 
REMARK    2  A    between atoms: C1_5  and  O1_6 
REMARK    3  A    between atoms: C1_5  and  C2_8 
REMARK    4  A    between atoms: C2_8  and  N2_9 
REMARK    5  A    between atoms: C2_8  and  C3_13 
REMARK    6  A    between atoms: C3_13  and  N3_14 
ROOT
HETATM    1  C3  UNL     1      -1.940  -2.659  12.827  1.00  0.00     0.317 C 
HETATM    2  C4  UNL     1      -0.966  -2.622  13.943  1.00  0.00     0.078 C 
HETATM    3  C5  UNL     1      -0.612  -1.150  14.109  1.00  0.00     0.022 A 
HETATM    4  C6  UNL     1      -1.641  -0.304  14.772  1.00  0.00     0.040 A 
HETATM    5  C7  UNL     1      -1.540  -0.395  13.243  1.00  0.00     0.193 A 
HETATM    6  N4  UNL     1      -2.457  -1.314  12.650  1.00  0.00    -0.034 N 
ATOM      7  H41 UNL     1      -3.406  -1.209  13.010  1.00  0.00     0.280 HD
ATOM      8  H42 UNL     1      -2.655  -1.095  11.673  1.00  0.00     0.280 HD
ENDROOT
BRANCH   1   9
HETATM    9  C2  UNL     1      -3.110  -3.568  12.975  1.00  0.00     0.303 C 
BRANCH   9  10
HETATM   10  C1  UNL     1      -4.336  -3.167  12.239  1.00  0.00     0.351 C 
BRANCH  10  11
HETATM   11  N1  UNL     1      -5.002  -4.403  11.807  1.00  0.00    -0.051 N 
ATOM     12  H13 UNL     1      -6.007  -4.402  11.986  1.00  0.00     0.277 HD
ATOM     13  H12 UNL     1      -5.050  -4.500  10.793  1.00  0.00     0.277 HD
ATOM     14  H11 UNL     1      -4.514  -5.176  12.261  1.00  0.00     0.277 HD
ENDBRANCH  10  11
BRANCH  10  15
HETATM   15  O1  UNL     1      -5.260  -2.443  12.935  1.00  0.00    -0.368 OA
ATOM     16  H1  UNL     1      -4.786  -1.758  13.393  1.00  0.00     0.212 HD
ENDBRANCH  10  15
ENDBRANCH   9  10
BRANCH   9  17
HETATM   17  N2  UNL     1      -3.381  -3.974  14.347  1.00  0.00    -0.067 N 
ATOM     18  H23 UNL     1      -2.603  -3.728  14.961  1.00  0.00     0.275 HD
ATOM     19  H22 UNL     1      -4.109  -3.394  14.763  1.00  0.00     0.275 HD
ATOM     20  H21 UNL     1      -3.611  -4.965  14.429  1.00  0.00     0.275 HD
ENDBRANCH   9  17
ENDBRANCH   1   9
BRANCH   1  21
HETATM   21  N3  UNL     1      -1.225  -3.086  11.620  1.00  0.00    -0.042 N 
ATOM     22  H33 UNL     1      -0.772  -3.994  11.720  1.00  0.00     0.277 HD
ATOM     23  H32 UNL     1      -1.846  -3.336  10.851  1.00  0.00     0.277 HD
ATOM     24  H31 UNL     1      -0.575  -2.336  11.384  1.00  0.00     0.277 HD
ENDBRANCH   1  21
TORSDOF 6
ENDMDL
MODEL 3
REMARK VINA RESULT: -5.409760041      1.311      1.393
REMARK  6 active torsions:
REMARK  status: ('A' for Active; 'I' for Inactive)
REMARK    1  A    between atoms: N1_1  and  C1_5 
REMARK    2  A    between atoms: C1_5  and  O1_6 
REMARK    3  A    between atoms: C1_5  and  C2_8 
REMARK    4  A    between atoms: C2_8  and  N2_9 
REMARK    5  A    between atoms: C2_8  and  C3_13 
REMARK    6  A    between atoms: C3_13  and  N3_14 
ROOT
HETATM    1  C3  UNL     1      -2.458  -2.211  13.442  1.00  0.00     0.317 C 
HETATM    2  C4  UNL     1      -1.009  -2.281  13.743  1.00  0.00     0.078 C 
HETATM    3  C5  UNL     1      -0.895  -1.910  15.216  1.00  0.00     0.022 A 
HETATM    4  C6  UNL     1      -1.307  -2.962  16.185  1.00  0.00     0.040 A 
HETATM    5  C7  UNL     1      -2.274  -1.854  15.743  1.00  0.00     0.193 A 
HETATM    6  N4  UNL     1      -3.173  -2.243  14.705  1.00  0.00    -0.034 N 
ATOM      7  H41 UNL     1      -3.611  -3.147  14.884  1.00  0.00     0.280 HD
ATOM      8  H42 UNL     1      -4.022  -1.678  14.689  1.00  0.00     0.280 HD
ENDROOT
BRANCH   1   9
HETATM    9  C2  UNL     1      -3.026  -3.287  12.583  1.00  0.00     0.303 C 
BRANCH   9  10
HETATM   10  C1  UNL     1      -4.382  -3.026  12.035  1.00  0.00     0.351 C 
BRANCH  10  11
HETATM   11  N1  UNL     1      -4.935  -4.323  11.622  1.00  0.00    -0.051 N 
ATOM     12  H13 UNL     1      -4.576  -5.106  12.170  1.00  0.00     0.277 HD
ATOM     13  H12 UNL     1      -5.919  -4.436  11.865  1.00  0.00     0.277 HD
ATOM     14  H11 UNL     1      -4.755  -4.417  10.623  1.00  0.00     0.277 HD
ENDBRANCH  10  11
BRANCH  10  15
HETATM   15  O1  UNL     1      -5.289  -2.461  12.883  1.00  0.00    -0.368 OA
ATOM     16  H1  UNL     1      -4.825  -1.798  13.381  1.00  0.00     0.212 HD
ENDBRANCH  10  15
ENDBRANCH   9  10
BRANCH   9  17
HETATM   17  N2  UNL     1      -2.887  -4.627  13.135  1.00  0.00    -0.067 N 
ATOM     18  H23 UNL     1      -3.355  -5.315  12.544  1.00  0.00     0.275 HD
ATOM     19  H22 UNL     1      -1.927  -4.960  13.049  1.00  0.00     0.275 HD
ATOM     20  H21 UNL     1      -3.212  -4.694  14.100  1.00  0.00     0.275 HD
ENDBRANCH   9  17
ENDBRANCH   1   9
BRANCH   1  21
HETATM   21  N3  UNL     1      -2.713  -0.942  12.751  1.00  0.00    -0.042 N 
ATOM     22  H33 UNL     1      -2.645  -1.016  11.736  1.00  0.00     0.277 HD
ATOM     23  H32 UNL     1      -3.689  -0.650  12.793  1.00  0.00     0.277 HD
ATOM     24  H31 UNL     1      -2.071  -0.258  13.150  1.00  0.00     0.277 HD
ENDBRANCH   1  21
TORSDOF 6
ENDMDL
MODEL 4
REMARK VINA RESULT: -5.348432555      1.674      2.403
REMARK  6 active torsions:
REMARK  status: ('A' for Active; 'I' for Inactive)
REMARK    1  A    between atoms: N1_1  and  C1_5 
REMARK    2  A    between atoms: C1_5  and  O1_6 
REMARK    3  A    between atoms: C1_5  and  C2_8 
REMARK    4  A    between atoms: C2_8  and  N2_9 
REMARK    5  A    between atoms: C2_8  and  C3_13 
REMARK    6  A    between atoms: C3_13  and  N3_14 
ROOT
HETATM    1  C3  UNL     1      -2.475  -2.237  12.824  1.00  0.00     0.317 C 
HETATM    2  C4  UNL     1      -1.349  -2.568  13.727  1.00  0.00     0.078 C 
HETATM    3  C5  UNL     1      -0.521  -1.292  13.809  1.00  0.00     0.022 A 
HETATM    4  C6  UNL     1      -1.084  -0.204  14.654  1.00  0.00     0.040 A 
HETATM    5  C7  UNL     1      -1.307  -0.238  13.135  1.00  0.00     0.193 A 
HETATM    6  N4  UNL     1      -2.563  -0.790  12.741  1.00  0.00    -0.034 N 
ATOM      7  H41 UNL     1      -3.343  -0.413  13.279  1.00  0.00     0.280 HD
ATOM      8  H42 UNL     1      -2.860  -0.468  11.820  1.00  0.00     0.280 HD
ENDROOT
BRANCH   1   9
HETATM    9  C2  UNL     1      -3.824  -2.741  13.206  1.00  0.00     0.303 C 
BRANCH   9  10
HETATM   10  C1  UNL     1      -4.367  -3.834  12.359  1.00  0.00     0.351 C 
BRANCH  10  11
HETATM   11  N1  UNL     1      -5.237  -4.650  13.217  1.00  0.00    -0.051 N 
ATOM     12  H13 UNL     1      -6.197  -4.304  13.260  1.00  0.00     0.277 HD
ATOM     13  H12 UNL     1      -5.447  -5.566  12.821  1.00  0.00     0.277 HD
ATOM     14  H11 UNL     1      -4.787  -4.701  14.131  1.00  0.00     0.277 HD
ENDBRANCH  10  11
BRANCH  10  15
HETATM   15  O1  UNL     1      -5.113  -3.460  11.279  1.00  0.00    -0.368 OA
ATOM     16  H1  UNL     1      -5.031  -2.517  11.200  1.00  0.00     0.212 HD
ENDBRANCH  10  15
ENDBRANCH   9  10
BRANCH   9  17
HETATM   17  N2  UNL     1      -4.800  -1.693  13.472  1.00  0.00    -0.067 N 
ATOM     18  H23 UNL     1      -4.752  -1.390  14.445  1.00  0.00     0.275 HD
ATOM     19  H22 UNL     1      -4.535  -0.822  13.013  1.00  0.00     0.275 HD
ATOM     20  H21 UNL     1      -5.751  -1.965  13.221  1.00  0.00     0.275 HD
ENDBRANCH   9  17
ENDBRANCH   1   9
BRANCH   1  21
HETATM   21  N3  UNL     1      -2.173  -2.800  11.504  1.00  0.00    -0.042 N 
ATOM     22  H33 UNL     1      -2.963  -3.292  11.086  1.00  0.00     0.277 HD
ATOM     23  H32 UNL     1      -2.067  -2.091  10.779  1.00  0.00     0.277 HD
ATOM     24  H31 UNL     1      -1.347  -3.386  11.618  1.00  0.00     0.277 HD
ENDBRANCH   1  21
TORSDOF 6
ENDMDL
MODEL 5
REMARK VINA RESULT: -5.253709151      1.942      2.558
REMARK  6 active torsions:
REMARK  status: ('A' for Active; 'I' for Inactive)
REMARK    1  A    between atoms: N1_1  and  C1_5 
REMARK    2  A    between atoms: C1_5  and  O1_6 
REMARK    3  A    between atoms: C1_5  and  C2_8 
REMARK    4  A    between atoms: C2_8  and  N2_9 
REMARK    5  A    between atoms: C2_8  and  C3_13 
REMARK    6  A    between atoms: C3_13  and  N3_14 
ROOT
HETATM    1  C3  UNL     1      -2.476  -2.264  15.117  1.00  0.00     0.317 C 
HETATM    2  C4  UNL     1      -1.208  -2.895  15.549  1.00  0.00     0.078 C 
HETATM    3  C5  UNL     1      -1.287  -2.940  17.070  1.00  0.00     0.022 A 
HETATM    4  C6  UNL     1      -2.183  -3.980  17.644  1.00  0.00     0.040 A 
HETATM    5  C7  UNL     1      -2.662  -2.537  17.430  1.00  0.00     0.193 A 
HETATM    6  N4  UNL     1      -3.408  -2.341  16.228  1.00  0.00    -0.034 N 
ATOM      7  H41 UNL     1      -4.124  -3.054  16.090  1.00  0.00     0.280 HD
ATOM      8  H42 UNL     1      -4.026  -1.531  16.278  1.00  0.00     0.280 HD
ENDROOT
BRANCH   1   9
HETATM    9  C2  UNL     1      -3.156  -2.848  13.928  1.00  0.00     0.303 C 
BRANCH   9  10
HETATM   10  C1  UNL     1      -4.165  -1.978  13.270  1.00  0.00     0.351 C 
BRANCH  10  11
HETATM   11  N1  UNL     1      -4.950  -2.836  12.371  1.00  0.00    -0.051 N 
ATOM     12  H13 UNL     1      -5.199  -2.377  11.494  1.00  0.00     0.277 HD
ATOM     13  H12 UNL     1      -4.406  -3.599  11.968  1.00  0.00     0.277 HD
ATOM     14  H11 UNL     1      -5.760  -3.157  12.900  1.00  0.00     0.277 HD
ENDBRANCH  10  11
BRANCH  10  15
HETATM   15  O1  UNL     1      -5.054  -1.344  14.087  1.00  0.00    -0.368 OA
ATOM     16  H1  UNL     1      -4.702  -0.478  14.258  1.00  0.00     0.212 HD
ENDBRANCH  10  15
ENDBRANCH   9  10
BRANCH   9  17
HETATM   17  N2  UNL     1      -3.624  -4.214  14.118  1.00  0.00    -0.067 N 
ATOM     18  H23 UNL     1      -4.624  -4.232  14.321  1.00  0.00     0.275 HD
ATOM     19  H22 UNL     1      -3.624  -4.726  13.237  1.00  0.00     0.275 HD
ATOM     20  H21 UNL     1      -3.098  -4.717  14.833  1.00  0.00     0.275 HD
ENDBRANCH   9  17
ENDBRANCH   1   9
BRANCH   1  21
HETATM   21  N3  UNL     1      -2.194  -0.862  14.794  1.00  0.00    -0.042 N 
ATOM     22  H33 UNL     1      -2.228  -0.664  13.794  1.00  0.00     0.277 HD
ATOM     23  H32 UNL     1      -2.939  -0.225  15.076  1.00  0.00     0.277 HD
ATOM     24  H31 UNL     1      -1.293  -0.640  15.218  1.00  0.00     0.277 HD
ENDBRANCH   1  21
TORSDOF 6
ENDMDL
