MODEL 1
REMARK VINA RESULT: -5.476162482      0.000      0.000
REMARK  3 active torsions:
REMARK  status: ('A' for Active; 'I' for Inactive)
REMARK    1  A    between atoms: N2_4  and  N3_6 
REMARK    2  A    between atoms: N3_6  and  C2_8 
REMARK    3  A    between atoms: C3_14  and  N6_15 
ROOT
HETATM    1  C2  UNL     1      -4.369  -3.311  11.737  1.00  0.00     0.189 A 
HETATM    2  N4  UNL     1      -4.978  -3.908  10.667  1.00  0.00    -0.221 N 
ATOM      3  H4  UNL     1      -5.976  -4.103  10.587  1.00  0.00     0.198 HD
HETATM    4  O1  UNL     1      -4.099  -4.183   9.786  1.00  0.00    -0.153 OA
HETATM    5  N5  UNL     1      -2.913  -3.830  10.141  1.00  0.00    -0.222 N 
ATOM      6  H5  UNL     1      -2.053  -3.946   9.605  1.00  0.00     0.198 HD
HETATM    7  C3  UNL     1      -3.036  -3.265  11.384  1.00  0.00     0.169 A 
ENDROOT
BRANCH   1   8
HETATM    8  N3  UNL     1      -4.962  -2.903  12.803  1.00  0.00    -0.267 N 
ATOM      9  H3  UNL     1      -5.725  -3.487  13.144  1.00  0.00     0.190 HD
BRANCH   8  10
HETATM   10  N2  UNL     1      -4.687  -1.773  13.537  1.00  0.00    -0.246 N 
HETATM   11  N1  UNL     1      -4.092  -1.765  14.636  1.00  0.00    -0.326 N 
HETATM   12  C1  UNL     1      -3.614  -2.974  15.277  1.00  0.00     0.169 C 
ATOM     13  H1  UNL     1      -3.937  -0.871  15.102  1.00  0.00     0.181 HD
ATOM     14  H2  UNL     1      -4.990  -0.877  13.157  1.00  0.00     0.208 HD
ENDBRANCH   8  10
ENDBRANCH   1   8
BRANCH   7  15
HETATM   15  N6  UNL     1      -2.053  -2.799  12.049  1.00  0.00    -0.381 N 
ATOM     16  H62 UNL     1      -2.144  -2.064  12.751  1.00  0.00     0.157 HD
ATOM     17  H61 UNL     1      -1.069  -3.061  11.998  1.00  0.00     0.157 HD
ENDBRANCH   7  15
TORSDOF 3
ENDMDL
MODEL 2
REMARK VINA RESULT: -5.356919700      1.057      1.872
REMARK  3 active torsions:
REMARK  status: ('A' for Active; 'I' for Inactive)
REMARK    1  A    between atoms: N2_4  and  N3_6 
REMARK    2  A    between atoms: N3_6  and  C2_8 
REMARK    3  A    between atoms: C3_14  and  N6_15 
ROOT
HETATM    1  C2  UNL     1      -3.680  -3.220  12.166  1.00  0.00     0.189 A 
HETATM    2  N4  UNL     1      -2.339  -2.958  12.113  1.00  0.00    -0.221 N 
ATOM      3  H4  UNL     1      -1.781  -2.572  12.875  1.00  0.00     0.198 HD
HETATM    4  O1  UNL     1      -1.897  -3.272  10.960  1.00  0.00    -0.153 OA
HETATM    5  N5  UNL     1      -2.815  -3.737  10.186  1.00  0.00    -0.222 N 
ATOM      6  H5  UNL     1      -2.702  -4.052   9.222  1.00  0.00     0.198 HD
HETATM    7  C3  UNL     1      -3.975  -3.723  10.916  1.00  0.00     0.169 A 
ENDROOT
BRANCH   1   8
HETATM    8  N3  UNL     1      -4.442  -3.021  13.183  1.00  0.00    -0.267 N 
ATOM      9  H3  UNL     1      -5.243  -3.645  13.275  1.00  0.00     0.190 HD
BRANCH   8  10
HETATM   10  N2  UNL     1      -4.303  -2.064  14.162  1.00  0.00    -0.246 N 
HETATM   11  N1  UNL     1      -3.892  -2.285  15.321  1.00  0.00    -0.326 N 
HETATM   12  C1  UNL     1      -3.505  -3.607  15.777  1.00  0.00     0.169 C 
ATOM     13  H1  UNL     1      -3.825  -1.505  15.974  1.00  0.00     0.181 HD
ATOM     14  H2  UNL     1      -4.554  -1.105  13.924  1.00  0.00     0.208 HD
ENDBRANCH   8  10
ENDBRANCH   1   8
BRANCH   7  15
HETATM   15  N6  UNL     1      -5.100  -4.118  10.463  1.00  0.00    -0.381 N 
ATOM     16  H62 UNL     1      -5.992  -3.923  10.917  1.00  0.00     0.157 HD
ATOM     17  H61 UNL     1      -5.291  -4.662   9.622  1.00  0.00     0.157 HD
ENDBRANCH   7  15
TORSDOF 3
ENDMDL
MODEL 3
REMARK VINA RESULT: -5.340063332      1.156      2.337
REMARK  3 active torsions:
REMARK  status: ('A' for Active; 'I' for Inactive)
REMARK    1  A    between atoms: N2_4  and  N3_6 
REMARK    2  A    between atoms: N3_6  and  C2_8 
REMARK    3  A    between atoms: C3_14  and  N6_15 
ROOT
HETATM    1  C2  UNL     1      -3.056  -3.075  11.545  1.00  0.00     0.189 A 
HETATM    2  N4  UNL     1      -2.892  -3.747  10.364  1.00  0.00    -0.221 N 
ATOM      3  H4  UNL     1      -2.002  -3.900   9.890  1.00  0.00     0.198 HD
HETATM    4  O1  UNL     1      -4.028  -4.150   9.952  1.00  0.00    -0.153 OA
HETATM    5  N5  UNL     1      -4.989  -3.821  10.743  1.00  0.00    -0.222 N 
ATOM      6  H5  UNL     1      -5.981  -4.031  10.623  1.00  0.00     0.198 HD
HETATM    7  C3  UNL     1      -4.415  -3.130  11.778  1.00  0.00     0.169 A 
ENDROOT
BRANCH   1   8
HETATM    8  N3  UNL     1      -2.115  -2.535  12.235  1.00  0.00    -0.267 N 
ATOM      9  H3  UNL     1      -1.785  -1.626  11.912  1.00  0.00     0.190 HD
BRANCH   8  10
HETATM   10  N2  UNL     1      -1.502  -3.040  13.358  1.00  0.00    -0.246 N 
HETATM   11  N1  UNL     1      -1.575  -2.534  14.499  1.00  0.00    -0.326 N 
HETATM   12  C1  UNL     1      -2.333  -1.329  14.774  1.00  0.00     0.169 C 
ATOM     13  H1  UNL     1      -1.082  -2.987  15.267  1.00  0.00     0.181 HD
ATOM     14  H2  UNL     1      -0.947  -3.889  13.252  1.00  0.00     0.208 HD
ENDBRANCH   8  10
ENDBRANCH   1   8
BRANCH   7  15
HETATM   15  N6  UNL     1      -5.074  -2.647  12.757  1.00  0.00    -0.381 N 
ATOM     16  H62 UNL     1      -4.964  -2.959  13.721  1.00  0.00     0.157 HD
ATOM     17  H61 UNL     1      -5.781  -1.912  12.746  1.00  0.00     0.157 HD
ENDBRANCH   7  15
TORSDOF 3
ENDMDL
MODEL 4
REMARK VINA RESULT: -5.300421237      1.399      2.464
REMARK  3 active torsions:
REMARK  status: ('A' for Active; 'I' for Inactive)
REMARK    1  A    between atoms: N2_4  and  N3_6 
REMARK    2  A    between atoms: N3_6  and  C2_8 
REMARK    3  A    between atoms: C3_14  and  N6_15 
ROOT
HETATM    1  C2  UNL     1      -3.073  -3.092  11.510  1.00  0.00     0.189 A 
HETATM    2  N4  UNL     1      -2.919  -3.763  10.328  1.00  0.00    -0.221 N 
ATOM      3  H4  UNL     1      -2.033  -3.912   9.843  1.00  0.00     0.198 HD
HETATM    4  O1  UNL     1      -4.057  -4.173   9.929  1.00  0.00    -0.153 OA
HETATM    5  N5  UNL     1      -5.011  -3.847  10.730  1.00  0.00    -0.222 N 
ATOM      6  H5  UNL     1      -6.002  -4.062  10.622  1.00  0.00     0.198 HD
HETATM    7  C3  UNL     1      -4.428  -3.154  11.759  1.00  0.00     0.169 A 
ENDROOT
BRANCH   1   8
HETATM    8  N3  UNL     1      -2.126  -2.547  12.189  1.00  0.00    -0.267 N 
ATOM      9  H3  UNL     1      -1.472  -3.186  12.641  1.00  0.00     0.190 HD
BRANCH   8  10
HETATM   10  N2  UNL     1      -1.893  -1.205  12.379  1.00  0.00    -0.246 N 
HETATM   11  N1  UNL     1      -1.362  -0.710  13.396  1.00  0.00    -0.326 N 
HETATM   12  C1  UNL     1      -0.922  -1.515  14.519  1.00  0.00     0.169 C 
ATOM     13  H1  UNL     1      -1.233   0.300  13.438  1.00  0.00     0.181 HD
ATOM     14  H2  UNL     1      -2.173  -0.567  11.634  1.00  0.00     0.208 HD
ENDBRANCH   8  10
ENDBRANCH   1   8
BRANCH   7  15
HETATM   15  N6  UNL     1      -5.078  -2.673  12.745  1.00  0.00    -0.381 N 
ATOM     16  H62 UNL     1      -4.718  -2.644  13.698  1.00  0.00     0.157 HD
ATOM     17  H61 UNL     1      -6.011  -2.260  12.751  1.00  0.00     0.157 HD
ENDBRANCH   7  15
TORSDOF 3
ENDMDL
MODEL 5
REMARK VINA RESULT: -5.228890590      2.071      4.191
REMARK  3 active torsions:
REMARK  status: ('A' for Active; 'I' for Inactive)
REMARK    1  A    between atoms: N2_4  and  N3_6 
REMARK    2  A    between atoms: N3_6  and  C2_8 
REMARK    3  A    between atoms: C3_14  and  N6_15 
ROOT
HETATM    1  C2  UNL     1      -3.171  -2.649  12.008  1.00  0.00     0.189 A 
HETATM    2  N4  UNL     1      -3.292  -1.798  13.072  1.00  0.00    -0.221 N 
ATOM      3  H4  UNL     1      -2.524  -1.297  13.520  1.00  0.00     0.198 HD
HETATM    4  O1  UNL     1      -4.517  -1.731  13.416  1.00  0.00    -0.153 OA
HETATM    5  N5  UNL     1      -5.279  -2.465  12.682  1.00  0.00    -0.222 N 
ATOM      6  H5  UNL     1      -6.290  -2.574  12.767  1.00  0.00     0.198 HD
HETATM    7  C3  UNL     1      -4.461  -3.072  11.766  1.00  0.00     0.169 A 
ENDROOT
BRANCH   1   8
HETATM    8  N3  UNL     1      -2.071  -2.946  11.409  1.00  0.00    -0.267 N 
ATOM      9  H3  UNL     1      -1.220  -2.860  11.964  1.00  0.00     0.190 HD
BRANCH   8  10
HETATM   10  N2  UNL     1      -1.910  -3.366  10.110  1.00  0.00    -0.246 N 
HETATM   11  N1  UNL     1      -0.808  -3.503   9.537  1.00  0.00    -0.326 N 
HETATM   12  C1  UNL     1       0.456  -3.228  10.193  1.00  0.00     0.169 C 
ATOM     13  H1  UNL     1      -0.796  -3.821   8.568  1.00  0.00     0.181 HD
ATOM     14  H2  UNL     1      -2.751  -3.582   9.575  1.00  0.00     0.208 HD
ENDBRANCH   8  10
ENDBRANCH   1   8
BRANCH   7  15
HETATM   15  N6  UNL     1      -4.878  -3.879  10.870  1.00  0.00    -0.381 N 
ATOM     16  H62 UNL     1      -4.360  -4.095  10.019  1.00  0.00     0.157 HD
ATOM     17  H61 UNL     1      -5.746  -4.413  10.851  1.00  0.00     0.157 HD
ENDBRANCH   7  15
TORSDOF 3
ENDMDL
