MODEL 1
REMARK VINA RESULT: -5.996893037      0.000      0.000
REMARK  1 active torsions:
REMARK  status: ('A' for Active; 'I' for Inactive)
REMARK    1  A    between atoms: C1_4  and  C2_5 
ROOT
HETATM    1  C2  UNL     1      -3.117  -2.258  13.618  1.00  0.00     0.024 A 
HETATM    2  C3  UNL     1      -1.749  -2.410  13.562  1.00  0.00     0.046 A 
HETATM    3  C4  UNL     1      -1.112  -2.793  12.395  1.00  0.00     0.088 A 
HETATM    4  N2  UNL     1       0.294  -2.959  12.309  1.00  0.00    -0.099 NA
HETATM    5  C5  UNL     1      -1.843  -3.031  11.250  1.00  0.00     0.142 A 
HETATM    6  N3  UNL     1      -1.200  -3.428  10.031  1.00  0.00    -0.081 NA
HETATM    7  N4  UNL     1      -3.175  -2.875  11.324  1.00  0.00    -0.329 N 
ATOM      8  H4  UNL     1      -3.730  -3.047  10.485  1.00  0.00     0.168 HD
HETATM    9  C6  UNL     1      -3.820  -2.504  12.451  1.00  0.00     0.111 A 
HETATM   10  N5  UNL     1      -5.103  -2.359  12.507  1.00  0.00    -0.385 N 
ATOM     11  H51 UNL     1      -5.620  -2.541  11.647  1.00  0.00     0.157 HD
ATOM     12  H52 UNL     1      -5.589  -2.079  13.358  1.00  0.00     0.157 HD
ENDROOT
BRANCH   1  13
HETATM   13  C1  UNL     1      -3.777  -1.855  14.851  1.00  0.00     0.095 C 
HETATM   14  N1  UNL     1      -4.121  -2.679  15.773  1.00  0.00    -0.407 N 
ATOM     15  H12 UNL     1      -3.913  -3.665  15.617  1.00  0.00     0.155 HD
ATOM     16  H11 UNL     1      -4.583  -2.396  16.638  1.00  0.00     0.155 HD
ENDBRANCH   1  13
TORSDOF 1
ENDMDL
MODEL 2
REMARK VINA RESULT: -5.677176443      1.188      1.190
REMARK  1 active torsions:
REMARK  status: ('A' for Active; 'I' for Inactive)
REMARK    1  A    between atoms: C1_4  and  C2_5 
ROOT
HETATM    1  C2  UNL     1      -2.491  -1.778  13.916  1.00  0.00     0.024 A 
HETATM    2  C3  UNL     1      -1.202  -2.066  13.524  1.00  0.00     0.046 A 
HETATM    3  C4  UNL     1      -0.931  -2.644  12.297  1.00  0.00     0.088 A 
HETATM    4  N2  UNL     1       0.385  -2.951  11.868  1.00  0.00    -0.099 NA
HETATM    5  C5  UNL     1      -1.961  -2.947  11.429  1.00  0.00     0.142 A 
HETATM    6  N3  UNL     1      -1.700  -3.546  10.152  1.00  0.00    -0.081 NA
HETATM    7  N4  UNL     1      -3.210  -2.659  11.829  1.00  0.00    -0.329 N 
ATOM      8  H4  UNL     1      -3.982  -2.876  11.198  1.00  0.00     0.168 HD
HETATM    9  C6  UNL     1      -3.499  -2.095  13.021  1.00  0.00     0.111 A 
HETATM   10  N5  UNL     1      -4.707  -1.824  13.392  1.00  0.00    -0.385 N 
ATOM     11  H51 UNL     1      -5.449  -2.058  12.732  1.00  0.00     0.157 HD
ATOM     12  H52 UNL     1      -4.925  -1.399  14.293  1.00  0.00     0.157 HD
ENDROOT
BRANCH   1  13
HETATM   13  C1  UNL     1      -2.763  -1.170  15.209  1.00  0.00     0.095 C 
HETATM   14  N1  UNL     1      -1.977  -0.330  15.778  1.00  0.00    -0.407 N 
ATOM     15  H12 UNL     1      -1.119  -0.087  15.283  1.00  0.00     0.155 HD
ATOM     16  H11 UNL     1      -2.168   0.096  16.685  1.00  0.00     0.155 HD
ENDBRANCH   1  13
TORSDOF 1
ENDMDL
MODEL 3
REMARK VINA RESULT: -5.642366630      1.396      3.781
REMARK  1 active torsions:
REMARK  status: ('A' for Active; 'I' for Inactive)
REMARK    1  A    between atoms: C1_4  and  C2_5 
ROOT
HETATM    1  C2  UNL     1      -2.900  -3.175  11.486  1.00  0.00     0.024 A 
HETATM    2  C3  UNL     1      -2.091  -2.530  12.395  1.00  0.00     0.046 A 
HETATM    3  C4  UNL     1      -2.584  -2.070  13.603  1.00  0.00     0.088 A 
HETATM    4  N2  UNL     1      -1.775  -1.402  14.556  1.00  0.00    -0.099 NA
HETATM    5  C5  UNL     1      -3.914  -2.250  13.925  1.00  0.00     0.142 A 
HETATM    6  N3  UNL     1      -4.443  -1.781  15.172  1.00  0.00    -0.081 NA
HETATM    7  N4  UNL     1      -4.686  -2.882  13.026  1.00  0.00    -0.329 N 
ATOM      8  H4  UNL     1      -5.671  -3.025  13.250  1.00  0.00     0.168 HD
HETATM    9  C6  UNL     1      -4.228  -3.340  11.841  1.00  0.00     0.111 A 
HETATM   10  N5  UNL     1      -4.985  -3.945  10.986  1.00  0.00    -0.385 N 
ATOM     11  H51 UNL     1      -5.962  -4.067  11.249  1.00  0.00     0.157 HD
ATOM     12  H52 UNL     1      -4.638  -4.291  10.091  1.00  0.00     0.157 HD
ENDROOT
BRANCH   1  13
HETATM   13  C1  UNL     1      -2.370  -3.655  10.219  1.00  0.00     0.095 C 
HETATM   14  N1  UNL     1      -1.178  -3.410   9.810  1.00  0.00    -0.407 N 
ATOM     15  H12 UNL     1      -0.584  -2.846  10.419  1.00  0.00     0.155 HD
ATOM     16  H11 UNL     1      -0.807  -3.746   8.922  1.00  0.00     0.155 HD
ENDBRANCH   1  13
TORSDOF 1
ENDMDL
MODEL 4
REMARK VINA RESULT: -5.634277953      2.060      4.094
REMARK  1 active torsions:
REMARK  status: ('A' for Active; 'I' for Inactive)
REMARK    1  A    between atoms: C1_4  and  C2_5 
ROOT
HETATM    1  C2  UNL     1      -1.175  -1.142  13.921  1.00  0.00     0.024 A 
HETATM    2  C3  UNL     1      -2.273  -0.989  14.740  1.00  0.00     0.046 A 
HETATM    3  C4  UNL     1      -3.173  -2.019  14.943  1.00  0.00     0.088 A 
HETATM    4  N2  UNL     1      -4.311  -1.889  15.778  1.00  0.00    -0.099 NA
HETATM    5  C5  UNL     1      -2.986  -3.238  14.322  1.00  0.00     0.142 A 
HETATM    6  N3  UNL     1      -3.908  -4.318  14.521  1.00  0.00    -0.081 NA
HETATM    7  N4  UNL     1      -1.910  -3.368  13.530  1.00  0.00    -0.329 N 
ATOM      8  H4  UNL     1      -1.757  -4.264  13.065  1.00  0.00     0.168 HD
HETATM    9  C6  UNL     1      -1.018  -2.377  13.316  1.00  0.00     0.111 A 
HETATM   10  N5  UNL     1       0.013  -2.518  12.549  1.00  0.00    -0.385 N 
ATOM     11  H51 UNL     1       0.128  -3.428  12.103  1.00  0.00     0.157 HD
ATOM     12  H52 UNL     1       0.686  -1.770  12.387  1.00  0.00     0.157 HD
ENDROOT
BRANCH   1  13
HETATM   13  C1  UNL     1      -0.235  -0.051  13.715  1.00  0.00     0.095 C 
HETATM   14  N1  UNL     1      -0.591   1.172  13.561  1.00  0.00    -0.407 N 
ATOM     15  H12 UNL     1      -1.591   1.373  13.587  1.00  0.00     0.155 HD
ATOM     16  H11 UNL     1       0.068   1.937  13.417  1.00  0.00     0.155 HD
ENDBRANCH   1  13
TORSDOF 1
ENDMDL
MODEL 5
REMARK VINA RESULT: -5.485462905      1.375      2.814
REMARK  1 active torsions:
REMARK  status: ('A' for Active; 'I' for Inactive)
REMARK    1  A    between atoms: C1_4  and  C2_5 
ROOT
HETATM    1  C2  UNL     1      -2.812  -2.058  13.247  1.00  0.00     0.024 A 
HETATM    2  C3  UNL     1      -2.017  -2.469  12.199  1.00  0.00     0.046 A 
HETATM    3  C4  UNL     1      -0.674  -2.747  12.376  1.00  0.00     0.088 A 
HETATM    4  N2  UNL     1       0.168  -3.169  11.316  1.00  0.00    -0.099 NA
HETATM    5  C5  UNL     1      -0.096  -2.618  13.623  1.00  0.00     0.142 A 
HETATM    6  N3  UNL     1       1.295  -2.902  13.827  1.00  0.00    -0.081 NA
HETATM    7  N4  UNL     1      -0.887  -2.219  14.632  1.00  0.00    -0.329 N 
ATOM      8  H4  UNL     1      -0.475  -2.120  15.560  1.00  0.00     0.168 HD
HETATM    9  C6  UNL     1      -2.200  -1.941  14.483  1.00  0.00     0.111 A 
HETATM   10  N5  UNL     1      -2.949  -1.556  15.464  1.00  0.00    -0.385 N 
ATOM     11  H51 UNL     1      -2.498  -1.470  16.374  1.00  0.00     0.157 HD
ATOM     12  H52 UNL     1      -3.940  -1.346  15.352  1.00  0.00     0.157 HD
ENDROOT
BRANCH   1  13
HETATM   13  C1  UNL     1      -4.224  -1.769  13.048  1.00  0.00     0.095 C 
HETATM   14  N1  UNL     1      -5.001  -2.489  12.323  1.00  0.00    -0.407 N 
ATOM     15  H12 UNL     1      -4.589  -3.305  11.869  1.00  0.00     0.155 HD
ATOM     16  H11 UNL     1      -5.990  -2.286  12.184  1.00  0.00     0.155 HD
ENDBRANCH   1  13
TORSDOF 1
ENDMDL
