MODEL 1
REMARK VINA RESULT: -5.134516135      0.000      0.000
REMARK  2 active torsions:
REMARK  status: ('A' for Active; 'I' for Inactive)
REMARK    1  A    between atoms: N1_1  and  N2_4 
REMARK    2  A    between atoms: N2_4  and  C1_6 
ROOT
HETATM    1  C1  UNL     1      -4.067  -3.091  11.938  1.00  0.00     0.713 A 
HETATM    2  N3  UNL     1      -5.134  -2.406  12.417  1.00  0.00    -0.128 N 
ATOM      3  H3  UNL     1      -6.057  -2.387  11.983  1.00  0.00     0.205 HD
HETATM    4  N4  UNL     1      -4.812  -1.770  13.521  1.00  0.00    -0.261 N 
ATOM      5  H4  UNL     1      -5.436  -1.182  14.074  1.00  0.00     0.190 HD
HETATM    6  C2  UNL     1      -3.507  -2.026  13.799  1.00  0.00     0.205 A 
HETATM    7  S1  UNL     1      -2.663  -1.455  15.074  1.00  0.00    -0.039 SA
HETATM    8  N5  UNL     1      -3.061  -2.839  12.818  1.00  0.00    -0.162 N 
ATOM      9  H5  UNL     1      -2.113  -3.209  12.748  1.00  0.00     0.187 HD
ENDROOT
BRANCH   1  10
HETATM   10  N2  UNL     1      -4.023  -3.904  10.770  1.00  0.00    -0.137 N 
ATOM     11  H2  UNL     1      -3.135  -4.208  10.372  1.00  0.00     0.205 HD
BRANCH  10  12
HETATM   12  N1  UNL     1      -5.234  -4.269  10.191  1.00  0.00    -0.331 N 
ATOM     13  H12 UNL     1      -5.371  -5.218   9.845  1.00  0.00     0.177 HD
ATOM     14  H11 UNL     1      -5.963  -3.559  10.130  1.00  0.00     0.177 HD
ENDBRANCH  10  12
ENDBRANCH   1  10
TORSDOF 2
ENDMDL
MODEL 2
REMARK VINA RESULT: -4.823432604      0.636      1.022
REMARK  2 active torsions:
REMARK  status: ('A' for Active; 'I' for Inactive)
REMARK    1  A    between atoms: N1_1  and  N2_4 
REMARK    2  A    between atoms: N2_4  and  C1_6 
ROOT
HETATM    1  C1  UNL     1      -3.970  -3.011  11.918  1.00  0.00     0.713 A 
HETATM    2  N3  UNL     1      -5.116  -2.404  12.311  1.00  0.00    -0.128 N 
ATOM      3  H3  UNL     1      -5.980  -2.384  11.769  1.00  0.00     0.205 HD
HETATM    4  N4  UNL     1      -4.956  -1.843  13.488  1.00  0.00    -0.261 N 
ATOM      5  H4  UNL     1      -5.667  -1.322  14.002  1.00  0.00     0.190 HD
HETATM    6  C2  UNL     1      -3.684  -2.074  13.905  1.00  0.00     0.205 A 
HETATM    7  S1  UNL     1      -3.025  -1.572  15.312  1.00  0.00    -0.039 SA
HETATM    8  N5  UNL     1      -3.088  -2.793  12.930  1.00  0.00    -0.162 N 
ATOM      9  H5  UNL     1      -2.124  -3.123  12.950  1.00  0.00     0.187 HD
ENDROOT
BRANCH   1  10
HETATM   10  N2  UNL     1      -3.751  -3.730  10.709  1.00  0.00    -0.137 N 
ATOM     11  H2  UNL     1      -4.503  -4.258  10.265  1.00  0.00     0.205 HD
BRANCH  10  12
HETATM   12  N1  UNL     1      -2.477  -3.688  10.154  1.00  0.00    -0.331 N 
ATOM     13  H12 UNL     1      -2.352  -3.433   9.174  1.00  0.00     0.177 HD
ATOM     14  H11 UNL     1      -1.689  -3.918  10.758  1.00  0.00     0.177 HD
ENDBRANCH  10  12
ENDBRANCH   1  10
TORSDOF 2
ENDMDL
MODEL 3
REMARK VINA RESULT: -4.805448717      1.568      1.608
REMARK  2 active torsions:
REMARK  status: ('A' for Active; 'I' for Inactive)
REMARK    1  A    between atoms: N1_1  and  N2_4 
REMARK    2  A    between atoms: N2_4  and  C1_6 
ROOT
HETATM    1  C1  UNL     1      -4.012  -3.101  11.926  1.00  0.00     0.713 A 
HETATM    2  N3  UNL     1      -4.301  -1.797  12.158  1.00  0.00    -0.128 N 
ATOM      3  H3  UNL     1      -5.234  -1.389  12.100  1.00  0.00     0.205 HD
HETATM    4  N4  UNL     1      -3.210  -1.134  12.469  1.00  0.00    -0.261 N 
ATOM      5  H4  UNL     1      -3.159  -0.139  12.687  1.00  0.00     0.190 HD
HETATM    6  C2  UNL     1      -2.162  -1.999  12.451  1.00  0.00     0.205 A 
HETATM    7  S1  UNL     1      -0.605  -1.632  12.775  1.00  0.00    -0.039 SA
HETATM    8  N5  UNL     1      -2.668  -3.204  12.115  1.00  0.00    -0.162 N 
ATOM      9  H5  UNL     1      -2.126  -4.063  12.018  1.00  0.00     0.187 HD
ENDROOT
BRANCH   1  10
HETATM   10  N2  UNL     1      -4.926  -4.133  11.571  1.00  0.00    -0.137 N 
ATOM     11  H2  UNL     1      -5.317  -4.756  12.277  1.00  0.00     0.205 HD
BRANCH  10  12
HETATM   12  N1  UNL     1      -5.267  -4.261  10.230  1.00  0.00    -0.331 N 
ATOM     13  H12 UNL     1      -6.190  -3.976   9.905  1.00  0.00     0.177 HD
ATOM     14  H11 UNL     1      -4.566  -4.646   9.597  1.00  0.00     0.177 HD
ENDBRANCH  10  12
ENDBRANCH   1  10
TORSDOF 2
ENDMDL
MODEL 4
REMARK VINA RESULT: -4.641122881      1.610      1.932
REMARK  2 active torsions:
REMARK  status: ('A' for Active; 'I' for Inactive)
REMARK    1  A    between atoms: N1_1  and  N2_4 
REMARK    2  A    between atoms: N2_4  and  C1_6 
ROOT
HETATM    1  C1  UNL     1      -4.021  -2.140  12.886  1.00  0.00     0.713 A 
HETATM    2  N3  UNL     1      -3.976  -2.047  14.237  1.00  0.00    -0.128 N 
ATOM      3  H3  UNL     1      -4.703  -2.382  14.869  1.00  0.00     0.205 HD
HETATM    4  N4  UNL     1      -2.862  -1.463  14.618  1.00  0.00    -0.261 N 
ATOM      5  H4  UNL     1      -2.588  -1.272  15.582  1.00  0.00     0.190 HD
HETATM    6  C2  UNL     1      -2.137  -1.156  13.511  1.00  0.00     0.205 A 
HETATM    7  S1  UNL     1      -0.679  -0.423  13.486  1.00  0.00    -0.039 SA
HETATM    8  N5  UNL     1      -2.861  -1.578  12.452  1.00  0.00    -0.162 N 
ATOM      9  H5  UNL     1      -2.580  -1.489  11.476  1.00  0.00     0.187 HD
ENDROOT
BRANCH   1  10
HETATM   10  N2  UNL     1      -5.060  -2.716  12.100  1.00  0.00    -0.137 N 
ATOM     11  H2  UNL     1      -5.972  -2.268  12.022  1.00  0.00     0.205 HD
BRANCH  10  12
HETATM   12  N1  UNL     1      -4.786  -3.910  11.443  1.00  0.00    -0.331 N 
ATOM     13  H12 UNL     1      -5.357  -4.202  10.650  1.00  0.00     0.177 HD
ATOM     14  H11 UNL     1      -4.004  -4.469  11.782  1.00  0.00     0.177 HD
ENDBRANCH  10  12
ENDBRANCH   1  10
TORSDOF 2
ENDMDL
MODEL 5
REMARK VINA RESULT: -4.634281234      1.076      1.336
REMARK  2 active torsions:
REMARK  status: ('A' for Active; 'I' for Inactive)
REMARK    1  A    between atoms: N1_1  and  N2_4 
REMARK    2  A    between atoms: N2_4  and  C1_6 
ROOT
HETATM    1  C1  UNL     1      -4.118  -3.092  12.637  1.00  0.00     0.713 A 
HETATM    2  N3  UNL     1      -3.342  -2.176  12.008  1.00  0.00    -0.128 N 
ATOM      3  H3  UNL     1      -3.250  -2.088  10.996  1.00  0.00     0.205 HD
HETATM    4  N4  UNL     1      -2.725  -1.418  12.886  1.00  0.00    -0.261 N 
ATOM      5  H4  UNL     1      -2.082  -0.657  12.669  1.00  0.00     0.190 HD
HETATM    6  C2  UNL     1      -3.087  -1.822  14.132  1.00  0.00     0.205 A 
HETATM    7  S1  UNL     1      -2.577  -1.175  15.541  1.00  0.00    -0.039 SA
HETATM    8  N5  UNL     1      -3.944  -2.851  13.965  1.00  0.00    -0.162 N 
ATOM      9  H5  UNL     1      -4.393  -3.370  14.719  1.00  0.00     0.187 HD
ENDROOT
BRANCH   1  10
HETATM   10  N2  UNL     1      -4.943  -4.081  12.029  1.00  0.00    -0.137 N 
ATOM     11  H2  UNL     1      -5.438  -4.773  12.591  1.00  0.00     0.205 HD
BRANCH  10  12
HETATM   12  N1  UNL     1      -5.050  -4.069  10.643  1.00  0.00    -0.331 N 
ATOM     13  H12 UNL     1      -4.257  -4.345  10.064  1.00  0.00     0.177 HD
ATOM     14  H11 UNL     1      -5.940  -3.779  10.239  1.00  0.00     0.177 HD
ENDBRANCH  10  12
ENDBRANCH   1  10
TORSDOF 2
ENDMDL
