MODEL 1
REMARK VINA RESULT: -8.611092707      0.000      0.000
REMARK  20 active torsions:
REMARK  status: ('A' for Active; 'I' for Inactive)
REMARK    1  A    between atoms: C2_2  and  C3_3 
REMARK    2  A    between atoms: C3_3  and  C4_4 
REMARK       I    between atoms: N1_7  and  C7_8 
REMARK    3  A    between atoms: C7_8  and  C8_10 
REMARK    4  A    between atoms: C8_10  and  N2_11 
REMARK    5  A    between atoms: C8_10  and  C24_36 
REMARK    6  A    between atoms: N2_11  and  C9_13 
REMARK    7  A    between atoms: C9_13  and  C10_14 
REMARK    8  A    between atoms: C9_13  and  C12_16 
REMARK    9  A    between atoms: C12_16  and  O2_17 
REMARK   10  A    between atoms: N3_19  and  C13_21 
REMARK   11  A    between atoms: C13_21  and  O3_22 
REMARK   12  A    between atoms: C13_21  and  N4_24 
REMARK   13  A    between atoms: N4_24  and  C14_26 
REMARK   14  A    between atoms: C24_36  and  C25_37 
REMARK   15  A    between atoms: C24_36  and  N5_45 
REMARK   16  A    between atoms: C25_37  and  C26_38 
REMARK   17  A    between atoms: C26_38  and  C27_39 
REMARK   18  A    between atoms: C27_39  and  C28_40 
REMARK   19  A    between atoms: C28_40  and  C29_41 
REMARK   20  A    between atoms: C29_41  and  C30_42 
ROOT
HETATM    1  C8  UNL     1     -18.819   1.011  -2.637  1.00  0.00     0.120 C 
ENDROOT
BRANCH   1   2
HETATM    2  C7  UNL     1     -17.792   1.653  -1.795  1.00  0.00     0.272 C 
HETATM    3  N1  UNL     1     -18.032   2.862  -1.030  1.00  0.00    -0.346 N 
HETATM    4  C6  UNL     1     -19.291   3.534  -0.925  1.00  0.00     0.126 C 
HETATM    5  C35 UNL     1     -17.062   3.622  -0.247  1.00  0.00     0.130 C 
HETATM    6  C5  UNL     1     -18.840   4.987  -1.173  1.00  0.00     0.026 C 
HETATM    7  C4  UNL     1     -17.522   5.048  -0.411  1.00  0.00     0.005 C 
HETATM    8  O1  UNL     1     -16.609   1.248  -1.630  1.00  0.00    -0.266 OA
BRANCH   7   9
HETATM    9  C3  UNL     1     -16.493   5.814  -1.185  1.00  0.00     0.006 C 
BRANCH   9  10
HETATM   10  C2  UNL     1     -17.073   6.475  -2.418  1.00  0.00    -0.004 C 
HETATM   11  C1  UNL     1     -15.997   7.206  -3.162  1.00  0.00     0.005 C 
ENDBRANCH   9  10
ENDBRANCH   7   9
ENDBRANCH   1   2
BRANCH   1  12
HETATM   12  N2  UNL     1     -19.306  -0.231  -2.251  1.00  0.00    -0.372 N 
ATOM     13  H2  UNL     1     -20.003  -0.599  -2.899  1.00  0.00     0.160 HD
BRANCH  12  14
HETATM   14  C9  UNL     1     -19.065  -1.078  -1.197  1.00  0.00     0.156 C 
BRANCH  14  15
HETATM   15  C10 UNL     1     -17.821  -1.729  -0.835  1.00  0.00     0.029 C 
HETATM   16  C11 UNL     1     -18.185  -3.111  -0.224  1.00  0.00     0.007 C 
ENDBRANCH  14  15
BRANCH  14  17
HETATM   17  C12 UNL     1     -19.612  -0.319   0.006  1.00  0.00     0.141 C 
HETATM   18  N3  UNL     1     -19.255   0.210   1.181  1.00  0.00    -0.305 N 
ATOM     19  H3  UNL     1     -20.120   0.405   1.685  1.00  0.00     0.171 HD
BRANCH  17  20
HETATM   20  O2  UNL     1     -20.955  -0.098  -0.205  1.00  0.00    -0.348 OA
ATOM     21  H2  UNL     1     -21.399  -0.166   0.632  1.00  0.00     0.219 HD
ENDBRANCH  17  20
BRANCH  18  22
HETATM   22  C13 UNL     1     -18.212   0.611   2.018  1.00  0.00     0.219 C 
BRANCH  22  23
HETATM   23  O3  UNL     1     -17.008   0.647   1.420  1.00  0.00    -0.332 OA
ATOM     24  H3  UNL     1     -16.277   0.728   2.022  1.00  0.00     0.220 HD
ENDBRANCH  22  23
BRANCH  22  25
HETATM   25  N4  UNL     1     -18.095   0.987   3.350  1.00  0.00    -0.347 N 
ATOM     26  H4  UNL     1     -18.060   1.985   3.558  1.00  0.00     0.163 HD
BRANCH  25  27
HETATM   27  C14 UNL     1     -18.019   0.055   4.474  1.00  0.00     0.034 C 
HETATM   28  C15 UNL     1     -18.712   0.589   5.676  1.00  0.00     0.035 C 
HETATM   29  C16 UNL     1     -18.584  -0.404   6.829  1.00  0.00    -0.012 C 
HETATM   30  C17 UNL     1     -17.139  -0.531   7.182  1.00  0.00     0.009 C 
HETATM   31  C21 UNL     1     -19.141  -1.730   6.405  1.00  0.00     0.009 C 
HETATM   32  C18 UNL     1     -16.409  -1.051   5.951  1.00  0.00    -0.012 C 
HETATM   33  C19 UNL     1     -16.932  -2.416   5.589  1.00  0.00     0.009 C 
HETATM   34  C23 UNL     1     -16.532  -0.056   4.847  1.00  0.00     0.035 C 
HETATM   35  C20 UNL     1     -18.394  -2.271   5.225  1.00  0.00    -0.012 C 
HETATM   36  C22 UNL     1     -18.436  -1.313   4.046  1.00  0.00     0.035 C 
ENDBRANCH  25  27
ENDBRANCH  22  25
ENDBRANCH  18  22
ENDBRANCH  14  17
ENDBRANCH  12  14
ENDBRANCH   1  12
BRANCH   1  37
HETATM   37  C24 UNL     1     -18.663   1.263  -4.122  1.00  0.00     0.039 C 
BRANCH  37  38
HETATM   38  C25 UNL     1     -17.702   0.270  -4.762  1.00  0.00     0.059 C 
BRANCH  38  39
HETATM   39  C26 UNL     1     -18.437  -0.651  -5.720  1.00  0.00     0.006 C 
BRANCH  39  40
HETATM   40  C27 UNL     1     -18.858   0.074  -6.972  1.00  0.00     0.001 C 
BRANCH  40  41
HETATM   41  C28 UNL     1     -17.587   0.614  -7.612  1.00  0.00     0.010 C 
BRANCH  41  42
HETATM   42  C29 UNL     1     -17.823   1.983  -8.212  1.00  0.00     0.113 C 
BRANCH  42  43
HETATM   43  C30 UNL     1     -16.549   2.736  -8.210  1.00  0.00     0.172 C 
HETATM   44  O4  UNL     1     -16.449   3.679  -9.058  1.00  0.00    -0.648 OA
HETATM   45  O5  UNL     1     -15.500   2.450  -7.341  1.00  0.00    -0.648 OA
ENDBRANCH  42  43
ENDBRANCH  41  42
ENDBRANCH  40  41
ENDBRANCH  39  40
ENDBRANCH  38  39
ENDBRANCH  37  38
BRANCH  37  46
HETATM   46  N5  UNL     1     -18.517   2.554  -4.589  1.00  0.00    -0.382 N 
HETATM   47  C31 UNL     1     -19.544   3.510  -4.649  1.00  0.00     0.123 C 
HETATM   48  C32 UNL     1     -18.925   4.642  -5.489  1.00  0.00     0.021 C 
HETATM   49  C33 UNL     1     -17.455   4.456  -5.309  1.00  0.00     0.021 C 
HETATM   50  C34 UNL     1     -17.301   3.281  -4.380  1.00  0.00     0.123 C 
ENDBRANCH  37  46
ENDBRANCH   1  37
TORSDOF 20
ENDMDL
MODEL 2
REMARK VINA RESULT: -8.541278031      2.342      9.771
REMARK  20 active torsions:
REMARK  status: ('A' for Active; 'I' for Inactive)
REMARK    1  A    between atoms: C2_2  and  C3_3 
REMARK    2  A    between atoms: C3_3  and  C4_4 
REMARK       I    between atoms: N1_7  and  C7_8 
REMARK    3  A    between atoms: C7_8  and  C8_10 
REMARK    4  A    between atoms: C8_10  and  N2_11 
REMARK    5  A    between atoms: C8_10  and  C24_36 
REMARK    6  A    between atoms: N2_11  and  C9_13 
REMARK    7  A    between atoms: C9_13  and  C10_14 
REMARK    8  A    between atoms: C9_13  and  C12_16 
REMARK    9  A    between atoms: C12_16  and  O2_17 
REMARK   10  A    between atoms: N3_19  and  C13_21 
REMARK   11  A    between atoms: C13_21  and  O3_22 
REMARK   12  A    between atoms: C13_21  and  N4_24 
REMARK   13  A    between atoms: N4_24  and  C14_26 
REMARK   14  A    between atoms: C24_36  and  C25_37 
REMARK   15  A    between atoms: C24_36  and  N5_45 
REMARK   16  A    between atoms: C25_37  and  C26_38 
REMARK   17  A    between atoms: C26_38  and  C27_39 
REMARK   18  A    between atoms: C27_39  and  C28_40 
REMARK   19  A    between atoms: C28_40  and  C29_41 
REMARK   20  A    between atoms: C29_41  and  C30_42 
ROOT
HETATM    1  C8  UNL     1     -17.141   1.216  -1.409  1.00  0.00     0.120 C 
ENDROOT
BRANCH   1   2
HETATM    2  C7  UNL     1     -16.486  -0.015  -0.931  1.00  0.00     0.272 C 
HETATM    3  N1  UNL     1     -17.162  -1.296  -0.850  1.00  0.00    -0.346 N 
HETATM    4  C6  UNL     1     -18.500  -1.551  -1.288  1.00  0.00     0.126 C 
HETATM    5  C35 UNL     1     -16.634  -2.544  -0.306  1.00  0.00     0.130 C 
HETATM    6  C5  UNL     1     -19.038  -2.328  -0.070  1.00  0.00     0.026 C 
HETATM    7  C4  UNL     1     -17.847  -3.199   0.306  1.00  0.00     0.005 C 
HETATM    8  O1  UNL     1     -15.289  -0.118  -0.548  1.00  0.00    -0.266 OA
BRANCH   7   9
HETATM    9  C3  UNL     1     -17.677  -3.261   1.792  1.00  0.00     0.006 C 
BRANCH   9  10
HETATM   10  C2  UNL     1     -18.467  -4.394   2.416  1.00  0.00    -0.004 C 
HETATM   11  C1  UNL     1     -18.421  -5.600   1.529  1.00  0.00     0.005 C 
ENDBRANCH   9  10
ENDBRANCH   7   9
ENDBRANCH   1   2
BRANCH   1  12
HETATM   12  N2  UNL     1     -16.718   1.764  -2.613  1.00  0.00    -0.372 N 
ATOM     13  H2  UNL     1     -16.125   2.584  -2.485  1.00  0.00     0.160 HD
BRANCH  12  14
HETATM   14  C9  UNL     1     -16.916   1.455  -3.937  1.00  0.00     0.156 C 
BRANCH  14  15
HETATM   15  C10 UNL     1     -16.568   0.233  -4.635  1.00  0.00     0.029 C 
HETATM   16  C11 UNL     1     -15.648   0.628  -5.824  1.00  0.00     0.007 C 
ENDBRANCH  14  15
BRANCH  14  17
HETATM   17  C12 UNL     1     -18.389   1.770  -4.163  1.00  0.00     0.141 C 
HETATM   18  N3  UNL     1     -19.217   2.720  -4.614  1.00  0.00    -0.305 N 
ATOM     19  H3  UNL     1     -20.153   2.457  -4.305  1.00  0.00     0.171 HD
BRANCH  17  20
HETATM   20  O2  UNL     1     -19.125   0.677  -3.761  1.00  0.00    -0.348 OA
ATOM     21  H2  UNL     1     -19.785   0.508  -4.423  1.00  0.00     0.219 HD
ENDBRANCH  17  20
BRANCH  18  22
HETATM   22  C13 UNL     1     -19.355   3.913  -5.325  1.00  0.00     0.219 C 
BRANCH  22  23
HETATM   23  O3  UNL     1     -20.554   4.504  -5.181  1.00  0.00    -0.332 OA
ATOM     24  H3  UNL     1     -20.624   5.062  -4.415  1.00  0.00     0.220 HD
ENDBRANCH  22  23
BRANCH  22  25
HETATM   25  N4  UNL     1     -18.551   4.664  -6.171  1.00  0.00    -0.347 N 
ATOM     26  H4  UNL     1     -18.514   4.392  -7.154  1.00  0.00     0.163 HD
BRANCH  25  27
HETATM   27  C14 UNL     1     -17.755   5.818  -5.755  1.00  0.00     0.034 C 
HETATM   28  C15 UNL     1     -18.600   7.026  -5.562  1.00  0.00     0.035 C 
HETATM   29  C16 UNL     1     -17.725   8.209  -5.155  1.00  0.00    -0.012 C 
HETATM   30  C17 UNL     1     -16.788   8.510  -6.278  1.00  0.00     0.009 C 
HETATM   31  C21 UNL     1     -16.961   7.856  -3.913  1.00  0.00     0.009 C 
HETATM   32  C18 UNL     1     -15.932   7.271  -6.507  1.00  0.00    -0.012 C 
HETATM   33  C19 UNL     1     -15.118   6.980  -5.275  1.00  0.00     0.009 C 
HETATM   34  C23 UNL     1     -16.807   6.137  -6.923  1.00  0.00     0.035 C 
HETATM   35  C20 UNL     1     -16.079   6.668  -4.147  1.00  0.00    -0.012 C 
HETATM   36  C22 UNL     1     -16.877   5.458  -4.603  1.00  0.00     0.035 C 
ENDBRANCH  25  27
ENDBRANCH  22  25
ENDBRANCH  18  22
ENDBRANCH  14  17
ENDBRANCH  12  14
ENDBRANCH   1  12
BRANCH   1  37
HETATM   37  C24 UNL     1     -17.545   2.181  -0.313  1.00  0.00     0.039 C 
BRANCH  37  38
HETATM   38  C25 UNL     1     -18.537   1.548   0.654  1.00  0.00     0.059 C 
BRANCH  38  39
HETATM   39  C26 UNL     1     -17.856   1.177   1.959  1.00  0.00     0.006 C 
BRANCH  39  40
HETATM   40  C27 UNL     1     -18.697   0.226   2.773  1.00  0.00     0.001 C 
BRANCH  40  41
HETATM   41  C28 UNL     1     -17.842  -0.210   3.954  1.00  0.00     0.010 C 
BRANCH  41  42
HETATM   42  C29 UNL     1     -18.554  -1.261   4.778  1.00  0.00     0.113 C 
BRANCH  42  43
HETATM   43  C30 UNL     1     -18.875  -0.696   6.109  1.00  0.00     0.172 C 
HETATM   44  O4  UNL     1     -19.285  -1.518   6.988  1.00  0.00    -0.648 OA
HETATM   45  O5  UNL     1     -18.744   0.658   6.408  1.00  0.00    -0.648 OA
ENDBRANCH  42  43
ENDBRANCH  41  42
ENDBRANCH  40  41
ENDBRANCH  39  40
ENDBRANCH  38  39
ENDBRANCH  37  38
BRANCH  37  46
HETATM   46  N5  UNL     1     -17.837   3.493  -0.625  1.00  0.00    -0.382 N 
HETATM   47  C31 UNL     1     -19.130   4.012  -0.797  1.00  0.00     0.123 C 
HETATM   48  C32 UNL     1     -18.877   5.407  -1.398  1.00  0.00     0.021 C 
HETATM   49  C33 UNL     1     -17.490   5.738  -0.956  1.00  0.00     0.021 C 
HETATM   50  C34 UNL     1     -17.034   4.569  -0.123  1.00  0.00     0.123 C 
ENDBRANCH  37  46
ENDBRANCH   1  37
TORSDOF 20
ENDMDL
MODEL 3
REMARK VINA RESULT: -8.514227850      3.285      7.144
REMARK  20 active torsions:
REMARK  status: ('A' for Active; 'I' for Inactive)
REMARK    1  A    between atoms: C2_2  and  C3_3 
REMARK    2  A    between atoms: C3_3  and  C4_4 
REMARK       I    between atoms: N1_7  and  C7_8 
REMARK    3  A    between atoms: C7_8  and  C8_10 
REMARK    4  A    between atoms: C8_10  and  N2_11 
REMARK    5  A    between atoms: C8_10  and  C24_36 
REMARK    6  A    between atoms: N2_11  and  C9_13 
REMARK    7  A    between atoms: C9_13  and  C10_14 
REMARK    8  A    between atoms: C9_13  and  C12_16 
REMARK    9  A    between atoms: C12_16  and  O2_17 
REMARK   10  A    between atoms: N3_19  and  C13_21 
REMARK   11  A    between atoms: C13_21  and  O3_22 
REMARK   12  A    between atoms: C13_21  and  N4_24 
REMARK   13  A    between atoms: N4_24  and  C14_26 
REMARK   14  A    between atoms: C24_36  and  C25_37 
REMARK   15  A    between atoms: C24_36  and  N5_45 
REMARK   16  A    between atoms: C25_37  and  C26_38 
REMARK   17  A    between atoms: C26_38  and  C27_39 
REMARK   18  A    between atoms: C27_39  and  C28_40 
REMARK   19  A    between atoms: C28_40  and  C29_41 
REMARK   20  A    between atoms: C29_41  and  C30_42 
ROOT
HETATM    1  C8  UNL     1     -17.350  -0.347  -0.534  1.00  0.00     0.120 C 
ENDROOT
BRANCH   1   2
HETATM    2  C7  UNL     1     -18.157  -0.467  -1.762  1.00  0.00     0.272 C 
HETATM    3  N1  UNL     1     -17.666  -0.100  -3.077  1.00  0.00    -0.346 N 
HETATM    4  C6  UNL     1     -16.335   0.341  -3.365  1.00  0.00     0.126 C 
HETATM    5  C35 UNL     1     -18.413  -0.091  -4.331  1.00  0.00     0.130 C 
HETATM    6  C5  UNL     1     -16.644   1.566  -4.248  1.00  0.00     0.026 C 
HETATM    7  C4  UNL     1     -17.817   1.072  -5.084  1.00  0.00     0.005 C 
HETATM    8  O1  UNL     1     -19.342  -0.895  -1.832  1.00  0.00    -0.266 OA
BRANCH   7   9
HETATM    9  C3  UNL     1     -18.854   2.142  -5.238  1.00  0.00     0.006 C 
BRANCH   9  10
HETATM   10  C2  UNL     1     -18.751   2.857  -6.570  1.00  0.00    -0.004 C 
HETATM   11  C1  UNL     1     -18.536   1.863  -7.670  1.00  0.00     0.005 C 
ENDBRANCH   9  10
ENDBRANCH   7   9
ENDBRANCH   1   2
BRANCH   1  12
HETATM   12  N2  UNL     1     -16.982  -1.511   0.130  1.00  0.00    -0.372 N 
ATOM     13  H2  UNL     1     -16.415  -1.328   0.958  1.00  0.00     0.160 HD
BRANCH  12  14
HETATM   14  C9  UNL     1     -17.207  -2.850  -0.073  1.00  0.00     0.156 C 
BRANCH  14  15
HETATM   15  C10 UNL     1     -16.256  -3.942  -0.004  1.00  0.00     0.029 C 
HETATM   16  C11 UNL     1     -16.915  -5.172  -0.688  1.00  0.00     0.007 C 
ENDBRANCH  14  15
BRANCH  14  17
HETATM   17  C12 UNL     1     -18.399  -3.154   0.826  1.00  0.00     0.141 C 
HETATM   18  N3  UNL     1     -18.727  -3.482   2.081  1.00  0.00    -0.305 N 
ATOM     19  H3  UNL     1     -19.699  -3.790   2.053  1.00  0.00     0.171 HD
BRANCH  17  20
HETATM   20  O2  UNL     1     -19.544  -3.041   0.070  1.00  0.00    -0.348 OA
ATOM     21  H2  UNL     1     -19.726  -3.890  -0.316  1.00  0.00     0.219 HD
ENDBRANCH  17  20
BRANCH  18  22
HETATM   22  C13 UNL     1     -18.317  -3.587   3.411  1.00  0.00     0.219 C 
BRANCH  22  23
HETATM   23  O3  UNL     1     -19.140  -2.987   4.290  1.00  0.00    -0.332 OA
ATOM     24  H3  UNL     1     -18.872  -2.110   4.537  1.00  0.00     0.220 HD
ENDBRANCH  22  23
BRANCH  22  25
HETATM   25  N4  UNL     1     -17.244  -4.161   4.078  1.00  0.00    -0.347 N 
ATOM     26  H4  UNL     1     -16.608  -3.539   4.578  1.00  0.00     0.163 HD
BRANCH  25  27
HETATM   27  C14 UNL     1     -16.960  -5.596   4.116  1.00  0.00     0.034 C 
HETATM   28  C15 UNL     1     -16.108  -5.955   5.280  1.00  0.00     0.035 C 
HETATM   29  C16 UNL     1     -15.815  -7.453   5.263  1.00  0.00    -0.012 C 
HETATM   30  C17 UNL     1     -15.025  -7.764   4.035  1.00  0.00     0.009 C 
HETATM   31  C21 UNL     1     -17.110  -8.210   5.263  1.00  0.00     0.009 C 
HETATM   32  C18 UNL     1     -15.874  -7.377   2.832  1.00  0.00    -0.012 C 
HETATM   33  C19 UNL     1     -17.133  -8.203   2.810  1.00  0.00     0.009 C 
HETATM   34  C23 UNL     1     -16.129  -5.907   2.860  1.00  0.00     0.035 C 
HETATM   35  C20 UNL     1     -17.927  -7.871   4.055  1.00  0.00    -0.012 C 
HETATM   36  C22 UNL     1     -18.221  -6.381   3.976  1.00  0.00     0.035 C 
ENDBRANCH  25  27
ENDBRANCH  22  25
ENDBRANCH  18  22
ENDBRANCH  14  17
ENDBRANCH  12  14
ENDBRANCH   1  12
BRANCH   1  37
HETATM   37  C24 UNL     1     -17.673   0.863   0.317  1.00  0.00     0.039 C 
BRANCH  37  38
HETATM   38  C25 UNL     1     -18.681   0.528   1.409  1.00  0.00     0.059 C 
BRANCH  38  39
HETATM   39  C26 UNL     1     -18.142   0.908   2.776  1.00  0.00     0.006 C 
BRANCH  39  40
HETATM   40  C27 UNL     1     -17.069  -0.046   3.234  1.00  0.00     0.001 C 
BRANCH  40  41
HETATM   41  C28 UNL     1     -16.994   0.076   4.749  1.00  0.00     0.010 C 
BRANCH  41  42
HETATM   42  C29 UNL     1     -18.353   0.392   5.334  1.00  0.00     0.113 C 
BRANCH  42  43
HETATM   43  C30 UNL     1     -18.525  -0.365   6.594  1.00  0.00     0.172 C 
HETATM   44  O4  UNL     1     -17.792  -0.009   7.571  1.00  0.00    -0.648 OA
HETATM   45  O5  UNL     1     -19.430  -1.414   6.731  1.00  0.00    -0.648 OA
ENDBRANCH  42  43
ENDBRANCH  41  42
ENDBRANCH  40  41
ENDBRANCH  39  40
ENDBRANCH  38  39
ENDBRANCH  37  38
BRANCH  37  46
HETATM   46  N5  UNL     1     -17.894   2.086  -0.283  1.00  0.00    -0.382 N 
HETATM   47  C31 UNL     1     -19.117   2.776  -0.281  1.00  0.00     0.123 C 
HETATM   48  C32 UNL     1     -18.890   3.904  -1.303  1.00  0.00     0.021 C 
HETATM   49  C33 UNL     1     -17.407   4.073  -1.324  1.00  0.00     0.021 C 
HETATM   50  C34 UNL     1     -16.868   3.086  -0.323  1.00  0.00     0.123 C 
ENDBRANCH  37  46
ENDBRANCH   1  37
TORSDOF 20
ENDMDL
MODEL 4
REMARK VINA RESULT: -8.490483603      3.228      7.073
REMARK  20 active torsions:
REMARK  status: ('A' for Active; 'I' for Inactive)
REMARK    1  A    between atoms: C2_2  and  C3_3 
REMARK    2  A    between atoms: C3_3  and  C4_4 
REMARK       I    between atoms: N1_7  and  C7_8 
REMARK    3  A    between atoms: C7_8  and  C8_10 
REMARK    4  A    between atoms: C8_10  and  N2_11 
REMARK    5  A    between atoms: C8_10  and  C24_36 
REMARK    6  A    between atoms: N2_11  and  C9_13 
REMARK    7  A    between atoms: C9_13  and  C10_14 
REMARK    8  A    between atoms: C9_13  and  C12_16 
REMARK    9  A    between atoms: C12_16  and  O2_17 
REMARK   10  A    between atoms: N3_19  and  C13_21 
REMARK   11  A    between atoms: C13_21  and  O3_22 
REMARK   12  A    between atoms: C13_21  and  N4_24 
REMARK   13  A    between atoms: N4_24  and  C14_26 
REMARK   14  A    between atoms: C24_36  and  C25_37 
REMARK   15  A    between atoms: C24_36  and  N5_45 
REMARK   16  A    between atoms: C25_37  and  C26_38 
REMARK   17  A    between atoms: C26_38  and  C27_39 
REMARK   18  A    between atoms: C27_39  and  C28_40 
REMARK   19  A    between atoms: C28_40  and  C29_41 
REMARK   20  A    between atoms: C29_41  and  C30_42 
ROOT
HETATM    1  C8  UNL     1     -17.391  -0.191  -0.416  1.00  0.00     0.120 C 
ENDROOT
BRANCH   1   2
HETATM    2  C7  UNL     1     -18.258  -0.264  -1.606  1.00  0.00     0.272 C 
HETATM    3  N1  UNL     1     -17.785  -0.006  -2.953  1.00  0.00    -0.346 N 
HETATM    4  C6  UNL     1     -16.426   0.267  -3.310  1.00  0.00     0.126 C 
HETATM    5  C35 UNL     1     -18.578   0.040  -4.177  1.00  0.00     0.130 C 
HETATM    6  C5  UNL     1     -16.632   1.486  -4.232  1.00  0.00     0.026 C 
HETATM    7  C4  UNL     1     -17.888   1.097  -5.001  1.00  0.00     0.005 C 
HETATM    8  O1  UNL     1     -19.485  -0.556  -1.613  1.00  0.00    -0.266 OA
BRANCH   7   9
HETATM    9  C3  UNL     1     -18.802   2.273  -5.161  1.00  0.00     0.006 C 
BRANCH   9  10
HETATM   10  C2  UNL     1     -18.402   3.439  -4.280  1.00  0.00    -0.004 C 
HETATM   11  C1  UNL     1     -18.920   4.720  -4.858  1.00  0.00     0.005 C 
ENDBRANCH   9  10
ENDBRANCH   7   9
ENDBRANCH   1   2
BRANCH   1  12
HETATM   12  N2  UNL     1     -16.977  -1.379   0.173  1.00  0.00    -0.372 N 
ATOM     13  H2  UNL     1     -16.348  -1.229   0.962  1.00  0.00     0.160 HD
BRANCH  12  14
HETATM   14  C9  UNL     1     -17.221  -2.710  -0.063  1.00  0.00     0.156 C 
BRANCH  14  15
HETATM   15  C10 UNL     1     -16.283  -3.815  -0.029  1.00  0.00     0.029 C 
HETATM   16  C11 UNL     1     -16.991  -5.041  -0.671  1.00  0.00     0.007 C 
ENDBRANCH  14  15
BRANCH  14  17
HETATM   17  C12 UNL     1     -18.410  -3.022   0.836  1.00  0.00     0.141 C 
HETATM   18  N3  UNL     1     -18.735  -3.361   2.089  1.00  0.00    -0.305 N 
ATOM     19  H3  UNL     1     -19.707  -3.669   2.061  1.00  0.00     0.171 HD
BRANCH  17  20
HETATM   20  O2  UNL     1     -19.557  -2.905   0.083  1.00  0.00    -0.348 OA
ATOM     21  H2  UNL     1     -19.816  -1.991   0.082  1.00  0.00     0.219 HD
ENDBRANCH  17  20
BRANCH  18  22
HETATM   22  C13 UNL     1     -18.323  -3.475   3.418  1.00  0.00     0.219 C 
BRANCH  22  23
HETATM   23  O3  UNL     1     -19.118  -2.841   4.298  1.00  0.00    -0.332 OA
ATOM     24  H3  UNL     1     -19.466  -2.015   3.984  1.00  0.00     0.220 HD
ENDBRANCH  22  23
BRANCH  22  25
HETATM   25  N4  UNL     1     -17.268  -4.086   4.082  1.00  0.00    -0.347 N 
ATOM     26  H4  UNL     1     -16.634  -3.491   4.614  1.00  0.00     0.163 HD
BRANCH  25  27
HETATM   27  C14 UNL     1     -17.002  -5.525   4.072  1.00  0.00     0.034 C 
HETATM   28  C15 UNL     1     -18.244  -6.313   4.288  1.00  0.00     0.035 C 
HETATM   29  C16 UNL     1     -17.914  -7.804   4.297  1.00  0.00    -0.012 C 
HETATM   30  C17 UNL     1     -17.018  -8.080   5.460  1.00  0.00     0.009 C 
HETATM   31  C21 UNL     1     -17.235  -8.169   3.011  1.00  0.00     0.009 C 
HETATM   32  C18 UNL     1     -15.751  -7.258   5.268  1.00  0.00    -0.012 C 
HETATM   33  C19 UNL     1     -15.046  -7.694   4.011  1.00  0.00     0.009 C 
HETATM   34  C23 UNL     1     -16.096  -5.807   5.283  1.00  0.00     0.035 C 
HETATM   35  C20 UNL     1     -15.961  -7.400   2.842  1.00  0.00    -0.012 C 
HETATM   36  C22 UNL     1     -16.203  -5.900   2.869  1.00  0.00     0.035 C 
ENDBRANCH  25  27
ENDBRANCH  22  25
ENDBRANCH  18  22
ENDBRANCH  14  17
ENDBRANCH  12  14
ENDBRANCH   1  12
BRANCH   1  37
HETATM   37  C24 UNL     1     -17.685   0.974   0.508  1.00  0.00     0.039 C 
BRANCH  37  38
HETATM   38  C25 UNL     1     -18.790   0.637   1.500  1.00  0.00     0.059 C 
BRANCH  38  39
HETATM   39  C26 UNL     1     -18.334   0.902   2.924  1.00  0.00     0.006 C 
BRANCH  39  40
HETATM   40  C27 UNL     1     -17.126   0.074   3.283  1.00  0.00     0.001 C 
BRANCH  40  41
HETATM   41  C28 UNL     1     -17.024   0.088   4.801  1.00  0.00     0.010 C 
BRANCH  41  42
HETATM   42  C29 UNL     1     -18.348   0.466   5.429  1.00  0.00     0.113 C 
BRANCH  42  43
HETATM   43  C30 UNL     1     -18.532  -0.315   6.674  1.00  0.00     0.172 C 
HETATM   44  O4  UNL     1     -17.767  -0.018   7.645  1.00  0.00    -0.648 OA
HETATM   45  O5  UNL     1     -19.482  -1.324   6.801  1.00  0.00    -0.648 OA
ENDBRANCH  42  43
ENDBRANCH  41  42
ENDBRANCH  40  41
ENDBRANCH  39  40
ENDBRANCH  38  39
ENDBRANCH  37  38
BRANCH  37  46
HETATM   46  N5  UNL     1     -17.772   2.252  -0.006  1.00  0.00    -0.382 N 
HETATM   47  C31 UNL     1     -16.758   2.901  -0.729  1.00  0.00     0.123 C 
HETATM   48  C32 UNL     1     -17.253   4.356  -0.807  1.00  0.00     0.021 C 
HETATM   49  C33 UNL     1     -18.732   4.239  -0.637  1.00  0.00     0.021 C 
HETATM   50  C34 UNL     1     -19.014   2.766  -0.503  1.00  0.00     0.123 C 
ENDBRANCH  37  46
ENDBRANCH   1  37
TORSDOF 20
ENDMDL
MODEL 5
REMARK VINA RESULT: -8.399629367      2.412     10.445
REMARK  20 active torsions:
REMARK  status: ('A' for Active; 'I' for Inactive)
REMARK    1  A    between atoms: C2_2  and  C3_3 
REMARK    2  A    between atoms: C3_3  and  C4_4 
REMARK       I    between atoms: N1_7  and  C7_8 
REMARK    3  A    between atoms: C7_8  and  C8_10 
REMARK    4  A    between atoms: C8_10  and  N2_11 
REMARK    5  A    between atoms: C8_10  and  C24_36 
REMARK    6  A    between atoms: N2_11  and  C9_13 
REMARK    7  A    between atoms: C9_13  and  C10_14 
REMARK    8  A    between atoms: C9_13  and  C12_16 
REMARK    9  A    between atoms: C12_16  and  O2_17 
REMARK   10  A    between atoms: N3_19  and  C13_21 
REMARK   11  A    between atoms: C13_21  and  O3_22 
REMARK   12  A    between atoms: C13_21  and  N4_24 
REMARK   13  A    between atoms: N4_24  and  C14_26 
REMARK   14  A    between atoms: C24_36  and  C25_37 
REMARK   15  A    between atoms: C24_36  and  N5_45 
REMARK   16  A    between atoms: C25_37  and  C26_38 
REMARK   17  A    between atoms: C26_38  and  C27_39 
REMARK   18  A    between atoms: C27_39  and  C28_40 
REMARK   19  A    between atoms: C28_40  and  C29_41 
REMARK   20  A    between atoms: C29_41  and  C30_42 
ROOT
HETATM    1  C8  UNL     1     -18.185  -0.221   0.753  1.00  0.00     0.120 C 
ENDROOT
BRANCH   1   2
HETATM    2  C7  UNL     1     -17.260  -1.242   0.224  1.00  0.00     0.272 C 
HETATM    3  N1  UNL     1     -17.686  -2.570  -0.175  1.00  0.00    -0.346 N 
HETATM    4  C6  UNL     1     -19.040  -3.032  -0.188  1.00  0.00     0.126 C 
HETATM    5  C35 UNL     1     -16.841  -3.676  -0.617  1.00  0.00     0.130 C 
HETATM    6  C5  UNL     1     -18.865  -4.397   0.509  1.00  0.00     0.026 C 
HETATM    7  C4  UNL     1     -17.554  -4.894  -0.087  1.00  0.00     0.005 C 
HETATM    8  O1  UNL     1     -16.020  -1.100   0.050  1.00  0.00    -0.266 OA
BRANCH   7   9
HETATM    9  C3  UNL     1     -16.704  -5.546   0.961  1.00  0.00     0.006 C 
BRANCH   9  10
HETATM   10  C2  UNL     1     -17.515  -6.405   1.908  1.00  0.00    -0.004 C 
HETATM   11  C1  UNL     1     -16.641  -7.453   2.527  1.00  0.00     0.005 C 
ENDBRANCH   9  10
ENDBRANCH   7   9
ENDBRANCH   1   2
BRANCH   1  12
HETATM   12  N2  UNL     1     -18.153   1.050   0.194  1.00  0.00    -0.372 N 
ATOM     13  H2  UNL     1     -17.232   1.484   0.256  1.00  0.00     0.160 HD
BRANCH  12  14
HETATM   14  C9  UNL     1     -19.078   1.856  -0.424  1.00  0.00     0.156 C 
BRANCH  14  15
HETATM   15  C10 UNL     1     -18.855   3.107  -1.122  1.00  0.00     0.029 C 
HETATM   16  C11 UNL     1     -17.554   3.731  -0.545  1.00  0.00     0.007 C 
ENDBRANCH  14  15
BRANCH  14  17
HETATM   17  C12 UNL     1     -19.843   0.897  -1.327  1.00  0.00     0.141 C 
HETATM   18  N3  UNL     1     -19.714   0.132  -2.417  1.00  0.00    -0.305 N 
ATOM     19  H3  UNL     1     -20.659  -0.124  -2.703  1.00  0.00     0.171 HD
BRANCH  17  20
HETATM   20  O2  UNL     1     -21.123   0.775  -0.833  1.00  0.00    -0.348 OA
ATOM     21  H2  UNL     1     -21.692   0.526  -1.551  1.00  0.00     0.219 HD
ENDBRANCH  17  20
BRANCH  18  22
HETATM   22  C13 UNL     1     -18.848  -0.468  -3.333  1.00  0.00     0.219 C 
BRANCH  22  23
HETATM   23  O3  UNL     1     -19.197  -1.718  -3.684  1.00  0.00    -0.332 OA
ATOM     24  H3  UNL     1     -19.643  -1.778  -4.521  1.00  0.00     0.220 HD
ENDBRANCH  22  23
BRANCH  22  25
HETATM   25  N4  UNL     1     -17.683  -0.096  -3.990  1.00  0.00    -0.347 N 
ATOM     26  H4  UNL     1     -16.799  -0.450  -3.623  1.00  0.00     0.163 HD
BRANCH  25  27
HETATM   27  C14 UNL     1     -17.632   0.768  -5.169  1.00  0.00     0.034 C 
HETATM   28  C15 UNL     1     -18.121   2.138  -4.866  1.00  0.00     0.035 C 
HETATM   29  C16 UNL     1     -18.075   2.994  -6.129  1.00  0.00    -0.012 C 
HETATM   30  C17 UNL     1     -19.017   2.408  -7.129  1.00  0.00     0.009 C 
HETATM   31  C21 UNL     1     -16.675   3.006  -6.668  1.00  0.00     0.009 C 
HETATM   32  C18 UNL     1     -18.545   0.992  -7.430  1.00  0.00    -0.012 C 
HETATM   33  C19 UNL     1     -17.169   1.033  -8.041  1.00  0.00     0.009 C 
HETATM   34  C23 UNL     1     -18.619   0.172  -6.187  1.00  0.00     0.035 C 
HETATM   35  C20 UNL     1     -16.224   1.620  -7.015  1.00  0.00    -0.012 C 
HETATM   36  C22 UNL     1     -16.287   0.693  -5.812  1.00  0.00     0.035 C 
ENDBRANCH  25  27
ENDBRANCH  22  25
ENDBRANCH  18  22
ENDBRANCH  14  17
ENDBRANCH  12  14
ENDBRANCH   1  12
BRANCH   1  37
HETATM   37  C24 UNL     1     -18.444  -0.317   2.242  1.00  0.00     0.039 C 
BRANCH  37  38
HETATM   38  C25 UNL     1     -17.967   0.930   2.976  1.00  0.00     0.059 C 
BRANCH  38  39
HETATM   39  C26 UNL     1     -19.022   1.417   3.953  1.00  0.00     0.006 C 
BRANCH  39  40
HETATM   40  C27 UNL     1     -18.472   1.530   5.352  1.00  0.00     0.001 C 
BRANCH  40  41
HETATM   41  C28 UNL     1     -18.831   0.236   6.067  1.00  0.00     0.010 C 
BRANCH  41  42
HETATM   42  C29 UNL     1     -17.665  -0.270   6.888  1.00  0.00     0.113 C 
BRANCH  42  43
HETATM   43  C30 UNL     1     -17.906  -1.685   7.249  1.00  0.00     0.172 C 
HETATM   44  O4  UNL     1     -19.120  -2.064   7.267  1.00  0.00    -0.648 OA
HETATM   45  O5  UNL     1     -16.880  -2.574   7.557  1.00  0.00    -0.648 OA
ENDBRANCH  42  43
ENDBRANCH  41  42
ENDBRANCH  40  41
ENDBRANCH  39  40
ENDBRANCH  38  39
ENDBRANCH  37  38
BRANCH  37  46
HETATM   46  N5  UNL     1     -18.171  -1.492   2.913  1.00  0.00    -0.382 N 
HETATM   47  C31 UNL     1     -16.962  -1.786   3.564  1.00  0.00     0.123 C 
HETATM   48  C32 UNL     1     -17.087  -3.287   3.884  1.00  0.00     0.021 C 
HETATM   49  C33 UNL     1     -18.561  -3.524   3.905  1.00  0.00     0.021 C 
HETATM   50  C34 UNL     1     -19.196  -2.186   3.634  1.00  0.00     0.123 C 
ENDBRANCH  37  46
ENDBRANCH   1  37
TORSDOF 20
ENDMDL
