MODEL 1
REMARK VINA RESULT: -8.505045936      0.000      0.000
REMARK  19 active torsions:
REMARK  status: ('A' for Active; 'I' for Inactive)
REMARK    1  A    between atoms: C2_2  and  C3_3 
REMARK    2  A    between atoms: C3_3  and  C4_4 
REMARK    3  A    between atoms: C4_4  and  C5_5 
REMARK    4  A    between atoms: C5_5  and  C6_6 
REMARK    5  A    between atoms: C6_6  and  C7_7 
REMARK    6  A    between atoms: C7_7  and  C8_8 
REMARK    7  A    between atoms: C8_8  and  C9_9 
REMARK    8  A    between atoms: C9_9  and  C10_10 
REMARK    9  A    between atoms: C10_10  and  N1_11 
REMARK       I    between atoms: N1_11  and  C11_12 
REMARK   10  A    between atoms: C11_12  and  C12_14 
REMARK   11  A    between atoms: C12_14  and  N2_15 
REMARK   12  A    between atoms: C12_14  and  N6_33 
REMARK   13  A    between atoms: N3_21  and  C17_22 
REMARK   14  A    between atoms: C17_22  and  C18_23 
REMARK       I    between atoms: C18_23  and  N4_25 
REMARK   15  A    between atoms: N6_33  and  C24_35 
REMARK   16  A    between atoms: C24_35  and  C25_36 
REMARK   17  A    between atoms: C24_35  and  N8_42 
REMARK   18  A    between atoms: C25_36  and  C26_37 
REMARK   19  A    between atoms: C26_37  and  N7_38 
REMARK       I    between atoms: N8_42  and  C27_43 
REMARK       I    between atoms: C27_43  and  N9_45 
ROOT
HETATM    1  C12 UNL     1     -17.035  -0.013   0.463  1.00  0.00     0.294 C 
ENDROOT
BRANCH   1   2
HETATM    2  C11 UNL     1     -16.680  -0.832  -0.760  1.00  0.00     0.329 C 
HETATM    3  N1  UNL     1     -16.595  -0.274  -1.980  1.00  0.00    -0.412 NA
HETATM    4  O1  UNL     1     -16.467  -2.071  -0.520  1.00  0.00    -0.253 OA
BRANCH   3   5
HETATM    5  C10 UNL     1     -16.504   0.306  -3.253  1.00  0.00     0.221 C 
BRANCH   5   6
HETATM    6  C9  UNL     1     -17.944   0.568  -3.737  1.00  0.00     0.033 C 
BRANCH   6   7
HETATM    7  C8  UNL     1     -18.602  -0.721  -4.052  1.00  0.00     0.002 C 
BRANCH   7   8
HETATM    8  C7  UNL     1     -18.557  -1.066  -5.504  1.00  0.00     0.000 C 
BRANCH   8   9
HETATM    9  C6  UNL     1     -18.933   0.126  -6.366  1.00  0.00     0.000 C 
BRANCH   9  10
HETATM   10  C5  UNL     1     -18.247   0.051  -7.683  1.00  0.00     0.000 C 
BRANCH  10  11
HETATM   11  C4  UNL     1     -17.434   1.222  -8.097  1.00  0.00     0.000 C 
BRANCH  11  12
HETATM   12  C3  UNL     1     -16.550   1.745  -6.981  1.00  0.00    -0.000 C 
BRANCH  12  13
HETATM   13  C2  UNL     1     -16.734   3.231  -6.786  1.00  0.00    -0.005 C 
HETATM   14  C1  UNL     1     -18.125   3.720  -7.101  1.00  0.00     0.005 C 
ENDBRANCH  12  13
ENDBRANCH  11  12
ENDBRANCH  10  11
ENDBRANCH   9  10
ENDBRANCH   8   9
ENDBRANCH   7   8
ENDBRANCH   6   7
ENDBRANCH   5   6
ENDBRANCH   3   5
ENDBRANCH   1   2
BRANCH   1  15
HETATM   15  N2  UNL     1     -16.601  -0.586   1.681  1.00  0.00    -0.345 N 
HETATM   16  C13 UNL     1     -16.979  -0.397   2.887  1.00  0.00     0.119 A 
HETATM   17  C14 UNL     1     -17.953   0.447   3.401  1.00  0.00     0.075 A 
HETATM   18  N5  UNL     1     -16.451  -1.031   3.989  1.00  0.00    -0.283 N 
HETATM   19  C15 UNL     1     -17.960   0.279   4.767  1.00  0.00     0.029 A 
HETATM   20  C16 UNL     1     -18.852   0.994   5.730  1.00  0.00     0.070 C 
HETATM   21  N3  UNL     1     -17.027  -0.634   5.088  1.00  0.00    -0.286 N 
ATOM     22  H5  UNL     1     -15.703  -1.724   3.951  1.00  0.00     0.189 HD
ATOM     23  H2  UNL     1     -15.853  -1.272   1.578  1.00  0.00     0.163 HD
BRANCH  21  24
HETATM   24  C17 UNL     1     -16.691  -1.116   6.422  1.00  0.00     0.251 C 
BRANCH  24  25
HETATM   25  C18 UNL     1     -16.527  -2.562   6.510  1.00  0.00     0.239 C 
HETATM   26  O2  UNL     1     -15.395  -2.994   6.858  1.00  0.00    -0.271 OA
HETATM   27  N4  UNL     1     -17.524  -3.529   6.238  1.00  0.00    -0.351 N 
HETATM   28  C19 UNL     1     -18.872  -3.247   5.808  1.00  0.00     0.126 C 
HETATM   29  C23 UNL     1     -17.217  -4.964   6.388  1.00  0.00     0.126 C 
HETATM   30  C20 UNL     1     -18.918  -3.595   4.320  1.00  0.00     0.020 C 
HETATM   31  C21 UNL     1     -17.765  -4.542   4.023  1.00  0.00     0.003 C 
HETATM   32  C22 UNL     1     -17.618  -5.608   5.093  1.00  0.00     0.020 C 
ENDBRANCH  24  25
ENDBRANCH  21  24
ENDBRANCH   1  15
BRANCH   1  33
HETATM   33  N6  UNL     1     -16.483   1.306   0.223  1.00  0.00    -0.338 N 
ATOM     34  H6  UNL     1     -15.475   1.448   0.154  1.00  0.00     0.164 HD
BRANCH  33  35
HETATM   35  C24 UNL     1     -17.401   2.416   0.082  1.00  0.00     0.160 C 
BRANCH  35  36
HETATM   36  C25 UNL     1     -18.871   2.167   0.318  1.00  0.00     0.119 C 
BRANCH  36  37
HETATM   37  C26 UNL     1     -19.582   1.997  -1.008  1.00  0.00     0.238 C 
BRANCH  37  38
HETATM   38  N7  UNL     1     -20.415   0.822  -1.016  1.00  0.00    -0.079 N 
ATOM     39  H73 UNL     1     -20.094   0.133  -0.336  1.00  0.00     0.274 HD
ATOM     40  H72 UNL     1     -21.336   1.015  -0.623  1.00  0.00     0.274 HD
ATOM     41  H71 UNL     1     -20.485   0.418  -1.950  1.00  0.00     0.274 HD
ENDBRANCH  37  38
ENDBRANCH  36  37
ENDBRANCH  35  36
BRANCH  35  42
HETATM   42  N8  UNL     1     -17.033   3.512  -0.247  1.00  0.00    -0.338 NA
HETATM   43  C27 UNL     1     -16.867   4.782  -0.514  1.00  0.00     0.397 C 
HETATM   44  O3  UNL     1     -16.695   5.714   0.362  1.00  0.00    -0.230 OA
HETATM   45  N9  UNL     1     -16.867   5.249  -1.893  1.00  0.00    -0.322 N 
HETATM   46  C28 UNL     1     -16.701   6.650  -2.109  1.00  0.00     0.129 C 
HETATM   47  C33 UNL     1     -17.033   4.202  -2.884  1.00  0.00     0.129 C 
HETATM   48  C29 UNL     1     -16.633   6.946  -3.593  1.00  0.00     0.020 C 
HETATM   49  C30 UNL     1     -17.897   6.590  -4.322  1.00  0.00     0.002 C 
HETATM   50  C31 UNL     1     -18.828   5.742  -3.506  1.00  0.00     0.002 C 
HETATM   51  C32 UNL     1     -18.369   4.313  -3.551  1.00  0.00     0.020 C 
ENDBRANCH  35  42
ENDBRANCH  33  35
ENDBRANCH   1  33
TORSDOF 19
ENDMDL
MODEL 2
REMARK VINA RESULT: -8.459069058      2.487      7.403
REMARK  19 active torsions:
REMARK  status: ('A' for Active; 'I' for Inactive)
REMARK    1  A    between atoms: C2_2  and  C3_3 
REMARK    2  A    between atoms: C3_3  and  C4_4 
REMARK    3  A    between atoms: C4_4  and  C5_5 
REMARK    4  A    between atoms: C5_5  and  C6_6 
REMARK    5  A    between atoms: C6_6  and  C7_7 
REMARK    6  A    between atoms: C7_7  and  C8_8 
REMARK    7  A    between atoms: C8_8  and  C9_9 
REMARK    8  A    between atoms: C9_9  and  C10_10 
REMARK    9  A    between atoms: C10_10  and  N1_11 
REMARK       I    between atoms: N1_11  and  C11_12 
REMARK   10  A    between atoms: C11_12  and  C12_14 
REMARK   11  A    between atoms: C12_14  and  N2_15 
REMARK   12  A    between atoms: C12_14  and  N6_33 
REMARK   13  A    between atoms: N3_21  and  C17_22 
REMARK   14  A    between atoms: C17_22  and  C18_23 
REMARK       I    between atoms: C18_23  and  N4_25 
REMARK   15  A    between atoms: N6_33  and  C24_35 
REMARK   16  A    between atoms: C24_35  and  C25_36 
REMARK   17  A    between atoms: C24_35  and  N8_42 
REMARK   18  A    between atoms: C25_36  and  C26_37 
REMARK   19  A    between atoms: C26_37  and  N7_38 
REMARK       I    between atoms: N8_42  and  C27_43 
REMARK       I    between atoms: C27_43  and  N9_45 
ROOT
HETATM    1  C12 UNL     1     -17.844  -0.129  -0.392  1.00  0.00     0.294 C 
ENDROOT
BRANCH   1   2
HETATM    2  C11 UNL     1     -16.671   0.337   0.446  1.00  0.00     0.329 C 
HETATM    3  N1  UNL     1     -16.578   0.038   1.753  1.00  0.00    -0.412 NA
HETATM    4  O1  UNL     1     -15.799   1.015  -0.200  1.00  0.00    -0.253 OA
BRANCH   3   5
HETATM    5  C10 UNL     1     -16.477  -0.274   3.116  1.00  0.00     0.221 C 
BRANCH   5   6
HETATM    6  C9  UNL     1     -17.913  -0.459   3.647  1.00  0.00     0.033 C 
BRANCH   6   7
HETATM    7  C8  UNL     1     -18.529   0.868   3.880  1.00  0.00     0.002 C 
BRANCH   7   8
HETATM    8  C7  UNL     1     -18.587   1.245   5.323  1.00  0.00     0.000 C 
BRANCH   8   9
HETATM    9  C6  UNL     1     -18.933   0.048   6.192  1.00  0.00     0.000 C 
BRANCH   9  10
HETATM   10  C5  UNL     1     -17.902  -0.143   7.246  1.00  0.00     0.000 C 
BRANCH  10  11
HETATM   11  C4  UNL     1     -17.492  -1.536   7.556  1.00  0.00     0.000 C 
BRANCH  11  12
HETATM   12  C3  UNL     1     -16.464  -2.074   6.580  1.00  0.00    -0.000 C 
BRANCH  12  13
HETATM   13  C2  UNL     1     -16.965  -3.317   5.883  1.00  0.00    -0.005 C 
HETATM   14  C1  UNL     1     -18.430  -3.593   6.109  1.00  0.00     0.005 C 
ENDBRANCH  12  13
ENDBRANCH  11  12
ENDBRANCH  10  11
ENDBRANCH   9  10
ENDBRANCH   8   9
ENDBRANCH   7   8
ENDBRANCH   6   7
ENDBRANCH   5   6
ENDBRANCH   3   5
ENDBRANCH   1   2
BRANCH   1  15
HETATM   15  N2  UNL     1     -18.550  -1.218   0.169  1.00  0.00    -0.345 N 
HETATM   16  C13 UNL     1     -18.277  -2.464   0.226  1.00  0.00     0.119 A 
HETATM   17  C14 UNL     1     -17.180  -3.166  -0.255  1.00  0.00     0.075 A 
HETATM   18  N5  UNL     1     -19.077  -3.424   0.805  1.00  0.00    -0.283 N 
HETATM   19  C15 UNL     1     -17.375  -4.493   0.057  1.00  0.00     0.029 A 
HETATM   20  C16 UNL     1     -16.442  -5.613  -0.273  1.00  0.00     0.070 C 
HETATM   21  N3  UNL     1     -18.546  -4.610   0.706  1.00  0.00    -0.286 N 
ATOM     22  H5  UNL     1     -19.971  -3.231   1.256  1.00  0.00     0.189 HD
ATOM     23  H2  UNL     1     -19.436  -0.962   0.606  1.00  0.00     0.163 HD
BRANCH  21  24
HETATM   24  C17 UNL     1     -19.149  -5.834   1.219  1.00  0.00     0.251 C 
BRANCH  24  25
HETATM   25  C18 UNL     1     -19.019  -6.003   2.662  1.00  0.00     0.239 C 
HETATM   26  O2  UNL     1     -19.676  -5.216   3.396  1.00  0.00    -0.271 OA
HETATM   27  N4  UNL     1     -18.219  -6.969   3.317  1.00  0.00    -0.351 N 
HETATM   28  C19 UNL     1     -17.378  -7.944   2.666  1.00  0.00     0.126 C 
HETATM   29  C23 UNL     1     -18.201  -7.033   4.791  1.00  0.00     0.126 C 
HETATM   30  C20 UNL     1     -15.944  -7.447   2.847  1.00  0.00     0.020 C 
HETATM   31  C21 UNL     1     -15.926  -6.480   4.021  1.00  0.00     0.003 C 
HETATM   32  C22 UNL     1     -16.754  -6.990   5.187  1.00  0.00     0.020 C 
ENDBRANCH  24  25
ENDBRANCH  21  24
ENDBRANCH   1  15
BRANCH   1  33
HETATM   33  N6  UNL     1     -18.669   1.046  -0.595  1.00  0.00    -0.338 N 
ATOM     34  H6  UNL     1     -19.228   1.432   0.166  1.00  0.00     0.164 HD
BRANCH  33  35
HETATM   35  C24 UNL     1     -18.678   1.655  -1.908  1.00  0.00     0.160 C 
BRANCH  35  36
HETATM   36  C25 UNL     1     -18.513   3.152  -2.007  1.00  0.00     0.119 C 
BRANCH  36  37
HETATM   37  C26 UNL     1     -17.048   3.496  -2.168  1.00  0.00     0.238 C 
BRANCH  37  38
HETATM   38  N7  UNL     1     -16.447   3.860  -0.910  1.00  0.00    -0.079 N 
ATOM     39  H73 UNL     1     -17.061   4.466  -0.365  1.00  0.00     0.274 HD
ATOM     40  H72 UNL     1     -16.405   3.064  -0.273  1.00  0.00     0.274 HD
ATOM     41  H71 UNL     1     -15.528   4.282  -1.040  1.00  0.00     0.274 HD
ENDBRANCH  37  38
ENDBRANCH  36  37
ENDBRANCH  35  36
BRANCH  35  42
HETATM   42  N8  UNL     1     -18.845   1.011  -2.909  1.00  0.00    -0.338 NA
HETATM   43  C27 UNL     1     -18.786   0.215  -3.946  1.00  0.00     0.397 C 
HETATM   44  O3  UNL     1     -18.846  -1.074  -3.903  1.00  0.00    -0.230 OA
HETATM   45  N9  UNL     1     -18.639   0.763  -5.286  1.00  0.00    -0.322 N 
HETATM   46  C28 UNL     1     -18.562  -0.166  -6.367  1.00  0.00     0.129 C 
HETATM   47  C33 UNL     1     -18.597   2.212  -5.343  1.00  0.00     0.129 C 
HETATM   48  C29 UNL     1     -18.505   0.574  -7.689  1.00  0.00     0.020 C 
HETATM   49  C30 UNL     1     -17.281   1.433  -7.829  1.00  0.00     0.002 C 
HETATM   50  C31 UNL     1     -16.544   1.624  -6.536  1.00  0.00     0.002 C 
HETATM   51  C32 UNL     1     -17.229   2.686  -5.725  1.00  0.00     0.020 C 
ENDBRANCH  35  42
ENDBRANCH  33  35
ENDBRANCH   1  33
TORSDOF 19
ENDMDL
MODEL 3
REMARK VINA RESULT: -8.457703957      2.524      6.435
REMARK  19 active torsions:
REMARK  status: ('A' for Active; 'I' for Inactive)
REMARK    1  A    between atoms: C2_2  and  C3_3 
REMARK    2  A    between atoms: C3_3  and  C4_4 
REMARK    3  A    between atoms: C4_4  and  C5_5 
REMARK    4  A    between atoms: C5_5  and  C6_6 
REMARK    5  A    between atoms: C6_6  and  C7_7 
REMARK    6  A    between atoms: C7_7  and  C8_8 
REMARK    7  A    between atoms: C8_8  and  C9_9 
REMARK    8  A    between atoms: C9_9  and  C10_10 
REMARK    9  A    between atoms: C10_10  and  N1_11 
REMARK       I    between atoms: N1_11  and  C11_12 
REMARK   10  A    between atoms: C11_12  and  C12_14 
REMARK   11  A    between atoms: C12_14  and  N2_15 
REMARK   12  A    between atoms: C12_14  and  N6_33 
REMARK   13  A    between atoms: N3_21  and  C17_22 
REMARK   14  A    between atoms: C17_22  and  C18_23 
REMARK       I    between atoms: C18_23  and  N4_25 
REMARK   15  A    between atoms: N6_33  and  C24_35 
REMARK   16  A    between atoms: C24_35  and  C25_36 
REMARK   17  A    between atoms: C24_35  and  N8_42 
REMARK   18  A    between atoms: C25_36  and  C26_37 
REMARK   19  A    between atoms: C26_37  and  N7_38 
REMARK       I    between atoms: N8_42  and  C27_43 
REMARK       I    between atoms: C27_43  and  N9_45 
ROOT
HETATM    1  C12 UNL     1     -18.192  -0.839  -1.827  1.00  0.00     0.294 C 
ENDROOT
BRANCH   1   2
HETATM    2  C11 UNL     1     -17.106  -0.013  -1.169  1.00  0.00     0.329 C 
HETATM    3  N1  UNL     1     -17.383   0.854  -0.181  1.00  0.00    -0.412 NA
HETATM    4  O1  UNL     1     -15.931  -0.226  -1.629  1.00  0.00    -0.253 OA
BRANCH   3   5
HETATM    5  C10 UNL     1     -17.670   1.758   0.852  1.00  0.00     0.221 C 
BRANCH   5   6
HETATM    6  C9  UNL     1     -18.939   1.248   1.564  1.00  0.00     0.033 C 
BRANCH   6   7
HETATM    7  C8  UNL     1     -18.569   0.656   2.869  1.00  0.00     0.002 C 
BRANCH   7   8
HETATM    8  C7  UNL     1     -18.509  -0.835   2.844  1.00  0.00     0.000 C 
BRANCH   8   9
HETATM    9  C6  UNL     1     -17.123  -1.337   3.213  1.00  0.00     0.000 C 
BRANCH   9  10
HETATM   10  C5  UNL     1     -16.276  -0.213   3.691  1.00  0.00     0.000 C 
BRANCH  10  11
HETATM   11  C4  UNL     1     -15.824  -0.251   5.104  1.00  0.00     0.000 C 
BRANCH  11  12
HETATM   12  C3  UNL     1     -16.572  -1.279   5.930  1.00  0.00    -0.000 C 
BRANCH  12  13
HETATM   13  C2  UNL     1     -17.419  -0.620   6.993  1.00  0.00    -0.005 C 
HETATM   14  C1  UNL     1     -18.799  -0.236   6.522  1.00  0.00     0.005 C 
ENDBRANCH  12  13
ENDBRANCH  11  12
ENDBRANCH  10  11
ENDBRANCH   9  10
ENDBRANCH   8   9
ENDBRANCH   7   8
ENDBRANCH   6   7
ENDBRANCH   5   6
ENDBRANCH   3   5
ENDBRANCH   1   2
BRANCH   1  15
HETATM   15  N2  UNL     1     -18.865  -1.709  -0.939  1.00  0.00    -0.345 N 
HETATM   16  C13 UNL     1     -18.490  -2.786  -0.363  1.00  0.00     0.119 A 
HETATM   17  C14 UNL     1     -17.280  -3.463  -0.424  1.00  0.00     0.075 A 
HETATM   18  N5  UNL     1     -19.269  -3.544   0.483  1.00  0.00    -0.283 N 
HETATM   19  C15 UNL     1     -17.393  -4.577   0.376  1.00  0.00     0.029 A 
HETATM   20  C16 UNL     1     -16.326  -5.598   0.606  1.00  0.00     0.070 C 
HETATM   21  N3  UNL     1     -18.624  -4.591   0.914  1.00  0.00    -0.286 N 
ATOM     22  H5  UNL     1     -20.230  -3.315   0.738  1.00  0.00     0.189 HD
ATOM     23  H2  UNL     1     -19.821  -1.428  -0.719  1.00  0.00     0.163 HD
BRANCH  21  24
HETATM   24  C17 UNL     1     -19.176  -5.589   1.822  1.00  0.00     0.251 C 
BRANCH  24  25
HETATM   25  C18 UNL     1     -18.753  -5.432   3.209  1.00  0.00     0.239 C 
HETATM   26  O2  UNL     1     -18.919  -4.300   3.738  1.00  0.00    -0.271 OA
HETATM   27  N4  UNL     1     -18.169  -6.435   4.018  1.00  0.00    -0.351 N 
HETATM   28  C19 UNL     1     -17.875  -7.785   3.601  1.00  0.00     0.126 C 
HETATM   29  C23 UNL     1     -17.807  -6.135   5.417  1.00  0.00     0.126 C 
HETATM   30  C20 UNL     1     -16.360  -7.842   3.408  1.00  0.00     0.020 C 
HETATM   31  C21 UNL     1     -15.742  -6.696   4.195  1.00  0.00     0.003 C 
HETATM   32  C22 UNL     1     -16.372  -6.548   5.568  1.00  0.00     0.020 C 
ENDBRANCH  24  25
ENDBRANCH  21  24
ENDBRANCH   1  15
BRANCH   1  33
HETATM   33  N6  UNL     1     -19.073   0.116  -2.470  1.00  0.00    -0.338 N 
ATOM     34  H6  UNL     1     -19.924   0.438  -2.008  1.00  0.00     0.164 HD
BRANCH  33  35
HETATM   35  C24 UNL     1     -18.712   0.601  -3.785  1.00  0.00     0.160 C 
BRANCH  35  36
HETATM   36  C25 UNL     1     -18.039  -0.352  -4.742  1.00  0.00     0.119 C 
BRANCH  36  37
HETATM   37  C26 UNL     1     -16.878   0.341  -5.423  1.00  0.00     0.238 C 
BRANCH  37  38
HETATM   38  N7  UNL     1     -15.945   0.877  -4.466  1.00  0.00    -0.079 N 
ATOM     39  H73 UNL     1     -15.474   1.706  -4.828  1.00  0.00     0.274 HD
ATOM     40  H72 UNL     1     -16.427   1.302  -3.673  1.00  0.00     0.274 HD
ATOM     41  H71 UNL     1     -15.275   0.172  -4.160  1.00  0.00     0.274 HD
ENDBRANCH  37  38
ENDBRANCH  36  37
ENDBRANCH  35  36
BRANCH  35  42
HETATM   42  N8  UNL     1     -18.903   1.739  -4.120  1.00  0.00    -0.338 NA
HETATM   43  C27 UNL     1     -18.887   2.947  -4.624  1.00  0.00     0.397 C 
HETATM   44  O3  UNL     1     -19.116   3.245  -5.859  1.00  0.00    -0.230 OA
HETATM   45  N9  UNL     1     -18.594   4.093  -3.776  1.00  0.00    -0.322 N 
HETATM   46  C28 UNL     1     -18.576   5.378  -4.397  1.00  0.00     0.129 C 
HETATM   47  C33 UNL     1     -18.363   3.767  -2.381  1.00  0.00     0.129 C 
HETATM   48  C29 UNL     1     -18.348   6.458  -3.358  1.00  0.00     0.020 C 
HETATM   49  C30 UNL     1     -17.018   6.341  -2.672  1.00  0.00     0.002 C 
HETATM   50  C31 UNL     1     -16.338   5.028  -2.924  1.00  0.00     0.002 C 
HETATM   51  C32 UNL     1     -16.925   3.981  -2.021  1.00  0.00     0.020 C 
ENDBRANCH  35  42
ENDBRANCH  33  35
ENDBRANCH   1  33
TORSDOF 19
ENDMDL
MODEL 4
REMARK VINA RESULT: -8.423408004      2.677      7.376
REMARK  19 active torsions:
REMARK  status: ('A' for Active; 'I' for Inactive)
REMARK    1  A    between atoms: C2_2  and  C3_3 
REMARK    2  A    between atoms: C3_3  and  C4_4 
REMARK    3  A    between atoms: C4_4  and  C5_5 
REMARK    4  A    between atoms: C5_5  and  C6_6 
REMARK    5  A    between atoms: C6_6  and  C7_7 
REMARK    6  A    between atoms: C7_7  and  C8_8 
REMARK    7  A    between atoms: C8_8  and  C9_9 
REMARK    8  A    between atoms: C9_9  and  C10_10 
REMARK    9  A    between atoms: C10_10  and  N1_11 
REMARK       I    between atoms: N1_11  and  C11_12 
REMARK   10  A    between atoms: C11_12  and  C12_14 
REMARK   11  A    between atoms: C12_14  and  N2_15 
REMARK   12  A    between atoms: C12_14  and  N6_33 
REMARK   13  A    between atoms: N3_21  and  C17_22 
REMARK   14  A    between atoms: C17_22  and  C18_23 
REMARK       I    between atoms: C18_23  and  N4_25 
REMARK   15  A    between atoms: N6_33  and  C24_35 
REMARK   16  A    between atoms: C24_35  and  C25_36 
REMARK   17  A    between atoms: C24_35  and  N8_42 
REMARK   18  A    between atoms: C25_36  and  C26_37 
REMARK   19  A    between atoms: C26_37  and  N7_38 
REMARK       I    between atoms: N8_42  and  C27_43 
REMARK       I    between atoms: C27_43  and  N9_45 
ROOT
HETATM    1  C12 UNL     1     -18.917   0.144  -1.262  1.00  0.00     0.294 C 
ENDROOT
BRANCH   1   2
HETATM    2  C11 UNL     1     -18.985   1.282  -0.265  1.00  0.00     0.329 C 
HETATM    3  N1  UNL     1     -18.302   1.246   0.891  1.00  0.00    -0.412 NA
HETATM    4  O1  UNL     1     -19.728   2.258  -0.630  1.00  0.00    -0.253 OA
BRANCH   3   5
HETATM    5  C10 UNL     1     -17.589   1.211   2.098  1.00  0.00     0.221 C 
BRANCH   5   6
HETATM    6  C9  UNL     1     -18.555   0.693   3.182  1.00  0.00     0.033 C 
BRANCH   6   7
HETATM    7  C8  UNL     1     -17.876   0.707   4.498  1.00  0.00     0.002 C 
BRANCH   7   8
HETATM    8  C7  UNL     1     -18.804   0.969   5.637  1.00  0.00     0.000 C 
BRANCH   8   9
HETATM    9  C6  UNL     1     -18.903  -0.238   6.555  1.00  0.00     0.000 C 
BRANCH   9  10
HETATM   10  C5  UNL     1     -17.588  -0.518   7.188  1.00  0.00     0.000 C 
BRANCH  10  11
HETATM   11  C4  UNL     1     -17.301  -1.921   7.576  1.00  0.00     0.000 C 
BRANCH  11  12
HETATM   12  C3  UNL     1     -16.156  -2.525   6.786  1.00  0.00    -0.000 C 
BRANCH  12  13
HETATM   13  C2  UNL     1     -15.794  -3.897   7.304  1.00  0.00    -0.005 C 
HETATM   14  C1  UNL     1     -16.950  -4.638   7.926  1.00  0.00     0.005 C 
ENDBRANCH  12  13
ENDBRANCH  11  12
ENDBRANCH  10  11
ENDBRANCH   9  10
ENDBRANCH   8   9
ENDBRANCH   7   8
ENDBRANCH   6   7
ENDBRANCH   5   6
ENDBRANCH   3   5
ENDBRANCH   1   2
BRANCH   1  15
HETATM   15  N2  UNL     1     -19.371  -1.093  -0.749  1.00  0.00    -0.345 N 
HETATM   16  C13 UNL     1     -18.750  -2.175  -0.477  1.00  0.00     0.119 A 
HETATM   17  C14 UNL     1     -17.405  -2.494  -0.600  1.00  0.00     0.075 A 
HETATM   18  N5  UNL     1     -19.334  -3.320   0.018  1.00  0.00    -0.283 N 
HETATM   19  C15 UNL     1     -17.253  -3.795  -0.179  1.00  0.00     0.029 A 
HETATM   20  C16 UNL     1     -15.966  -4.556  -0.143  1.00  0.00     0.070 C 
HETATM   21  N3  UNL     1     -18.455  -4.266   0.191  1.00  0.00    -0.286 N 
ATOM     22  H5  UNL     1     -20.329  -3.415   0.222  1.00  0.00     0.189 HD
ATOM     23  H2  UNL     1     -20.374  -1.127  -0.563  1.00  0.00     0.163 HD
BRANCH  21  24
HETATM   24  C17 UNL     1     -18.760  -5.598   0.699  1.00  0.00     0.251 C 
BRANCH  24  25
HETATM   25  C18 UNL     1     -19.263  -5.614   2.068  1.00  0.00     0.239 C 
HETATM   26  O2  UNL     1     -20.409  -6.106   2.256  1.00  0.00    -0.271 OA
HETATM   27  N4  UNL     1     -18.584  -5.124   3.208  1.00  0.00    -0.351 N 
HETATM   28  C19 UNL     1     -17.280  -4.507   3.208  1.00  0.00     0.126 C 
HETATM   29  C23 UNL     1     -19.213  -5.224   4.539  1.00  0.00     0.126 C 
HETATM   30  C20 UNL     1     -17.525  -3.011   3.401  1.00  0.00     0.020 C 
HETATM   31  C21 UNL     1     -18.905  -2.835   4.015  1.00  0.00     0.003 C 
HETATM   32  C22 UNL     1     -19.164  -3.842   5.122  1.00  0.00     0.020 C 
ENDBRANCH  24  25
ENDBRANCH  21  24
ENDBRANCH   1  15
BRANCH   1  33
HETATM   33  N6  UNL     1     -19.667   0.594  -2.419  1.00  0.00    -0.338 N 
ATOM     34  H6  UNL     1     -20.680   0.698  -2.379  1.00  0.00     0.164 HD
BRANCH  33  35
HETATM   35  C24 UNL     1     -18.936   0.891  -3.633  1.00  0.00     0.160 C 
BRANCH  35  36
HETATM   36  C25 UNL     1     -17.939  -0.124  -4.139  1.00  0.00     0.119 C 
BRANCH  36  37
HETATM   37  C26 UNL     1     -18.551  -0.924  -5.268  1.00  0.00     0.238 C 
BRANCH  37  38
HETATM   38  N7  UNL     1     -18.656  -0.145  -6.475  1.00  0.00    -0.079 N 
ATOM     39  H73 UNL     1     -18.892   0.826  -6.272  1.00  0.00     0.274 HD
ATOM     40  H72 UNL     1     -17.743   0.001  -6.905  1.00  0.00     0.274 HD
ATOM     41  H71 UNL     1     -19.316  -0.559  -7.133  1.00  0.00     0.274 HD
ENDBRANCH  37  38
ENDBRANCH  36  37
ENDBRANCH  35  36
BRANCH  35  42
HETATM   42  N8  UNL     1     -19.076   1.928  -4.225  1.00  0.00    -0.338 NA
HETATM   43  C27 UNL     1     -18.995   2.995  -4.977  1.00  0.00     0.397 C 
HETATM   44  O3  UNL     1     -19.113   3.014  -6.262  1.00  0.00    -0.230 OA
HETATM   45  N9  UNL     1     -18.754   4.300  -4.378  1.00  0.00    -0.322 N 
HETATM   46  C28 UNL     1     -18.659   5.416  -5.262  1.00  0.00     0.129 C 
HETATM   47  C33 UNL     1     -18.647   4.288  -2.931  1.00  0.00     0.129 C 
HETATM   48  C29 UNL     1     -18.500   6.698  -4.469  1.00  0.00     0.020 C 
HETATM   49  C30 UNL     1     -17.235   6.736  -3.661  1.00  0.00     0.002 C 
HETATM   50  C31 UNL     1     -16.560   5.399  -3.560  1.00  0.00     0.002 C 
HETATM   51  C32 UNL     1     -17.241   4.577  -2.504  1.00  0.00     0.020 C 
ENDBRANCH  35  42
ENDBRANCH  33  35
ENDBRANCH   1  33
TORSDOF 19
ENDMDL
MODEL 5
REMARK VINA RESULT: -8.327651514      2.452     11.170
REMARK  19 active torsions:
REMARK  status: ('A' for Active; 'I' for Inactive)
REMARK    1  A    between atoms: C2_2  and  C3_3 
REMARK    2  A    between atoms: C3_3  and  C4_4 
REMARK    3  A    between atoms: C4_4  and  C5_5 
REMARK    4  A    between atoms: C5_5  and  C6_6 
REMARK    5  A    between atoms: C6_6  and  C7_7 
REMARK    6  A    between atoms: C7_7  and  C8_8 
REMARK    7  A    between atoms: C8_8  and  C9_9 
REMARK    8  A    between atoms: C9_9  and  C10_10 
REMARK    9  A    between atoms: C10_10  and  N1_11 
REMARK       I    between atoms: N1_11  and  C11_12 
REMARK   10  A    between atoms: C11_12  and  C12_14 
REMARK   11  A    between atoms: C12_14  and  N2_15 
REMARK   12  A    between atoms: C12_14  and  N6_33 
REMARK   13  A    between atoms: N3_21  and  C17_22 
REMARK   14  A    between atoms: C17_22  and  C18_23 
REMARK       I    between atoms: C18_23  and  N4_25 
REMARK   15  A    between atoms: N6_33  and  C24_35 
REMARK   16  A    between atoms: C24_35  and  C25_36 
REMARK   17  A    between atoms: C24_35  and  N8_42 
REMARK   18  A    between atoms: C25_36  and  C26_37 
REMARK   19  A    between atoms: C26_37  and  N7_38 
REMARK       I    between atoms: N8_42  and  C27_43 
REMARK       I    between atoms: C27_43  and  N9_45 
ROOT
HETATM    1  C12 UNL     1     -17.194   0.619  -1.142  1.00  0.00     0.294 C 
ENDROOT
BRANCH   1   2
HETATM    2  C11 UNL     1     -17.121   1.617  -0.005  1.00  0.00     0.329 C 
HETATM    3  N1  UNL     1     -17.745   1.396   1.165  1.00  0.00    -0.412 NA
HETATM    4  O1  UNL     1     -16.419   2.655  -0.260  1.00  0.00    -0.253 OA
BRANCH   3   5
HETATM    5  C10 UNL     1     -18.393   1.167   2.387  1.00  0.00     0.221 C 
BRANCH   5   6
HETATM    6  C9  UNL     1     -17.517   0.185   3.190  1.00  0.00     0.033 C 
BRANCH   6   7
HETATM    7  C8  UNL     1     -17.562   0.544   4.626  1.00  0.00     0.002 C 
BRANCH   7   8
HETATM    8  C7  UNL     1     -16.676  -0.308   5.474  1.00  0.00     0.000 C 
BRANCH   8   9
HETATM    9  C6  UNL     1     -17.284  -0.539   6.847  1.00  0.00     0.000 C 
BRANCH   9  10
HETATM   10  C5  UNL     1     -18.608  -1.205   6.722  1.00  0.00     0.000 C 
BRANCH  10  11
HETATM   11  C4  UNL     1     -18.618  -2.639   6.339  1.00  0.00     0.000 C 
BRANCH  11  12
HETATM   12  C3  UNL     1     -17.919  -3.521   7.356  1.00  0.00    -0.000 C 
BRANCH  12  13
HETATM   13  C2  UNL     1     -16.661  -4.130   6.783  1.00  0.00    -0.005 C 
HETATM   14  C1  UNL     1     -15.452  -3.980   7.671  1.00  0.00     0.005 C 
ENDBRANCH  12  13
ENDBRANCH  11  12
ENDBRANCH  10  11
ENDBRANCH   9  10
ENDBRANCH   8   9
ENDBRANCH   7   8
ENDBRANCH   6   7
ENDBRANCH   5   6
ENDBRANCH   3   5
ENDBRANCH   1   2
BRANCH   1  15
HETATM   15  N2  UNL     1     -16.679   1.107  -2.365  1.00  0.00    -0.345 N 
HETATM   16  C13 UNL     1     -17.013   0.875  -3.576  1.00  0.00     0.119 A 
HETATM   17  C14 UNL     1     -18.005   0.054  -4.093  1.00  0.00     0.075 A 
HETATM   18  N5  UNL     1     -16.405   1.425  -4.683  1.00  0.00    -0.283 N 
HETATM   19  C15 UNL     1     -17.944   0.152  -5.464  1.00  0.00     0.029 A 
HETATM   20  C16 UNL     1     -18.830  -0.566  -6.431  1.00  0.00     0.070 C 
HETATM   21  N3  UNL     1     -16.953   1.000  -5.787  1.00  0.00    -0.286 N 
ATOM     22  H5  UNL     1     -15.626   2.081  -4.644  1.00  0.00     0.189 HD
ATOM     23  H2  UNL     1     -15.902   1.760  -2.262  1.00  0.00     0.163 HD
BRANCH  21  24
HETATM   24  C17 UNL     1     -16.535   1.396  -7.126  1.00  0.00     0.251 C 
BRANCH  24  25
HETATM   25  C18 UNL     1     -16.380   2.836  -7.301  1.00  0.00     0.239 C 
HETATM   26  O2  UNL     1     -15.249   3.253  -7.672  1.00  0.00    -0.271 OA
HETATM   27  N4  UNL     1     -17.382   3.811  -7.090  1.00  0.00    -0.351 N 
HETATM   28  C19 UNL     1     -18.730   3.548  -6.646  1.00  0.00     0.126 C 
HETATM   29  C23 UNL     1     -17.084   5.237  -7.326  1.00  0.00     0.126 C 
HETATM   30  C20 UNL     1     -18.781   3.985  -5.183  1.00  0.00     0.020 C 
HETATM   31  C21 UNL     1     -17.635   4.955  -4.941  1.00  0.00     0.003 C 
HETATM   32  C22 UNL     1     -17.492   5.956  -6.074  1.00  0.00     0.020 C 
ENDBRANCH  24  25
ENDBRANCH  21  24
ENDBRANCH   1  15
BRANCH   1  33
HETATM   33  N6  UNL     1     -16.509  -0.567  -0.665  1.00  0.00    -0.338 N 
ATOM     34  H6  UNL     1     -15.519  -0.538  -0.421  1.00  0.00     0.164 HD
BRANCH  33  35
HETATM   35  C24 UNL     1     -17.269  -1.793  -0.543  1.00  0.00     0.160 C 
BRANCH  35  36
HETATM   36  C25 UNL     1     -18.735  -1.768  -0.901  1.00  0.00     0.119 C 
BRANCH  36  37
HETATM   37  C26 UNL     1     -19.563  -1.553   0.347  1.00  0.00     0.238 C 
BRANCH  37  38
HETATM   38  N7  UNL     1     -20.667  -0.661   0.104  1.00  0.00    -0.079 N 
ATOM     39  H73 UNL     1     -21.178  -0.457   0.963  1.00  0.00     0.274 HD
ATOM     40  H72 UNL     1     -20.344   0.281  -0.115  1.00  0.00     0.274 HD
ATOM     41  H71 UNL     1     -21.288  -1.020  -0.621  1.00  0.00     0.274 HD
ENDBRANCH  37  38
ENDBRANCH  36  37
ENDBRANCH  35  36
BRANCH  35  42
HETATM   42  N8  UNL     1     -16.776  -2.812  -0.139  1.00  0.00    -0.338 NA
HETATM   43  C27 UNL     1     -16.442  -4.037   0.177  1.00  0.00     0.397 C 
HETATM   44  O3  UNL     1     -15.978  -4.920  -0.642  1.00  0.00    -0.230 OA
HETATM   45  N9  UNL     1     -16.581  -4.507   1.547  1.00  0.00    -0.322 N 
HETATM   46  C28 UNL     1     -16.216  -5.860   1.814  1.00  0.00     0.129 C 
HETATM   47  C33 UNL     1     -17.077  -3.510   2.479  1.00  0.00     0.129 C 
HETATM   48  C29 UNL     1     -16.335  -6.151   3.297  1.00  0.00     0.020 C 
HETATM   49  C30 UNL     1     -17.739  -6.021   3.810  1.00  0.00     0.002 C 
HETATM   50  C31 UNL     1     -18.660  -5.340   2.841  1.00  0.00     0.002 C 
HETATM   51  C32 UNL     1     -18.463  -3.853   2.929  1.00  0.00     0.020 C 
ENDBRANCH  35  42
ENDBRANCH  33  35
ENDBRANCH   1  33
TORSDOF 19
ENDMDL
