MODEL 1
REMARK VINA RESULT: -7.939547822      0.000      0.000
REMARK  18 active torsions:
REMARK  status: ('A' for Active; 'I' for Inactive)
REMARK    1  A    between atoms: C2_2  and  N1_3 
REMARK    2  A    between atoms: N1_3  and  C3_5 
REMARK    3  A    between atoms: N1_3  and  C16_28 
REMARK    4  A    between atoms: C3_5  and  C4_6 
REMARK    5  A    between atoms: C4_6  and  C5_7 
REMARK    6  A    between atoms: C5_7  and  C6_8 
REMARK    7  A    between atoms: C6_8  and  C8_10 
REMARK       I    between atoms: C8_10  and  N2_12 
REMARK    8  A    between atoms: N2_12  and  C9_14 
REMARK    9  A    between atoms: C9_14  and  C10_15 
REMARK   10  A    between atoms: C9_14  and  C14_23 
REMARK   11  A    between atoms: C10_15  and  C11_16 
REMARK   12  A    between atoms: C11_16  and  C12_17 
REMARK   13  A    between atoms: C12_17  and  C13_18 
REMARK   14  A    between atoms: C13_18  and  N3_19 
REMARK       I    between atoms: C14_23  and  N4_25 
REMARK   15  A    between atoms: C16_28  and  C17_29 
REMARK   16  A    between atoms: C21_33  and  C22_34 
REMARK   17  A    between atoms: C23_35  and  C24_36 
REMARK   18  A    between atoms: C29_41  and  O4_42 
ROOT
HETATM    1  N1  UNL     1     -18.754  -7.104   3.405  1.00  0.00     0.037 N 
HETATM    2  O1  UNL     1     -20.051  -7.480   3.059  1.00  0.00    -0.060 OA
ENDROOT
BRANCH   1   3
HETATM    3  C2  UNL     1     -18.064  -8.385   3.434  1.00  0.00     0.313 C 
HETATM    4  C1  UNL     1     -16.776  -8.233   2.655  1.00  0.00     0.044 C 
ENDBRANCH   1   3
BRANCH   1   5
HETATM    5  C3  UNL     1     -18.313  -6.262   2.347  1.00  0.00     0.318 C 
BRANCH   5   6
HETATM    6  C4  UNL     1     -19.312  -5.596   1.490  1.00  0.00     0.038 C 
BRANCH   6   7
HETATM    7  C5  UNL     1     -18.820  -4.892   0.283  1.00  0.00     0.016 C 
BRANCH   7   8
HETATM    8  C6  UNL     1     -17.632  -3.990   0.573  1.00  0.00     0.074 C 
HETATM    9  C7  UNL     1     -16.483  -4.166  -0.361  1.00  0.00     0.020 C 
BRANCH   8  10
HETATM   10  C8  UNL     1     -18.035  -2.574   0.648  1.00  0.00     0.222 C 
HETATM   11  O2  UNL     1     -19.167  -2.226   0.174  1.00  0.00    -0.273 OA
HETATM   12  N2  UNL     1     -17.234  -1.560   1.222  1.00  0.00    -0.347 N 
ATOM     13  H2  UNL     1     -16.331  -1.841   1.607  1.00  0.00     0.163 HD
BRANCH  12  14
HETATM   14  C9  UNL     1     -17.581  -0.168   1.311  1.00  0.00     0.176 C 
BRANCH  14  15
HETATM   15  C10 UNL     1     -16.787   0.755   0.523  1.00  0.00     0.035 C 
BRANCH  15  16
HETATM   16  C11 UNL     1     -17.406   1.635  -0.501  1.00  0.00     0.004 C 
BRANCH  16  17
HETATM   17  C12 UNL     1     -18.855   1.880  -0.345  1.00  0.00     0.027 C 
BRANCH  17  18
HETATM   18  C13 UNL     1     -19.611   0.986  -1.361  1.00  0.00     0.229 C 
BRANCH  18  19
HETATM   19  N3  UNL     1     -20.731   0.377  -0.707  1.00  0.00    -0.079 N 
ATOM     20  H33 UNL     1     -21.521   1.016  -0.616  1.00  0.00     0.274 HD
ATOM     21  H32 UNL     1     -21.183  -0.328  -1.288  1.00  0.00     0.274 HD
ATOM     22  H31 UNL     1     -20.429   0.003   0.192  1.00  0.00     0.274 HD
ENDBRANCH  18  19
ENDBRANCH  17  18
ENDBRANCH  16  17
ENDBRANCH  15  16
ENDBRANCH  14  15
BRANCH  14  23
HETATM   23  C14 UNL     1     -17.556   0.243   2.766  1.00  0.00     0.240 C 
HETATM   24  O3  UNL     1     -16.476  -0.026   3.389  1.00  0.00    -0.271 OA
HETATM   25  N4  UNL     1     -18.606   0.875   3.432  1.00  0.00    -0.364 N 
HETATM   26  C15 UNL     1     -18.436   1.214   4.854  1.00  0.00     0.149 C 
ATOM     27  H4  UNL     1     -19.474   1.097   2.944  1.00  0.00     0.161 HD
ENDBRANCH  14  23
ENDBRANCH  12  14
ENDBRANCH   8  10
ENDBRANCH   7   8
ENDBRANCH   6   7
ENDBRANCH   5   6
ENDBRANCH   1   5
BRANCH   1  28
HETATM   28  C16 UNL     1     -18.940  -6.511   4.670  1.00  0.00     0.281 C 
BRANCH  28  29
HETATM   29  C17 UNL     1     -17.961  -5.599   5.243  1.00  0.00    -0.025 C 
HETATM   30  C18 UNL     1     -16.770  -6.038   5.687  1.00  0.00    -0.011 C 
HETATM   31  C19 UNL     1     -15.953  -4.946   6.211  1.00  0.00     0.023 C 
HETATM   32  C20 UNL     1     -14.946  -5.282   7.238  1.00  0.00     0.020 C 
HETATM   33  C34 UNL     1     -16.960  -3.911   6.550  1.00  0.00    -0.029 C 
HETATM   34  C21 UNL     1     -14.249  -6.563   6.933  1.00  0.00     0.070 C 
HETATM   35  C30 UNL     1     -15.423  -5.297   8.655  1.00  0.00    -0.013 C 
HETATM   36  C27 UNL     1     -13.120  -6.751   7.915  1.00  0.00     0.020 C 
HETATM   37  C28 UNL     1     -12.938  -5.569   8.845  1.00  0.00     0.034 C 
HETATM   38  C29 UNL     1     -14.200  -5.188   9.549  1.00  0.00     0.126 C 
HETATM   39  C31 UNL     1     -16.160  -6.534   9.048  1.00  0.00     0.018 C 
HETATM   40  C32 UNL     1     -16.324  -4.102   8.925  1.00  0.00     0.013 C 
HETATM   41  C33 UNL     1     -17.483  -4.160   7.946  1.00  0.00     0.011 C 
HETATM   42  C35 UNL     1     -16.390  -2.498   6.472  1.00  0.00     0.016 C 
HETATM   43  C36 UNL     1     -17.972  -4.144   5.465  1.00  0.00     0.025 C 
HETATM   44  C37 UNL     1     -17.469  -3.393   4.229  1.00  0.00     0.016 C 
BRANCH  34  45
HETATM   45  C22 UNL     1     -13.665  -6.527   5.590  1.00  0.00    -0.101 C 
HETATM   46  C23 UNL     1     -13.198  -6.512   4.474  1.00  0.00    -0.101 C 
BRANCH  46  47
HETATM   47  C24 UNL     1     -12.646  -6.518   3.125  1.00  0.00     0.065 A 
HETATM   48  C25 UNL     1     -11.299  -5.895   2.893  1.00  0.00     0.018 A 
HETATM   49  C26 UNL     1     -11.487  -7.408   2.833  1.00  0.00     0.018 A 
ENDBRANCH  46  47
ENDBRANCH  34  45
BRANCH  38  50
HETATM   50  O4  UNL     1     -14.062  -3.892  10.056  1.00  0.00    -0.395 OA
ATOM     51  H4  UNL     1     -14.854  -3.661  10.527  1.00  0.00     0.210 HD
ENDBRANCH  38  50
ENDBRANCH  28  29
ENDBRANCH   1  28
TORSDOF 18
ENDMDL
MODEL 2
REMARK VINA RESULT: -7.794825134      1.140      2.329
REMARK  18 active torsions:
REMARK  status: ('A' for Active; 'I' for Inactive)
REMARK    1  A    between atoms: C2_2  and  N1_3 
REMARK    2  A    between atoms: N1_3  and  C3_5 
REMARK    3  A    between atoms: N1_3  and  C16_28 
REMARK    4  A    between atoms: C3_5  and  C4_6 
REMARK    5  A    between atoms: C4_6  and  C5_7 
REMARK    6  A    between atoms: C5_7  and  C6_8 
REMARK    7  A    between atoms: C6_8  and  C8_10 
REMARK       I    between atoms: C8_10  and  N2_12 
REMARK    8  A    between atoms: N2_12  and  C9_14 
REMARK    9  A    between atoms: C9_14  and  C10_15 
REMARK   10  A    between atoms: C9_14  and  C14_23 
REMARK   11  A    between atoms: C10_15  and  C11_16 
REMARK   12  A    between atoms: C11_16  and  C12_17 
REMARK   13  A    between atoms: C12_17  and  C13_18 
REMARK   14  A    between atoms: C13_18  and  N3_19 
REMARK       I    between atoms: C14_23  and  N4_25 
REMARK   15  A    between atoms: C16_28  and  C17_29 
REMARK   16  A    between atoms: C21_33  and  C22_34 
REMARK   17  A    between atoms: C23_35  and  C24_36 
REMARK   18  A    between atoms: C29_41  and  O4_42 
ROOT
HETATM    1  N1  UNL     1     -18.744  -7.086   3.340  1.00  0.00     0.037 N 
HETATM    2  O1  UNL     1     -20.042  -7.449   2.984  1.00  0.00    -0.060 OA
ENDROOT
BRANCH   1   3
HETATM    3  C2  UNL     1     -18.070  -8.375   3.383  1.00  0.00     0.313 C 
HETATM    4  C1  UNL     1     -16.777  -8.245   2.608  1.00  0.00     0.044 C 
ENDBRANCH   1   3
BRANCH   1   5
HETATM    5  C3  UNL     1     -18.284  -6.256   2.282  1.00  0.00     0.318 C 
BRANCH   5   6
HETATM    6  C4  UNL     1     -19.256  -5.441   1.527  1.00  0.00     0.038 C 
BRANCH   6   7
HETATM    7  C5  UNL     1     -18.776  -4.764   0.300  1.00  0.00     0.016 C 
BRANCH   7   8
HETATM    8  C6  UNL     1     -17.436  -4.076   0.494  1.00  0.00     0.074 C 
HETATM    9  C7  UNL     1     -16.362  -4.547  -0.427  1.00  0.00     0.020 C 
BRANCH   8  10
HETATM   10  C8  UNL     1     -17.568  -2.609   0.438  1.00  0.00     0.222 C 
HETATM   11  O2  UNL     1     -18.435  -2.095  -0.344  1.00  0.00    -0.273 OA
HETATM   12  N2  UNL     1     -16.784  -1.721   1.209  1.00  0.00    -0.347 N 
ATOM     13  H2  UNL     1     -16.095  -2.133   1.840  1.00  0.00     0.163 HD
BRANCH  12  14
HETATM   14  C9  UNL     1     -16.872  -0.285   1.183  1.00  0.00     0.176 C 
BRANCH  14  15
HETATM   15  C10 UNL     1     -18.116   0.301   1.642  1.00  0.00     0.035 C 
BRANCH  15  16
HETATM   16  C11 UNL     1     -18.677  -0.014   2.980  1.00  0.00     0.004 C 
BRANCH  16  17
HETATM   17  C12 UNL     1     -17.837   0.368   4.134  1.00  0.00     0.027 C 
BRANCH  17  18
HETATM   18  C13 UNL     1     -18.688   1.247   5.085  1.00  0.00     0.229 C 
BRANCH  18  19
HETATM   19  N3  UNL     1     -18.912   0.535   6.308  1.00  0.00    -0.079 N 
ATOM     20  H33 UNL     1     -18.414  -0.355   6.335  1.00  0.00     0.274 HD
ATOM     21  H32 UNL     1     -18.456   0.978   7.104  1.00  0.00     0.274 HD
ATOM     22  H31 UNL     1     -19.916   0.421   6.448  1.00  0.00     0.274 HD
ENDBRANCH  18  19
ENDBRANCH  17  18
ENDBRANCH  16  17
ENDBRANCH  15  16
ENDBRANCH  14  15
BRANCH  14  23
HETATM   23  C14 UNL     1     -16.564   0.190  -0.219  1.00  0.00     0.240 C 
HETATM   24  O3  UNL     1     -15.345   0.076  -0.577  1.00  0.00    -0.271 OA
HETATM   25  N4  UNL     1     -17.503   0.722  -1.103  1.00  0.00    -0.364 N 
HETATM   26  C15 UNL     1     -17.053   1.144  -2.439  1.00  0.00     0.149 C 
ATOM     27  H4  UNL     1     -18.481   0.816  -0.830  1.00  0.00     0.161 HD
ENDBRANCH  14  23
ENDBRANCH  12  14
ENDBRANCH   8  10
ENDBRANCH   7   8
ENDBRANCH   6   7
ENDBRANCH   5   6
ENDBRANCH   1   5
BRANCH   1  28
HETATM   28  C16 UNL     1     -18.936  -6.484   4.599  1.00  0.00     0.281 C 
BRANCH  28  29
HETATM   29  C17 UNL     1     -17.956  -5.571   5.172  1.00  0.00    -0.025 C 
HETATM   30  C18 UNL     1     -16.775  -6.014   5.638  1.00  0.00    -0.011 C 
HETATM   31  C19 UNL     1     -15.956  -4.921   6.156  1.00  0.00     0.023 C 
HETATM   32  C20 UNL     1     -14.965  -5.251   7.201  1.00  0.00     0.020 C 
HETATM   33  C34 UNL     1     -16.959  -3.873   6.468  1.00  0.00    -0.029 C 
HETATM   34  C21 UNL     1     -14.275  -6.542   6.924  1.00  0.00     0.070 C 
HETATM   35  C30 UNL     1     -15.460  -5.242   8.612  1.00  0.00    -0.013 C 
HETATM   36  C27 UNL     1     -13.161  -6.725   7.923  1.00  0.00     0.020 C 
HETATM   37  C28 UNL     1     -12.980  -5.531   8.837  1.00  0.00     0.034 C 
HETATM   38  C29 UNL     1     -14.248  -5.130   9.520  1.00  0.00     0.126 C 
HETATM   39  C31 UNL     1     -16.212  -6.467   9.013  1.00  0.00     0.018 C 
HETATM   40  C32 UNL     1     -16.355  -4.036   8.853  1.00  0.00     0.013 C 
HETATM   41  C33 UNL     1     -17.501  -4.098   7.861  1.00  0.00     0.011 C 
HETATM   42  C35 UNL     1     -16.375  -2.466   6.377  1.00  0.00     0.016 C 
HETATM   43  C36 UNL     1     -17.958  -4.113   5.373  1.00  0.00     0.025 C 
HETATM   44  C37 UNL     1     -17.433  -3.385   4.133  1.00  0.00     0.016 C 
BRANCH  34  45
HETATM   45  C22 UNL     1     -13.673  -6.531   5.588  1.00  0.00    -0.101 C 
HETATM   46  C23 UNL     1     -13.195  -6.511   4.477  1.00  0.00    -0.101 C 
BRANCH  46  47
HETATM   47  C24 UNL     1     -12.642  -6.487   3.128  1.00  0.00     0.065 A 
HETATM   48  C25 UNL     1     -11.294  -5.863   2.912  1.00  0.00     0.018 A 
HETATM   49  C26 UNL     1     -11.485  -7.373   2.816  1.00  0.00     0.018 A 
ENDBRANCH  46  47
ENDBRANCH  34  45
BRANCH  38  50
HETATM   50  O4  UNL     1     -14.105  -3.828  10.010  1.00  0.00    -0.395 OA
ATOM     51  H4  UNL     1     -13.634  -3.309   9.369  1.00  0.00     0.210 HD
ENDBRANCH  38  50
ENDBRANCH  28  29
ENDBRANCH   1  28
TORSDOF 18
ENDMDL
MODEL 3
REMARK VINA RESULT: -7.689060942      3.466      6.373
REMARK  18 active torsions:
REMARK  status: ('A' for Active; 'I' for Inactive)
REMARK    1  A    between atoms: C2_2  and  N1_3 
REMARK    2  A    between atoms: N1_3  and  C3_5 
REMARK    3  A    between atoms: N1_3  and  C16_28 
REMARK    4  A    between atoms: C3_5  and  C4_6 
REMARK    5  A    between atoms: C4_6  and  C5_7 
REMARK    6  A    between atoms: C5_7  and  C6_8 
REMARK    7  A    between atoms: C6_8  and  C8_10 
REMARK       I    between atoms: C8_10  and  N2_12 
REMARK    8  A    between atoms: N2_12  and  C9_14 
REMARK    9  A    between atoms: C9_14  and  C10_15 
REMARK   10  A    between atoms: C9_14  and  C14_23 
REMARK   11  A    between atoms: C10_15  and  C11_16 
REMARK   12  A    between atoms: C11_16  and  C12_17 
REMARK   13  A    between atoms: C12_17  and  C13_18 
REMARK   14  A    between atoms: C13_18  and  N3_19 
REMARK       I    between atoms: C14_23  and  N4_25 
REMARK   15  A    between atoms: C16_28  and  C17_29 
REMARK   16  A    between atoms: C21_33  and  C22_34 
REMARK   17  A    between atoms: C23_35  and  C24_36 
REMARK   18  A    between atoms: C29_41  and  O4_42 
ROOT
HETATM    1  N1  UNL     1     -19.527  -0.339   0.486  1.00  0.00     0.037 N 
HETATM    2  O1  UNL     1     -20.772  -0.886   0.176  1.00  0.00    -0.060 OA
ENDROOT
BRANCH   1   3
HETATM    3  C2  UNL     1     -18.617  -1.374   0.021  1.00  0.00     0.313 C 
HETATM    4  C1  UNL     1     -19.418  -2.644  -0.163  1.00  0.00     0.044 C 
ENDBRANCH   1   3
BRANCH   1   5
HETATM    5  C3  UNL     1     -19.443   0.857  -0.278  1.00  0.00     0.318 C 
BRANCH   5   6
HETATM    6  C4  UNL     1     -18.836   2.059   0.324  1.00  0.00     0.038 C 
BRANCH   6   7
HETATM    7  C5  UNL     1     -17.527   2.505  -0.206  1.00  0.00     0.016 C 
BRANCH   7   8
HETATM    8  C6  UNL     1     -17.541   3.954  -0.663  1.00  0.00     0.074 C 
HETATM    9  C7  UNL     1     -16.210   4.625  -0.625  1.00  0.00     0.020 C 
BRANCH   8  10
HETATM   10  C8  UNL     1     -18.163   4.096  -1.992  1.00  0.00     0.222 C 
HETATM   11  O2  UNL     1     -18.986   5.049  -2.193  1.00  0.00    -0.273 OA
HETATM   12  N2  UNL     1     -17.899   3.228  -3.077  1.00  0.00    -0.347 N 
ATOM     13  H2  UNL     1     -17.235   2.469  -2.917  1.00  0.00     0.163 HD
BRANCH  12  14
HETATM   14  C9  UNL     1     -18.486   3.322  -4.387  1.00  0.00     0.176 C 
BRANCH  14  15
HETATM   15  C10 UNL     1     -18.806   2.074  -5.051  1.00  0.00     0.035 C 
BRANCH  15  16
HETATM   16  C11 UNL     1     -18.531   0.761  -4.413  1.00  0.00     0.004 C 
BRANCH  16  17
HETATM   17  C12 UNL     1     -17.513  -0.076  -5.081  1.00  0.00     0.027 C 
BRANCH  17  18
HETATM   18  C13 UNL     1     -16.111   0.444  -4.673  1.00  0.00     0.229 C 
BRANCH  18  19
HETATM   19  N3  UNL     1     -15.474   1.022  -5.818  1.00  0.00    -0.079 N 
ATOM     20  H33 UNL     1     -14.566   0.599  -6.012  1.00  0.00     0.274 HD
ATOM     21  H32 UNL     1     -15.939   0.769  -6.690  1.00  0.00     0.274 HD
ATOM     22  H31 UNL     1     -15.411   2.032  -5.691  1.00  0.00     0.274 HD
ENDBRANCH  18  19
ENDBRANCH  17  18
ENDBRANCH  16  17
ENDBRANCH  15  16
ENDBRANCH  14  15
BRANCH  14  23
HETATM   23  C14 UNL     1     -17.577   4.154  -5.263  1.00  0.00     0.240 C 
HETATM   24  O3  UNL     1     -17.090   3.547  -6.274  1.00  0.00    -0.271 OA
HETATM   25  N4  UNL     1     -17.259   5.493  -5.035  1.00  0.00    -0.364 N 
HETATM   26  C15 UNL     1     -16.357   6.173  -5.978  1.00  0.00     0.149 C 
ATOM     27  H4  UNL     1     -17.644   5.990  -4.232  1.00  0.00     0.161 HD
ENDBRANCH  14  23
ENDBRANCH  12  14
ENDBRANCH   8  10
ENDBRANCH   7   8
ENDBRANCH   6   7
ENDBRANCH   5   6
ENDBRANCH   1   5
BRANCH   1  28
HETATM   28  C16 UNL     1     -19.597  -0.208   1.888  1.00  0.00     0.281 C 
BRANCH  28  29
HETATM   29  C17 UNL     1     -18.479  -0.564   2.750  1.00  0.00    -0.025 C 
HETATM   30  C18 UNL     1     -18.364  -1.797   3.274  1.00  0.00    -0.011 C 
HETATM   31  C19 UNL     1     -17.163  -1.923   4.096  1.00  0.00     0.023 C 
HETATM   32  C20 UNL     1     -17.184  -2.926   5.181  1.00  0.00     0.020 C 
HETATM   33  C34 UNL     1     -16.865  -0.518   4.467  1.00  0.00    -0.029 C 
HETATM   34  C21 UNL     1     -17.850  -4.189   4.755  1.00  0.00     0.070 C 
HETATM   35  C30 UNL     1     -17.753  -2.478   6.489  1.00  0.00    -0.013 C 
HETATM   36  C27 UNL     1     -17.676  -5.223   5.839  1.00  0.00     0.020 C 
HETATM   37  C28 UNL     1     -16.803  -4.745   6.982  1.00  0.00     0.034 C 
HETATM   38  C29 UNL     1     -17.264  -3.443   7.554  1.00  0.00     0.126 C 
HETATM   39  C31 UNL     1     -19.245  -2.464   6.544  1.00  0.00     0.018 C 
HETATM   40  C32 UNL     1     -17.253  -1.085   6.836  1.00  0.00     0.013 C 
HETATM   41  C33 UNL     1     -17.649  -0.151   5.707  1.00  0.00     0.011 C 
HETATM   42  C35 UNL     1     -15.379  -0.289   4.726  1.00  0.00     0.016 C 
HETATM   43  C36 UNL     1     -17.312   0.195   3.224  1.00  0.00     0.025 C 
HETATM   44  C37 UNL     1     -16.153   0.107   2.227  1.00  0.00     0.016 C 
BRANCH  34  45
HETATM   45  C22 UNL     1     -17.228  -4.718   3.538  1.00  0.00    -0.101 C 
HETATM   46  C23 UNL     1     -16.727  -5.139   2.521  1.00  0.00    -0.101 C 
BRANCH  46  47
HETATM   47  C24 UNL     1     -16.145  -5.642   1.282  1.00  0.00     0.065 A 
HETATM   48  C25 UNL     1     -16.940  -5.529   0.013  1.00  0.00     0.018 A 
HETATM   49  C26 UNL     1     -15.710  -4.659   0.250  1.00  0.00     0.018 A 
ENDBRANCH  46  47
ENDBRANCH  34  45
BRANCH  38  50
HETATM   50  O4  UNL     1     -16.221  -2.883   8.300  1.00  0.00    -0.395 OA
ATOM     51  H4  UNL     1     -16.300  -3.172   9.201  1.00  0.00     0.210 HD
ENDBRANCH  38  50
ENDBRANCH  28  29
ENDBRANCH   1  28
TORSDOF 18
ENDMDL
MODEL 4
REMARK VINA RESULT: -7.671367009      3.506      6.315
REMARK  18 active torsions:
REMARK  status: ('A' for Active; 'I' for Inactive)
REMARK    1  A    between atoms: C2_2  and  N1_3 
REMARK    2  A    between atoms: N1_3  and  C3_5 
REMARK    3  A    between atoms: N1_3  and  C16_28 
REMARK    4  A    between atoms: C3_5  and  C4_6 
REMARK    5  A    between atoms: C4_6  and  C5_7 
REMARK    6  A    between atoms: C5_7  and  C6_8 
REMARK    7  A    between atoms: C6_8  and  C8_10 
REMARK       I    between atoms: C8_10  and  N2_12 
REMARK    8  A    between atoms: N2_12  and  C9_14 
REMARK    9  A    between atoms: C9_14  and  C10_15 
REMARK   10  A    between atoms: C9_14  and  C14_23 
REMARK   11  A    between atoms: C10_15  and  C11_16 
REMARK   12  A    between atoms: C11_16  and  C12_17 
REMARK   13  A    between atoms: C12_17  and  C13_18 
REMARK   14  A    between atoms: C13_18  and  N3_19 
REMARK       I    between atoms: C14_23  and  N4_25 
REMARK   15  A    between atoms: C16_28  and  C17_29 
REMARK   16  A    between atoms: C21_33  and  C22_34 
REMARK   17  A    between atoms: C23_35  and  C24_36 
REMARK   18  A    between atoms: C29_41  and  O4_42 
ROOT
HETATM    1  N1  UNL     1     -19.458  -0.600   0.592  1.00  0.00     0.037 N 
HETATM    2  O1  UNL     1     -20.797  -0.630   0.203  1.00  0.00    -0.060 OA
ENDROOT
BRANCH   1   3
HETATM    3  C2  UNL     1     -18.999  -1.923   0.200  1.00  0.00     0.313 C 
HETATM    4  C1  UNL     1     -17.733  -1.751  -0.610  1.00  0.00     0.044 C 
ENDBRANCH   1   3
BRANCH   1   5
HETATM    5  C3  UNL     1     -18.868   0.441  -0.175  1.00  0.00     0.318 C 
BRANCH   5   6
HETATM    6  C4  UNL     1     -18.743   1.790   0.410  1.00  0.00     0.038 C 
BRANCH   6   7
HETATM    7  C5  UNL     1     -19.356   2.918  -0.330  1.00  0.00     0.016 C 
BRANCH   7   8
HETATM    8  C6  UNL     1     -18.325   3.808  -1.003  1.00  0.00     0.074 C 
HETATM    9  C7  UNL     1     -17.099   4.053  -0.190  1.00  0.00     0.020 C 
BRANCH   8  10
HETATM   10  C8  UNL     1     -17.974   3.309  -2.344  1.00  0.00     0.222 C 
HETATM   11  O2  UNL     1     -16.799   3.517  -2.795  1.00  0.00    -0.273 OA
HETATM   12  N2  UNL     1     -18.871   2.601  -3.178  1.00  0.00    -0.347 N 
ATOM     13  H2  UNL     1     -19.809   2.429  -2.814  1.00  0.00     0.163 HD
BRANCH  12  14
HETATM   14  C9  UNL     1     -18.576   2.103  -4.494  1.00  0.00     0.176 C 
BRANCH  14  15
HETATM   15  C10 UNL     1     -17.469   1.173  -4.608  1.00  0.00     0.035 C 
BRANCH  15  16
HETATM   16  C11 UNL     1     -17.539  -0.013  -5.499  1.00  0.00     0.004 C 
BRANCH  16  17
HETATM   17  C12 UNL     1     -18.605   0.014  -6.522  1.00  0.00     0.027 C 
BRANCH  17  18
HETATM   18  C13 UNL     1     -17.969   0.420  -7.876  1.00  0.00     0.229 C 
BRANCH  18  19
HETATM   19  N3  UNL     1     -18.429   1.729  -8.236  1.00  0.00    -0.079 N 
ATOM     20  H33 UNL     1     -18.188   1.974  -9.197  1.00  0.00     0.274 HD
ATOM     21  H32 UNL     1     -19.443   1.772  -8.327  1.00  0.00     0.274 HD
ATOM     22  H31 UNL     1     -18.070   2.405  -7.562  1.00  0.00     0.274 HD
ENDBRANCH  18  19
ENDBRANCH  17  18
ENDBRANCH  16  17
ENDBRANCH  15  16
ENDBRANCH  14  15
BRANCH  14  23
HETATM   23  C14 UNL     1     -18.357   3.280  -5.417  1.00  0.00     0.240 C 
HETATM   24  O3  UNL     1     -19.415   3.765  -5.941  1.00  0.00    -0.271 OA
HETATM   25  N4  UNL     1     -17.115   3.841  -5.711  1.00  0.00    -0.364 N 
HETATM   26  C15 UNL     1     -17.059   4.988  -6.631  1.00  0.00     0.149 C 
ATOM     27  H4  UNL     1     -16.262   3.464  -5.297  1.00  0.00     0.161 HD
ENDBRANCH  14  23
ENDBRANCH  12  14
ENDBRANCH   8  10
ENDBRANCH   7   8
ENDBRANCH   6   7
ENDBRANCH   5   6
ENDBRANCH   1   5
BRANCH   1  28
HETATM   28  C16 UNL     1     -19.555  -0.403   1.985  1.00  0.00     0.281 C 
BRANCH  28  29
HETATM   29  C17 UNL     1     -18.448  -0.704   2.882  1.00  0.00    -0.025 C 
HETATM   30  C18 UNL     1     -18.326  -1.910   3.463  1.00  0.00    -0.011 C 
HETATM   31  C19 UNL     1     -17.139  -1.982   4.312  1.00  0.00     0.023 C 
HETATM   32  C20 UNL     1     -17.167  -2.936   5.440  1.00  0.00     0.020 C 
HETATM   33  C34 UNL     1     -16.868  -0.558   4.625  1.00  0.00    -0.029 C 
HETATM   34  C21 UNL     1     -17.807  -4.227   5.058  1.00  0.00     0.070 C 
HETATM   35  C30 UNL     1     -17.767  -2.439   6.716  1.00  0.00    -0.013 C 
HETATM   36  C27 UNL     1     -17.639  -5.208   6.191  1.00  0.00     0.020 C 
HETATM   37  C28 UNL     1     -16.795  -4.668   7.326  1.00  0.00     0.034 C 
HETATM   38  C29 UNL     1     -17.285  -3.349   7.831  1.00  0.00     0.126 C 
HETATM   39  C31 UNL     1     -19.259  -2.445   6.742  1.00  0.00     0.018 C 
HETATM   40  C32 UNL     1     -17.293  -1.024   7.010  1.00  0.00     0.013 C 
HETATM   41  C33 UNL     1     -17.680  -0.147   5.833  1.00  0.00     0.011 C 
HETATM   42  C35 UNL     1     -15.391  -0.295   4.901  1.00  0.00     0.016 C 
HETATM   43  C36 UNL     1     -17.301   0.094   3.344  1.00  0.00     0.025 C 
HETATM   44  C37 UNL     1     -16.122  -0.022   2.373  1.00  0.00     0.016 C 
BRANCH  34  45
HETATM   45  C22 UNL     1     -17.154  -4.799   3.878  1.00  0.00    -0.101 C 
HETATM   46  C23 UNL     1     -16.618  -5.252   2.892  1.00  0.00    -0.101 C 
BRANCH  46  47
HETATM   47  C24 UNL     1     -15.985  -5.780   1.690  1.00  0.00     0.065 A 
HETATM   48  C25 UNL     1     -16.768  -5.794   0.409  1.00  0.00     0.018 A 
HETATM   49  C26 UNL     1     -15.604  -4.829   0.608  1.00  0.00     0.018 A 
ENDBRANCH  46  47
ENDBRANCH  34  45
BRANCH  38  50
HETATM   50  O4  UNL     1     -16.264  -2.741   8.570  1.00  0.00    -0.395 OA
ATOM     51  H4  UNL     1     -15.768  -2.170   7.996  1.00  0.00     0.210 HD
ENDBRANCH  38  50
ENDBRANCH  28  29
ENDBRANCH   1  28
TORSDOF 18
ENDMDL
MODEL 5
REMARK VINA RESULT: -7.638697701      4.216     11.644
REMARK  18 active torsions:
REMARK  status: ('A' for Active; 'I' for Inactive)
REMARK    1  A    between atoms: C2_2  and  N1_3 
REMARK    2  A    between atoms: N1_3  and  C3_5 
REMARK    3  A    between atoms: N1_3  and  C16_28 
REMARK    4  A    between atoms: C3_5  and  C4_6 
REMARK    5  A    between atoms: C4_6  and  C5_7 
REMARK    6  A    between atoms: C5_7  and  C6_8 
REMARK    7  A    between atoms: C6_8  and  C8_10 
REMARK       I    between atoms: C8_10  and  N2_12 
REMARK    8  A    between atoms: N2_12  and  C9_14 
REMARK    9  A    between atoms: C9_14  and  C10_15 
REMARK   10  A    between atoms: C9_14  and  C14_23 
REMARK   11  A    between atoms: C10_15  and  C11_16 
REMARK   12  A    between atoms: C11_16  and  C12_17 
REMARK   13  A    between atoms: C12_17  and  C13_18 
REMARK   14  A    between atoms: C13_18  and  N3_19 
REMARK       I    between atoms: C14_23  and  N4_25 
REMARK   15  A    between atoms: C16_28  and  C17_29 
REMARK   16  A    between atoms: C21_33  and  C22_34 
REMARK   17  A    between atoms: C23_35  and  C24_36 
REMARK   18  A    between atoms: C29_41  and  O4_42 
ROOT
HETATM    1  N1  UNL     1     -19.407   0.435  -1.085  1.00  0.00     0.037 N 
HETATM    2  O1  UNL     1     -20.754   0.422  -0.726  1.00  0.00    -0.060 OA
ENDROOT
BRANCH   1   3
HETATM    3  C2  UNL     1     -18.998   1.770  -0.677  1.00  0.00     0.313 C 
HETATM    4  C1  UNL     1     -17.846   1.623   0.294  1.00  0.00     0.044 C 
ENDBRANCH   1   3
BRANCH   1   5
HETATM    5  C3  UNL     1     -18.802  -0.591  -0.308  1.00  0.00     0.318 C 
BRANCH   5   6
HETATM    6  C4  UNL     1     -18.520  -1.898  -0.931  1.00  0.00     0.038 C 
BRANCH   6   7
HETATM    7  C5  UNL     1     -17.240  -2.559  -0.588  1.00  0.00     0.016 C 
BRANCH   7   8
HETATM    8  C6  UNL     1     -17.426  -3.993  -0.121  1.00  0.00     0.074 C 
HETATM    9  C7  UNL     1     -16.175  -4.805  -0.111  1.00  0.00     0.020 C 
BRANCH   8  10
HETATM   10  C8  UNL     1     -18.100  -4.052   1.188  1.00  0.00     0.222 C 
HETATM   11  O2  UNL     1     -19.174  -4.731   1.302  1.00  0.00    -0.273 OA
HETATM   12  N2  UNL     1     -17.623  -3.395   2.346  1.00  0.00    -0.347 N 
ATOM     13  H2  UNL     1     -16.760  -2.858   2.255  1.00  0.00     0.163 HD
BRANCH  12  14
HETATM   14  C9  UNL     1     -18.249  -3.418   3.640  1.00  0.00     0.176 C 
BRANCH  14  15
HETATM   15  C10 UNL     1     -18.590  -2.135   4.225  1.00  0.00     0.035 C 
BRANCH  15  16
HETATM   16  C11 UNL     1     -18.626  -0.895   3.410  1.00  0.00     0.004 C 
BRANCH  16  17
HETATM   17  C12 UNL     1     -17.703   0.179   3.834  1.00  0.00     0.027 C 
BRANCH  17  18
HETATM   18  C13 UNL     1     -16.253  -0.279   3.535  1.00  0.00     0.229 C 
BRANCH  18  19
HETATM   19  N3  UNL     1     -15.506  -0.296   4.756  1.00  0.00    -0.079 N 
ATOM     20  H33 UNL     1     -15.524   0.604   5.236  1.00  0.00     0.274 HD
ATOM     21  H32 UNL     1     -15.959  -0.853   5.481  1.00  0.00     0.274 HD
ATOM     22  H31 UNL     1     -14.556  -0.612   4.562  1.00  0.00     0.274 HD
ENDBRANCH  18  19
ENDBRANCH  17  18
ENDBRANCH  16  17
ENDBRANCH  15  16
ENDBRANCH  14  15
BRANCH  14  23
HETATM   23  C14 UNL     1     -17.368  -4.199   4.589  1.00  0.00     0.240 C 
HETATM   24  O3  UNL     1     -17.225  -5.435   4.306  1.00  0.00    -0.271 OA
HETATM   25  N4  UNL     1     -16.728  -3.661   5.706  1.00  0.00    -0.364 N 
HETATM   26  C15 UNL     1     -15.900  -4.548   6.538  1.00  0.00     0.149 C 
ATOM     27  H4  UNL     1     -16.833  -2.674   5.940  1.00  0.00     0.161 HD
ENDBRANCH  14  23
ENDBRANCH  12  14
ENDBRANCH   8  10
ENDBRANCH   7   8
ENDBRANCH   6   7
ENDBRANCH   5   6
ENDBRANCH   1   5
BRANCH   1  28
HETATM   28  C16 UNL     1     -19.466   0.242  -2.480  1.00  0.00     0.281 C 
BRANCH  28  29
HETATM   29  C17 UNL     1     -18.371   0.631  -3.357  1.00  0.00    -0.025 C 
HETATM   30  C18 UNL     1     -18.330   1.847  -3.929  1.00  0.00    -0.011 C 
HETATM   31  C19 UNL     1     -17.139   2.014  -4.758  1.00  0.00     0.023 C 
HETATM   32  C20 UNL     1     -17.220   2.971  -5.880  1.00  0.00     0.020 C 
HETATM   33  C34 UNL     1     -16.756   0.616  -5.074  1.00  0.00    -0.029 C 
HETATM   34  C21 UNL     1     -17.960   4.207  -5.502  1.00  0.00     0.070 C 
HETATM   35  C30 UNL     1     -17.760   2.439  -7.169  1.00  0.00    -0.013 C 
HETATM   36  C27 UNL     1     -17.848   5.206  -6.626  1.00  0.00     0.020 C 
HETATM   37  C28 UNL     1     -16.948   4.738  -7.751  1.00  0.00     0.034 C 
HETATM   38  C29 UNL     1     -17.329   3.390  -8.271  1.00  0.00     0.126 C 
HETATM   39  C31 UNL     1     -19.248   2.333  -7.220  1.00  0.00     0.018 C 
HETATM   40  C32 UNL     1     -17.176   1.065  -7.463  1.00  0.00     0.013 C 
HETATM   41  C33 UNL     1     -17.516   0.154  -6.297  1.00  0.00     0.011 C 
HETATM   42  C35 UNL     1     -15.259   0.467  -5.327  1.00  0.00     0.016 C 
HETATM   43  C36 UNL     1     -17.160  -0.075  -3.804  1.00  0.00     0.025 C 
HETATM   44  C37 UNL     1     -16.009   0.122  -2.813  1.00  0.00     0.016 C 
BRANCH  34  45
HETATM   45  C22 UNL     1     -17.372   4.818  -4.308  1.00  0.00    -0.101 C 
HETATM   46  C23 UNL     1     -16.891   5.304  -3.310  1.00  0.00    -0.101 C 
BRANCH  46  47
HETATM   47  C24 UNL     1     -16.326   5.875  -2.093  1.00  0.00     0.065 A 
HETATM   48  C25 UNL     1     -17.090   5.734  -0.808  1.00  0.00     0.018 A 
HETATM   49  C26 UNL     1     -15.804   4.949  -1.048  1.00  0.00     0.018 A 
ENDBRANCH  46  47
ENDBRANCH  34  45
BRANCH  38  50
HETATM   50  O4  UNL     1     -16.254   2.865  -8.996  1.00  0.00    -0.395 OA
ATOM     51  H4  UNL     1     -16.343   1.920  -9.037  1.00  0.00     0.210 HD
ENDBRANCH  38  50
ENDBRANCH  28  29
ENDBRANCH   1  28
TORSDOF 18
ENDMDL
