MODEL 1
REMARK VINA RESULT: -7.416611198      0.000      0.000
REMARK  16 active torsions:
REMARK  status: ('A' for Active; 'I' for Inactive)
REMARK       I    between atoms: C2_2  and  N1_4 
REMARK    1  A    between atoms: N1_4  and  C3_6 
REMARK    2  A    between atoms: C3_6  and  C4_7 
REMARK    3  A    between atoms: C4_7  and  C5_8 
REMARK    4  A    between atoms: C8_11  and  O2_12 
REMARK    5  A    between atoms: C8_11  and  N2_14 
REMARK    6  A    between atoms: C9_15  and  C10_16 
REMARK    7  A    between atoms: C10_16  and  C11_17 
REMARK    8  A    between atoms: C18_27  and  C19_28 
REMARK    9  A    between atoms: C19_28  and  C20_29 
REMARK   10  A    between atoms: C20_29  and  C21_30 
REMARK   11  A    between atoms: C21_30  and  N4_31 
REMARK   12  A    between atoms: C24_38  and  C25_39 
REMARK   13  A    between atoms: C25_39  and  C26_40 
REMARK   14  A    between atoms: C26_40  and  C27_41 
REMARK   15  A    between atoms: C27_41  and  C28_42 
REMARK   16  A    between atoms: C28_42  and  C29_43 
ROOT
HETATM    1  N2  UNL     1     -16.754  -6.348   4.168  1.00  0.00    -0.335 N 
HETATM    2  C9  UNL     1     -17.521  -7.632   4.116  1.00  0.00     0.179 C 
HETATM    3  C17 UNL     1     -18.488  -7.560   3.001  1.00  0.00     0.241 C 
HETATM    4  O3  UNL     1     -18.614  -8.689   2.396  1.00  0.00    -0.271 OA
HETATM    5  N3  UNL     1     -19.287  -6.562   2.452  1.00  0.00    -0.348 N 
ATOM      6  H3  UNL     1     -20.260  -6.820   2.287  1.00  0.00     0.163 HD
HETATM    7  C18 UNL     1     -18.928  -5.198   2.080  1.00  0.00     0.156 C 
HETATM    8  C23 UNL     1     -17.803  -4.697   2.851  1.00  0.00     0.172 C 
HETATM    9  O4  UNL     1     -16.995  -3.908   2.430  1.00  0.00    -0.293 OA
HETATM   10  C24 UNL     1     -17.535  -5.120   4.274  1.00  0.00     0.159 C 
ENDROOT
BRANCH   1  11
HETATM   11  C8  UNL     1     -15.380  -6.339   4.151  1.00  0.00     0.166 C 
HETATM   12  C3  UNL     1     -14.201  -6.412   4.937  1.00  0.00     0.082 C 
BRANCH  12  13
HETATM   13  N1  UNL     1     -13.282  -7.452   4.353  1.00  0.00    -0.324 N 
HETATM   14  C2  UNL     1     -12.227  -7.148   3.489  1.00  0.00     0.218 C 
HETATM   15  C1  UNL     1     -11.376  -8.247   2.966  1.00  0.00     0.117 C 
HETATM   16  O1  UNL     1     -11.935  -5.981   3.109  1.00  0.00    -0.274 OA
ATOM     17  H1  UNL     1     -13.437  -8.429   4.602  1.00  0.00     0.169 HD
ENDBRANCH  12  13
BRANCH  12  18
HETATM   18  C4  UNL     1     -14.004  -6.427   6.378  1.00  0.00     0.011 C 
BRANCH  18  19
HETATM   19  C5  UNL     1     -14.638  -5.465   7.292  1.00  0.00     0.002 C 
HETATM   20  C6  UNL     1     -13.706  -5.253   8.481  1.00  0.00     0.013 C 
HETATM   21  C7  UNL     1     -15.830  -6.251   7.938  1.00  0.00     0.013 C 
ENDBRANCH  18  19
ENDBRANCH  12  18
BRANCH  11  22
HETATM   22  O2  UNL     1     -14.958  -6.210   2.852  1.00  0.00    -0.344 OA
ATOM     23  H2  UNL     1     -15.673  -5.792   2.385  1.00  0.00     0.219 HD
ENDBRANCH  11  22
ENDBRANCH   1  11
BRANCH   2  24
HETATM   24  C10 UNL     1     -18.201  -7.766   5.423  1.00  0.00     0.040 C 
BRANCH  24  25
HETATM   25  C11 UNL     1     -18.329  -9.084   6.080  1.00  0.00    -0.012 C 
HETATM   26  C12 UNL     1     -17.102  -9.900   5.595  1.00  0.00     0.005 C 
HETATM   27  C13 UNL     1     -15.856  -9.520   6.343  1.00  0.00     0.000 C 
HETATM   28  C14 UNL     1     -15.921 -10.130   7.750  1.00  0.00     0.000 C 
HETATM   29  C15 UNL     1     -17.368 -10.318   8.055  1.00  0.00     0.000 C 
HETATM   30  C16 UNL     1     -18.213  -9.106   7.572  1.00  0.00     0.005 C 
ENDBRANCH  24  25
ENDBRANCH   2  24
BRANCH  10  31
HETATM   31  C25 UNL     1     -17.064  -4.051   5.164  1.00  0.00     0.033 C 
BRANCH  31  32
HETATM   32  C26 UNL     1     -18.278  -3.673   6.063  1.00  0.00     0.002 C 
BRANCH  32  33
HETATM   33  C27 UNL     1     -17.773  -3.129   7.379  1.00  0.00     0.000 C 
BRANCH  33  34
HETATM   34  C28 UNL     1     -16.702  -2.100   7.236  1.00  0.00     0.004 C 
BRANCH  34  35
HETATM   35  C29 UNL     1     -17.145  -1.086   6.200  1.00  0.00    -0.014 C 
HETATM   36  C30 UNL     1     -16.012  -0.451   5.463  1.00  0.00     0.004 C 
HETATM   37  C31 UNL     1     -16.347  -0.238   4.004  1.00  0.00     0.000 C 
HETATM   38  C32 UNL     1     -17.795   0.123   3.785  1.00  0.00     0.000 C 
HETATM   39  C33 UNL     1     -18.276   1.159   4.765  1.00  0.00     0.000 C 
HETATM   40  C34 UNL     1     -19.002   0.446   5.901  1.00  0.00     0.000 C 
HETATM   41  C35 UNL     1     -17.949   0.005   6.884  1.00  0.00     0.004 C 
ENDBRANCH  34  35
ENDBRANCH  33  34
ENDBRANCH  32  33
ENDBRANCH  31  32
ENDBRANCH  10  31
BRANCH   7  42
HETATM   42  C19 UNL     1     -18.760  -5.160   0.604  1.00  0.00     0.034 C 
BRANCH  42  43
HETATM   43  C20 UNL     1     -19.657  -4.220  -0.132  1.00  0.00     0.022 C 
BRANCH  43  44
HETATM   44  C21 UNL     1     -19.347  -2.767   0.181  1.00  0.00     0.122 C 
BRANCH  44  45
HETATM   45  N4  UNL     1     -18.013  -2.425  -0.193  1.00  0.00    -0.367 N 
HETATM   46  C22 UNL     1     -17.517  -1.247  -0.232  1.00  0.00     0.196 C 
HETATM   47  N5  UNL     1     -18.236  -0.063   0.101  1.00  0.00    -0.067 NA
HETATM   48  N6  UNL     1     -16.145  -1.134  -0.643  1.00  0.00    -0.067 NA
ATOM     49  H4  UNL     1     -17.396  -3.194  -0.455  1.00  0.00     0.161 HD
ENDBRANCH  44  45
ENDBRANCH  43  44
ENDBRANCH  42  43
ENDBRANCH   7  42
TORSDOF 16
ENDMDL
MODEL 2
REMARK VINA RESULT: -7.193002138      2.341      5.940
REMARK  16 active torsions:
REMARK  status: ('A' for Active; 'I' for Inactive)
REMARK       I    between atoms: C2_2  and  N1_4 
REMARK    1  A    between atoms: N1_4  and  C3_6 
REMARK    2  A    between atoms: C3_6  and  C4_7 
REMARK    3  A    between atoms: C4_7  and  C5_8 
REMARK    4  A    between atoms: C8_11  and  O2_12 
REMARK    5  A    between atoms: C8_11  and  N2_14 
REMARK    6  A    between atoms: C9_15  and  C10_16 
REMARK    7  A    between atoms: C10_16  and  C11_17 
REMARK    8  A    between atoms: C18_27  and  C19_28 
REMARK    9  A    between atoms: C19_28  and  C20_29 
REMARK   10  A    between atoms: C20_29  and  C21_30 
REMARK   11  A    between atoms: C21_30  and  N4_31 
REMARK   12  A    between atoms: C24_38  and  C25_39 
REMARK   13  A    between atoms: C25_39  and  C26_40 
REMARK   14  A    between atoms: C26_40  and  C27_41 
REMARK   15  A    between atoms: C27_41  and  C28_42 
REMARK   16  A    between atoms: C28_42  and  C29_43 
ROOT
HETATM    1  N2  UNL     1     -16.376  -6.429   5.720  1.00  0.00    -0.335 N 
HETATM    2  C9  UNL     1     -15.126  -6.156   6.496  1.00  0.00     0.179 C 
HETATM    3  C17 UNL     1     -15.219  -4.803   7.083  1.00  0.00     0.241 C 
HETATM    4  O3  UNL     1     -14.699  -4.749   8.260  1.00  0.00    -0.271 OA
HETATM    5  N3  UNL     1     -15.739  -3.582   6.667  1.00  0.00    -0.348 N 
ATOM      6  H3  UNL     1     -15.126  -2.777   6.796  1.00  0.00     0.163 HD
HETATM    7  C18 UNL     1     -17.039  -3.291   6.073  1.00  0.00     0.156 C 
HETATM    8  C23 UNL     1     -17.590  -4.437   5.371  1.00  0.00     0.172 C 
HETATM    9  O4  UNL     1     -18.770  -4.666   5.277  1.00  0.00    -0.293 OA
HETATM   10  C24 UNL     1     -16.729  -5.465   4.682  1.00  0.00     0.159 C 
ENDROOT
BRANCH   1  11
HETATM   11  C8  UNL     1     -17.131  -7.551   5.959  1.00  0.00     0.166 C 
HETATM   12  C3  UNL     1     -17.303  -8.928   5.661  1.00  0.00     0.082 C 
BRANCH  12  13
HETATM   13  N1  UNL     1     -17.420  -9.701   6.948  1.00  0.00    -0.324 N 
HETATM   14  C2  UNL     1     -18.637 -10.154   7.465  1.00  0.00     0.218 C 
HETATM   15  C1  UNL     1     -18.647 -10.909   8.743  1.00  0.00     0.117 C 
HETATM   16  O1  UNL     1     -19.757  -9.964   6.915  1.00  0.00    -0.274 OA
ATOM     17  H1  UNL     1     -16.567  -9.905   7.469  1.00  0.00     0.169 HD
ENDBRANCH  12  13
BRANCH  12  18
HETATM   18  C4  UNL     1     -16.642  -9.796   4.699  1.00  0.00     0.011 C 
BRANCH  18  19
HETATM   19  C5  UNL     1     -16.310  -9.380   3.328  1.00  0.00     0.002 C 
HETATM   20  C6  UNL     1     -17.476  -9.758   2.421  1.00  0.00     0.013 C 
HETATM   21  C7  UNL     1     -15.191 -10.376   2.866  1.00  0.00     0.013 C 
ENDBRANCH  18  19
ENDBRANCH  12  18
BRANCH  11  22
HETATM   22  O2  UNL     1     -18.126  -7.232   6.847  1.00  0.00    -0.344 OA
ATOM     23  H2  UNL     1     -17.912  -6.367   7.179  1.00  0.00     0.219 HD
ENDBRANCH  11  22
ENDBRANCH   1  11
BRANCH   2  24
HETATM   24  C10 UNL     1     -14.006  -6.259   5.534  1.00  0.00     0.040 C 
BRANCH  24  25
HETATM   25  C11 UNL     1     -13.726  -7.528   4.829  1.00  0.00    -0.012 C 
HETATM   26  C12 UNL     1     -13.480  -7.125   3.351  1.00  0.00     0.005 C 
HETATM   27  C13 UNL     1     -12.094  -6.576   3.153  1.00  0.00     0.000 C 
HETATM   28  C14 UNL     1     -11.095  -7.740   3.183  1.00  0.00     0.000 C 
HETATM   29  C15 UNL     1     -11.741  -8.823   3.977  1.00  0.00     0.000 C 
HETATM   30  C16 UNL     1     -12.477  -8.254   5.221  1.00  0.00     0.005 C 
ENDBRANCH  24  25
ENDBRANCH   2  24
BRANCH  10  31
HETATM   31  C25 UNL     1     -17.250  -5.958   3.401  1.00  0.00     0.033 C 
BRANCH  31  32
HETATM   32  C26 UNL     1     -16.192  -5.566   2.327  1.00  0.00     0.002 C 
BRANCH  32  33
HETATM   33  C27 UNL     1     -16.761  -5.824   0.951  1.00  0.00     0.000 C 
BRANCH  33  34
HETATM   34  C28 UNL     1     -16.251  -4.895  -0.099  1.00  0.00     0.004 C 
BRANCH  34  35
HETATM   35  C29 UNL     1     -17.229  -3.745  -0.240  1.00  0.00    -0.014 C 
HETATM   36  C30 UNL     1     -16.709  -2.451   0.293  1.00  0.00     0.004 C 
HETATM   37  C31 UNL     1     -17.131  -1.284  -0.572  1.00  0.00     0.000 C 
HETATM   38  C32 UNL     1     -18.515  -1.458  -1.149  1.00  0.00     0.000 C 
HETATM   39  C33 UNL     1     -19.499  -1.954  -0.125  1.00  0.00     0.000 C 
HETATM   40  C34 UNL     1     -19.638  -3.464  -0.284  1.00  0.00     0.000 C 
HETATM   41  C35 UNL     1     -18.511  -4.092   0.495  1.00  0.00     0.004 C 
ENDBRANCH  34  35
ENDBRANCH  33  34
ENDBRANCH  32  33
ENDBRANCH  31  32
ENDBRANCH  10  31
BRANCH   7  42
HETATM   42  C19 UNL     1     -17.904  -2.713   7.134  1.00  0.00     0.034 C 
BRANCH  42  43
HETATM   43  C20 UNL     1     -18.559  -1.411   6.807  1.00  0.00     0.022 C 
BRANCH  43  44
HETATM   44  C21 UNL     1     -17.636  -0.482   6.039  1.00  0.00     0.122 C 
BRANCH  44  45
HETATM   45  N4  UNL     1     -18.215  -0.080   4.798  1.00  0.00    -0.367 N 
HETATM   46  C22 UNL     1     -17.612  -0.006   3.672  1.00  0.00     0.196 C 
HETATM   47  N5  UNL     1     -16.236  -0.320   3.477  1.00  0.00    -0.067 NA
HETATM   48  N6  UNL     1     -18.392   0.427   2.546  1.00  0.00    -0.067 NA
ATOM     49  H4  UNL     1     -19.203   0.172   4.809  1.00  0.00     0.161 HD
ENDBRANCH  44  45
ENDBRANCH  43  44
ENDBRANCH  42  43
ENDBRANCH   7  42
TORSDOF 16
ENDMDL
MODEL 3
REMARK VINA RESULT: -7.049983146      2.896      7.120
REMARK  16 active torsions:
REMARK  status: ('A' for Active; 'I' for Inactive)
REMARK       I    between atoms: C2_2  and  N1_4 
REMARK    1  A    between atoms: N1_4  and  C3_6 
REMARK    2  A    between atoms: C3_6  and  C4_7 
REMARK    3  A    between atoms: C4_7  and  C5_8 
REMARK    4  A    between atoms: C8_11  and  O2_12 
REMARK    5  A    between atoms: C8_11  and  N2_14 
REMARK    6  A    between atoms: C9_15  and  C10_16 
REMARK    7  A    between atoms: C10_16  and  C11_17 
REMARK    8  A    between atoms: C18_27  and  C19_28 
REMARK    9  A    between atoms: C19_28  and  C20_29 
REMARK   10  A    between atoms: C20_29  and  C21_30 
REMARK   11  A    between atoms: C21_30  and  N4_31 
REMARK   12  A    between atoms: C24_38  and  C25_39 
REMARK   13  A    between atoms: C25_39  and  C26_40 
REMARK   14  A    between atoms: C26_40  and  C27_41 
REMARK   15  A    between atoms: C27_41  and  C28_42 
REMARK   16  A    between atoms: C28_42  and  C29_43 
ROOT
HETATM    1  N2  UNL     1     -16.128  -5.870   6.166  1.00  0.00    -0.335 N 
HETATM    2  C9  UNL     1     -16.319  -4.434   6.542  1.00  0.00     0.179 C 
HETATM    3  C17 UNL     1     -16.654  -4.363   7.980  1.00  0.00     0.241 C 
HETATM    4  O3  UNL     1     -16.117  -3.342   8.552  1.00  0.00    -0.271 OA
HETATM    5  N3  UNL     1     -17.406  -5.137   8.856  1.00  0.00    -0.348 N 
ATOM      6  H3  UNL     1     -18.058  -4.622   9.448  1.00  0.00     0.163 HD
HETATM    7  C18 UNL     1     -17.394  -6.583   9.047  1.00  0.00     0.156 C 
HETATM    8  C23 UNL     1     -16.965  -7.290   7.852  1.00  0.00     0.172 C 
HETATM    9  O4  UNL     1     -16.366  -8.336   7.866  1.00  0.00    -0.293 OA
HETATM   10  C24 UNL     1     -17.232  -6.778   6.459  1.00  0.00     0.159 C 
ENDROOT
BRANCH   1  11
HETATM   11  C8  UNL     1     -14.980  -6.296   5.545  1.00  0.00     0.166 C 
HETATM   12  C3  UNL     1     -14.435  -7.171   4.568  1.00  0.00     0.082 C 
BRANCH  12  13
HETATM   13  N1  UNL     1     -13.543  -6.384   3.644  1.00  0.00    -0.324 N 
HETATM   14  C2  UNL     1     -12.219  -6.736   3.369  1.00  0.00     0.218 C 
HETATM   15  C1  UNL     1     -11.421  -5.895   2.443  1.00  0.00     0.117 C 
HETATM   16  O1  UNL     1     -11.635  -7.740   3.862  1.00  0.00    -0.274 OA
ATOM     17  H1  UNL     1     -13.925  -5.552   3.195  1.00  0.00     0.169 HD
ENDBRANCH  12  13
BRANCH  12  18
HETATM   18  C4  UNL     1     -15.042  -8.230   3.778  1.00  0.00     0.011 C 
BRANCH  18  19
HETATM   19  C5  UNL     1     -14.929  -9.657   4.115  1.00  0.00     0.002 C 
HETATM   20  C6  UNL     1     -14.086  -9.783   5.379  1.00  0.00     0.013 C 
HETATM   21  C7  UNL     1     -13.980 -10.255   3.020  1.00  0.00     0.013 C 
ENDBRANCH  18  19
ENDBRANCH  12  18
BRANCH  11  22
HETATM   22  O2  UNL     1     -13.916  -5.604   6.065  1.00  0.00    -0.344 OA
ATOM     23  H2  UNL     1     -14.282  -5.001   6.702  1.00  0.00     0.219 HD
ENDBRANCH  11  22
ENDBRANCH   1  11
BRANCH   2  24
HETATM   24  C10 UNL     1     -17.421  -3.923   5.697  1.00  0.00     0.040 C 
BRANCH  24  25
HETATM   25  C11 UNL     1     -17.384  -2.550   5.151  1.00  0.00    -0.012 C 
HETATM   26  C12 UNL     1     -18.742  -1.917   5.552  1.00  0.00     0.005 C 
HETATM   27  C13 UNL     1     -18.740  -1.469   6.987  1.00  0.00     0.000 C 
HETATM   28  C14 UNL     1     -17.911  -0.182   7.099  1.00  0.00     0.000 C 
HETATM   29  C15 UNL     1     -16.955  -0.202   5.956  1.00  0.00     0.000 C 
HETATM   30  C16 UNL     1     -16.364  -1.622   5.733  1.00  0.00     0.005 C 
ENDBRANCH  24  25
ENDBRANCH   2  24
BRANCH  10  31
HETATM   31  C25 UNL     1     -17.589  -7.807   5.474  1.00  0.00     0.033 C 
BRANCH  31  32
HETATM   32  C26 UNL     1     -18.839  -7.265   4.719  1.00  0.00     0.002 C 
BRANCH  32  33
HETATM   33  C27 UNL     1     -18.443  -6.880   3.313  1.00  0.00     0.000 C 
BRANCH  33  34
HETATM   34  C28 UNL     1     -19.030  -5.589   2.850  1.00  0.00     0.004 C 
BRANCH  34  35
HETATM   35  C29 UNL     1     -18.120  -5.000   1.790  1.00  0.00    -0.014 C 
HETATM   36  C30 UNL     1     -18.815  -4.713   0.500  1.00  0.00     0.004 C 
HETATM   37  C31 UNL     1     -18.313  -3.432  -0.129  1.00  0.00     0.000 C 
HETATM   38  C32 UNL     1     -16.837  -3.212   0.096  1.00  0.00     0.000 C 
HETATM   39  C33 UNL     1     -16.034  -4.462  -0.143  1.00  0.00     0.000 C 
HETATM   40  C34 UNL     1     -15.770  -5.128   1.203  1.00  0.00     0.000 C 
HETATM   41  C35 UNL     1     -16.980  -5.967   1.522  1.00  0.00     0.004 C 
ENDBRANCH  34  35
ENDBRANCH  33  34
ENDBRANCH  32  33
ENDBRANCH  31  32
ENDBRANCH  10  31
BRANCH   7  42
HETATM   42  C19 UNL     1     -16.612  -6.872  10.277  1.00  0.00     0.034 C 
BRANCH  42  43
HETATM   43  C20 UNL     1     -16.121  -5.683  11.034  1.00  0.00     0.022 C 
BRANCH  43  44
HETATM   44  C21 UNL     1     -14.606  -5.648  11.129  1.00  0.00     0.122 C 
BRANCH  44  45
HETATM   45  N4  UNL     1     -14.004  -6.548  10.199  1.00  0.00    -0.367 N 
HETATM   46  C22 UNL     1     -13.342  -6.224   9.155  1.00  0.00     0.196 C 
HETATM   47  N5  UNL     1     -13.096  -4.881   8.745  1.00  0.00    -0.067 NA
HETATM   48  N6  UNL     1     -12.824  -7.299   8.355  1.00  0.00    -0.067 NA
ATOM     49  H4  UNL     1     -14.112  -7.545  10.386  1.00  0.00     0.161 HD
ENDBRANCH  44  45
ENDBRANCH  43  44
ENDBRANCH  42  43
ENDBRANCH   7  42
TORSDOF 16
ENDMDL
MODEL 4
REMARK VINA RESULT: -7.039464460      2.834      7.286
REMARK  16 active torsions:
REMARK  status: ('A' for Active; 'I' for Inactive)
REMARK       I    between atoms: C2_2  and  N1_4 
REMARK    1  A    between atoms: N1_4  and  C3_6 
REMARK    2  A    between atoms: C3_6  and  C4_7 
REMARK    3  A    between atoms: C4_7  and  C5_8 
REMARK    4  A    between atoms: C8_11  and  O2_12 
REMARK    5  A    between atoms: C8_11  and  N2_14 
REMARK    6  A    between atoms: C9_15  and  C10_16 
REMARK    7  A    between atoms: C10_16  and  C11_17 
REMARK    8  A    between atoms: C18_27  and  C19_28 
REMARK    9  A    between atoms: C19_28  and  C20_29 
REMARK   10  A    between atoms: C20_29  and  C21_30 
REMARK   11  A    between atoms: C21_30  and  N4_31 
REMARK   12  A    between atoms: C24_38  and  C25_39 
REMARK   13  A    between atoms: C25_39  and  C26_40 
REMARK   14  A    between atoms: C26_40  and  C27_41 
REMARK   15  A    between atoms: C27_41  and  C28_42 
REMARK   16  A    between atoms: C28_42  and  C29_43 
ROOT
HETATM    1  N2  UNL     1     -16.016  -5.363   6.262  1.00  0.00    -0.335 N 
HETATM    2  C9  UNL     1     -15.824  -4.015   6.884  1.00  0.00     0.179 C 
HETATM    3  C17 UNL     1     -16.170  -4.104   8.318  1.00  0.00     0.241 C 
HETATM    4  O3  UNL     1     -15.395  -3.380   9.049  1.00  0.00    -0.271 OA
HETATM    5  N3  UNL     1     -17.129  -4.786   9.061  1.00  0.00    -0.348 N 
ATOM      6  H3  UNL     1     -17.635  -4.224   9.745  1.00  0.00     0.163 HD
HETATM    7  C18 UNL     1     -17.511  -6.192   8.998  1.00  0.00     0.156 C 
HETATM    8  C23 UNL     1     -17.254  -6.772   7.691  1.00  0.00     0.172 C 
HETATM    9  O4  UNL     1     -16.959  -7.927   7.513  1.00  0.00    -0.293 OA
HETATM   10  C24 UNL     1     -17.332  -5.976   6.413  1.00  0.00     0.159 C 
ENDROOT
BRANCH   1  11
HETATM   11  C8  UNL     1     -15.007  -5.970   5.555  1.00  0.00     0.166 C 
HETATM   12  C3  UNL     1     -14.690  -6.793   4.442  1.00  0.00     0.082 C 
BRANCH  12  13
HETATM   13  N1  UNL     1     -13.608  -6.130   3.631  1.00  0.00    -0.324 N 
HETATM   14  C2  UNL     1     -12.373  -6.727   3.362  1.00  0.00     0.218 C 
HETATM   15  C1  UNL     1     -11.372  -5.991   2.551  1.00  0.00     0.117 C 
HETATM   16  O1  UNL     1     -12.037  -7.874   3.768  1.00  0.00    -0.274 OA
ATOM     17  H1  UNL     1     -13.786  -5.198   3.257  1.00  0.00     0.169 HD
ENDBRANCH  12  13
BRANCH  12  18
HETATM   18  C4  UNL     1     -15.537  -7.522   3.512  1.00  0.00     0.011 C 
BRANCH  18  19
HETATM   19  C5  UNL     1     -15.422  -8.970   3.276  1.00  0.00     0.002 C 
HETATM   20  C6  UNL     1     -16.779  -9.484   2.807  1.00  0.00     0.013 C 
HETATM   21  C7  UNL     1     -15.300  -9.601   4.706  1.00  0.00     0.013 C 
ENDBRANCH  18  19
ENDBRANCH  12  18
BRANCH  11  22
HETATM   22  O2  UNL     1     -13.809  -5.667   6.151  1.00  0.00    -0.344 OA
ATOM     23  H2  UNL     1     -13.834  -4.734   6.329  1.00  0.00     0.219 HD
ENDBRANCH  11  22
ENDBRANCH   1  11
BRANCH   2  24
HETATM   24  C10 UNL     1     -16.723  -3.089   6.161  1.00  0.00     0.040 C 
BRANCH  24  25
HETATM   25  C11 UNL     1     -17.053  -1.761   6.721  1.00  0.00    -0.012 C 
HETATM   26  C12 UNL     1     -16.340  -0.742   5.793  1.00  0.00     0.005 C 
HETATM   27  C13 UNL     1     -17.109  -0.523   4.520  1.00  0.00     0.000 C 
HETATM   28  C14 UNL     1     -18.333   0.351   4.828  1.00  0.00     0.000 C 
HETATM   29  C15 UNL     1     -18.639   0.143   6.272  1.00  0.00     0.000 C 
HETATM   30  C16 UNL     1     -18.491  -1.350   6.675  1.00  0.00     0.005 C 
ENDBRANCH  24  25
ENDBRANCH   2  24
BRANCH  10  31
HETATM   31  C25 UNL     1     -17.923  -6.685   5.271  1.00  0.00     0.033 C 
BRANCH  31  32
HETATM   32  C26 UNL     1     -18.494  -5.584   4.330  1.00  0.00     0.002 C 
BRANCH  32  33
HETATM   33  C27 UNL     1     -19.527  -6.199   3.415  1.00  0.00     0.000 C 
BRANCH  33  34
HETATM   34  C28 UNL     1     -18.995  -6.587   2.076  1.00  0.00     0.004 C 
BRANCH  34  35
HETATM   35  C29 UNL     1     -18.311  -5.380   1.463  1.00  0.00    -0.014 C 
HETATM   36  C30 UNL     1     -19.071  -4.776   0.329  1.00  0.00     0.004 C 
HETATM   37  C31 UNL     1     -18.980  -3.266   0.340  1.00  0.00     0.000 C 
HETATM   38  C32 UNL     1     -17.636  -2.767   0.808  1.00  0.00     0.000 C 
HETATM   39  C33 UNL     1     -16.497  -3.525   0.180  1.00  0.00     0.000 C 
HETATM   40  C34 UNL     1     -16.035  -4.598   1.160  1.00  0.00     0.000 C 
HETATM   41  C35 UNL     1     -16.937  -5.789   0.964  1.00  0.00     0.004 C 
ENDBRANCH  34  35
ENDBRANCH  33  34
ENDBRANCH  32  33
ENDBRANCH  31  32
ENDBRANCH  10  31
BRANCH   7  42
HETATM   42  C19 UNL     1     -16.873  -6.888  10.145  1.00  0.00     0.034 C 
BRANCH  42  43
HETATM   43  C20 UNL     1     -16.221  -6.010  11.162  1.00  0.00     0.022 C 
BRANCH  43  44
HETATM   44  C21 UNL     1     -14.766  -6.380  11.391  1.00  0.00     0.122 C 
BRANCH  44  45
HETATM   45  N4  UNL     1     -13.896  -5.627  10.548  1.00  0.00    -0.367 N 
HETATM   46  C22 UNL     1     -13.390  -6.018   9.441  1.00  0.00     0.196 C 
HETATM   47  N5  UNL     1     -13.622  -7.299   8.862  1.00  0.00    -0.067 NA
HETATM   48  N6  UNL     1     -12.534  -5.091   8.755  1.00  0.00    -0.067 NA
ATOM     49  H4  UNL     1     -13.654  -4.686  10.858  1.00  0.00     0.161 HD
ENDBRANCH  44  45
ENDBRANCH  43  44
ENDBRANCH  42  43
ENDBRANCH   7  42
TORSDOF 16
ENDMDL
MODEL 5
REMARK VINA RESULT: -6.912461540     11.486     15.306
REMARK  16 active torsions:
REMARK  status: ('A' for Active; 'I' for Inactive)
REMARK       I    between atoms: C2_2  and  N1_4 
REMARK    1  A    between atoms: N1_4  and  C3_6 
REMARK    2  A    between atoms: C3_6  and  C4_7 
REMARK    3  A    between atoms: C4_7  and  C5_8 
REMARK    4  A    between atoms: C8_11  and  O2_12 
REMARK    5  A    between atoms: C8_11  and  N2_14 
REMARK    6  A    between atoms: C9_15  and  C10_16 
REMARK    7  A    between atoms: C10_16  and  C11_17 
REMARK    8  A    between atoms: C18_27  and  C19_28 
REMARK    9  A    between atoms: C19_28  and  C20_29 
REMARK   10  A    between atoms: C20_29  and  C21_30 
REMARK   11  A    between atoms: C21_30  and  N4_31 
REMARK   12  A    between atoms: C24_38  and  C25_39 
REMARK   13  A    between atoms: C25_39  and  C26_40 
REMARK   14  A    between atoms: C26_40  and  C27_41 
REMARK   15  A    between atoms: C27_41  and  C28_42 
REMARK   16  A    between atoms: C28_42  and  C29_43 
ROOT
HETATM    1  N2  UNL     1     -16.074   5.821  -6.740  1.00  0.00    -0.335 N 
HETATM    2  C9  UNL     1     -15.968   4.410  -7.228  1.00  0.00     0.179 C 
HETATM    3  C17 UNL     1     -16.220   4.394  -8.685  1.00  0.00     0.241 C 
HETATM    4  O3  UNL     1     -15.472   3.543  -9.296  1.00  0.00    -0.271 OA
HETATM    5  N3  UNL     1     -17.068   5.082  -9.546  1.00  0.00    -0.348 N 
ATOM      6  H3  UNL     1     -17.582   4.504 -10.211  1.00  0.00     0.163 HD
HETATM    7  C18 UNL     1     -17.326   6.515  -9.632  1.00  0.00     0.156 C 
HETATM    8  C23 UNL     1     -17.094   7.191  -8.367  1.00  0.00     0.172 C 
HETATM    9  O4  UNL     1     -16.707   8.329  -8.271  1.00  0.00    -0.293 OA
HETATM   10  C24 UNL     1     -17.318   6.526  -7.032  1.00  0.00     0.159 C 
ENDROOT
BRANCH   1  11
HETATM   11  C8  UNL     1     -15.057   6.404  -6.024  1.00  0.00     0.166 C 
HETATM   12  C3  UNL     1     -14.722   7.137  -4.855  1.00  0.00     0.082 C 
BRANCH  12  13
HETATM   13  N1  UNL     1     -13.580   6.450  -4.153  1.00  0.00    -0.324 N 
HETATM   14  C2  UNL     1     -12.363   7.075  -3.871  1.00  0.00     0.218 C 
HETATM   15  C1  UNL     1     -11.299   6.311  -3.172  1.00  0.00     0.117 C 
HETATM   16  O1  UNL     1     -12.093   8.270  -4.172  1.00  0.00    -0.274 OA
ATOM     17  H1  UNL     1     -13.703   5.478  -3.868  1.00  0.00     0.169 HD
ENDBRANCH  12  13
BRANCH  12  18
HETATM   18  C4  UNL     1     -15.552   7.745  -3.829  1.00  0.00     0.011 C 
BRANCH  18  19
HETATM   19  C5  UNL     1     -15.568   9.189  -3.549  1.00  0.00     0.002 C 
HETATM   20  C6  UNL     1     -17.004   9.598  -3.240  1.00  0.00     0.013 C 
HETATM   21  C7  UNL     1     -15.317   9.870  -4.938  1.00  0.00     0.013 C 
ENDBRANCH  18  19
ENDBRANCH  12  18
BRANCH  11  22
HETATM   22  O2  UNL     1     -13.877   6.205  -6.694  1.00  0.00    -0.344 OA
ATOM     23  H2  UNL     1     -14.039   5.492  -7.301  1.00  0.00     0.219 HD
ENDBRANCH  11  22
ENDBRANCH   1  11
BRANCH   2  24
HETATM   24  C10 UNL     1     -16.988   3.635  -6.488  1.00  0.00     0.040 C 
BRANCH  24  25
HETATM   25  C11 UNL     1     -17.399   2.291  -6.948  1.00  0.00    -0.012 C 
HETATM   26  C12 UNL     1     -16.244   1.346  -6.524  1.00  0.00     0.005 C 
HETATM   27  C13 UNL     1     -16.325   0.997  -5.064  1.00  0.00     0.000 C 
HETATM   28  C14 UNL     1     -17.459  -0.017  -4.862  1.00  0.00     0.000 C 
HETATM   29  C15 UNL     1     -18.407   0.189  -5.994  1.00  0.00     0.000 C 
HETATM   30  C16 UNL     1     -18.611   1.699  -6.297  1.00  0.00     0.005 C 
ENDBRANCH  24  25
ENDBRANCH   2  24
BRANCH  10  31
HETATM   31  C25 UNL     1     -17.909   7.386  -5.998  1.00  0.00     0.033 C 
BRANCH  31  32
HETATM   32  C26 UNL     1     -19.206   6.664  -5.528  1.00  0.00     0.002 C 
BRANCH  32  33
HETATM   33  C27 UNL     1     -18.843   5.598  -4.520  1.00  0.00     0.000 C 
BRANCH  33  34
HETATM   34  C28 UNL     1     -18.798   6.088  -3.111  1.00  0.00     0.004 C 
BRANCH  34  35
HETATM   35  C29 UNL     1     -18.163   5.014  -2.249  1.00  0.00    -0.014 C 
HETATM   36  C30 UNL     1     -16.868   5.430  -1.635  1.00  0.00     0.004 C 
HETATM   37  C31 UNL     1     -16.724   4.897  -0.226  1.00  0.00     0.000 C 
HETATM   38  C32 UNL     1     -17.329   3.525  -0.058  1.00  0.00     0.000 C 
HETATM   39  C33 UNL     1     -16.966   2.601  -1.189  1.00  0.00     0.000 C 
HETATM   40  C34 UNL     1     -18.118   2.589  -2.188  1.00  0.00     0.000 C 
HETATM   41  C35 UNL     1     -17.923   3.777  -3.095  1.00  0.00     0.004 C 
ENDBRANCH  34  35
ENDBRANCH  33  34
ENDBRANCH  32  33
ENDBRANCH  31  32
ENDBRANCH  10  31
BRANCH   7  42
HETATM   42  C19 UNL     1     -16.561   7.045 -10.790  1.00  0.00     0.034 C 
BRANCH  42  43
HETATM   43  C20 UNL     1     -15.963   6.025 -11.702  1.00  0.00     0.022 C 
BRANCH  43  44
HETATM   44  C21 UNL     1     -14.479   6.255 -11.927  1.00  0.00     0.122 C 
BRANCH  44  45
HETATM   45  N4  UNL     1     -13.689   5.537 -10.981  1.00  0.00    -0.367 N 
HETATM   46  C22 UNL     1     -13.151   6.018  -9.925  1.00  0.00     0.196 C 
HETATM   47  N5  UNL     1     -13.259   7.380  -9.519  1.00  0.00    -0.067 NA
HETATM   48  N6  UNL     1     -12.391   5.110  -9.112  1.00  0.00    -0.067 NA
ATOM     49  H4  UNL     1     -13.539   4.545 -11.163  1.00  0.00     0.161 HD
ENDBRANCH  44  45
ENDBRANCH  43  44
ENDBRANCH  42  43
ENDBRANCH   7  42
TORSDOF 16
ENDMDL
