MODEL 1
REMARK VINA RESULT: -9.112692159      0.000      0.000
REMARK  15 active torsions:
REMARK  status: ('A' for Active; 'I' for Inactive)
REMARK    1  A    between atoms: C2_2  and  C3_3 
REMARK    2  A    between atoms: C3_3  and  C4_4 
REMARK    3  A    between atoms: C4_4  and  N1_5 
REMARK       I    between atoms: N1_5  and  C5_7 
REMARK    4  A    between atoms: C5_7  and  C6_9 
REMARK    5  A    between atoms: C6_9  and  C7_10 
REMARK    6  A    between atoms: C7_10  and  C8_11 
REMARK    7  A    between atoms: C8_11  and  C9_12 
REMARK    8  A    between atoms: C9_12  and  C10_13 
REMARK    9  A    between atoms: C10_13  and  C11_14 
REMARK   10  A    between atoms: C11_14  and  C12_15 
REMARK   11  A    between atoms: C12_15  and  N2_16 
REMARK       I    between atoms: N2_16  and  C13_18 
REMARK       I    between atoms: C13_18  and  N3_20 
REMARK   12  A    between atoms: C16_23  and  N4_24 
REMARK       I    between atoms: N4_24  and  C17_26 
REMARK   13  A    between atoms: C17_26  and  C18_28 
REMARK   14  A    between atoms: C21_31  and  C22_32 
REMARK   15  A    between atoms: C22_32  and  N5_33 
ROOT
HETATM    1  N2  UNL     1     -12.041  12.588   4.592  1.00  0.00    -0.343 N 
ATOM      2  H2  UNL     1     -11.371  11.947   4.166  1.00  0.00     0.164 HD
HETATM    3  C13 UNL     1     -12.887  13.355   3.762  1.00  0.00     0.325 C 
HETATM    4  O2  UNL     1     -13.745  14.155   4.247  1.00  0.00    -0.247 OA
HETATM    5  N3  UNL     1     -12.765  13.227   2.337  1.00  0.00    -0.270 N 
HETATM    6  C14 UNL     1     -11.783  12.322   1.771  1.00  0.00     0.139 C 
HETATM    7  C15 UNL     1     -11.373  12.794   0.385  1.00  0.00     0.046 C 
HETATM    8  C16 UNL     1     -11.555  14.305   0.300  1.00  0.00     0.095 C 
HETATM    9  C35 UNL     1     -13.005  14.657   0.277  1.00  0.00     0.128 C 
HETATM   10  C36 UNL     1     -13.606  13.977   1.481  1.00  0.00     0.229 C 
HETATM   11  O4  UNL     1     -14.838  14.055   1.752  1.00  0.00    -0.273 OA
ENDROOT
BRANCH   8  12
HETATM   12  N4  UNL     1     -10.807  14.810  -0.791  1.00  0.00    -0.352 N 
HETATM   13  C17 UNL     1      -9.449  14.416  -0.938  1.00  0.00     0.252 C 
HETATM   14  O3  UNL     1      -8.964  13.640  -0.081  1.00  0.00    -0.268 OA
ATOM     15  H4  UNL     1     -11.237  15.447  -1.462  1.00  0.00     0.163 HD
BRANCH  13  16
HETATM   16  C18 UNL     1      -8.673  14.909  -2.062  1.00  0.00     0.032 A 
HETATM   17  C19 UNL     1      -8.682  16.290  -2.268  1.00  0.00     0.017 A 
HETATM   18  C20 UNL     1      -7.978  16.822  -3.313  1.00  0.00     0.011 A 
HETATM   19  C21 UNL     1      -7.252  15.987  -4.171  1.00  0.00    -0.020 A 
HETATM   20  C33 UNL     1      -7.235  14.644  -3.984  1.00  0.00     0.011 A 
HETATM   21  C34 UNL     1      -7.947  14.123  -2.930  1.00  0.00     0.017 A 
BRANCH  19  22
HETATM   22  C22 UNL     1      -6.504  16.722  -5.273  1.00  0.00     0.186 C 
HETATM   23  C27 UNL     1      -7.603  17.420  -6.031  1.00  0.00     0.047 C 
HETATM   24  C28 UNL     1      -7.508  17.322  -7.516  1.00  0.00     0.003 C 
HETATM   25  C29 UNL     1      -7.474  15.925  -8.051  1.00  0.00     0.000 C 
HETATM   26  C30 UNL     1      -6.058  15.640  -8.447  1.00  0.00     0.000 C 
HETATM   27  C31 UNL     1      -5.152  16.078  -7.317  1.00  0.00     0.003 C 
HETATM   28  C32 UNL     1      -5.741  15.715  -6.013  1.00  0.00     0.047 C 
BRANCH  22  29
HETATM   29  N5  UNL     1      -5.775  17.713  -4.547  1.00  0.00     0.106 N 
HETATM   30  C23 UNL     1      -5.568  18.977  -5.181  1.00  0.00     0.301 C 
HETATM   31  C24 UNL     1      -5.310  19.970  -4.034  1.00  0.00     0.262 C 
HETATM   32  N6  UNL     1      -5.277  19.301  -2.747  1.00  0.00    -0.072 N 
HETATM   33  C25 UNL     1      -4.375  18.186  -2.705  1.00  0.00     0.262 C 
ATOM     34  H62 UNL     1      -5.067  19.963  -2.000  1.00  0.00     0.277 HD
ATOM     35  H61 UNL     1      -6.215  19.017  -2.463  1.00  0.00     0.277 HD
HETATM   36  C26 UNL     1      -4.546  17.309  -3.943  1.00  0.00     0.301 C 
ENDBRANCH  22  29
ENDBRANCH  19  22
ENDBRANCH  13  16
ENDBRANCH   8  12
BRANCH   1  37
HETATM   37  C12 UNL     1     -12.103  12.689   6.013  1.00  0.00     0.124 C 
BRANCH  37  38
HETATM   38  C11 UNL     1     -10.931  13.378   6.634  1.00  0.00     0.020 C 
BRANCH  38  39
HETATM   39  C10 UNL     1     -11.296  14.619   7.382  1.00  0.00     0.002 C 
BRANCH  39  40
HETATM   40  C9  UNL     1     -10.379  15.796   7.082  1.00  0.00     0.000 C 
BRANCH  40  41
HETATM   41  C8  UNL     1      -9.027  15.598   7.709  1.00  0.00     0.000 C 
BRANCH  41  42
HETATM   42  C7  UNL     1      -7.910  15.834   6.740  1.00  0.00     0.009 C 
BRANCH  42  43
HETATM   43  C6  UNL     1      -8.234  16.896   5.745  1.00  0.00     0.103 C 
BRANCH  43  44
HETATM   44  C5  UNL     1      -8.392  16.239   4.364  1.00  0.00     0.221 C 
HETATM   45  N1  UNL     1      -8.632  17.080   3.286  1.00  0.00    -0.337 N 
ATOM     46  H1  UNL     1      -8.683  18.065   3.548  1.00  0.00     0.168 HD
HETATM   47  O1  UNL     1      -8.291  15.000   4.301  1.00  0.00    -0.273 OA
BRANCH  45  48
HETATM   48  C4  UNL     1      -8.820  16.863   1.911  1.00  0.00     0.087 C 
BRANCH  48  49
HETATM   49  C3  UNL     1      -7.717  16.877   0.951  1.00  0.00    -0.010 C 
BRANCH  49  50
HETATM   50  C2  UNL     1      -6.618  15.904   1.003  1.00  0.00     0.024 C 
HETATM   51  C1  UNL     1      -5.612  16.069  -0.139  1.00  0.00     0.009 C 
ENDBRANCH  49  50
ENDBRANCH  48  49
ENDBRANCH  45  48
ENDBRANCH  43  44
ENDBRANCH  42  43
ENDBRANCH  41  42
ENDBRANCH  40  41
ENDBRANCH  39  40
ENDBRANCH  38  39
ENDBRANCH  37  38
ENDBRANCH   1  37
TORSDOF 15
ENDMDL
MODEL 2
REMARK VINA RESULT: -9.095566346      2.063      4.405
REMARK  15 active torsions:
REMARK  status: ('A' for Active; 'I' for Inactive)
REMARK    1  A    between atoms: C2_2  and  C3_3 
REMARK    2  A    between atoms: C3_3  and  C4_4 
REMARK    3  A    between atoms: C4_4  and  N1_5 
REMARK       I    between atoms: N1_5  and  C5_7 
REMARK    4  A    between atoms: C5_7  and  C6_9 
REMARK    5  A    between atoms: C6_9  and  C7_10 
REMARK    6  A    between atoms: C7_10  and  C8_11 
REMARK    7  A    between atoms: C8_11  and  C9_12 
REMARK    8  A    between atoms: C9_12  and  C10_13 
REMARK    9  A    between atoms: C10_13  and  C11_14 
REMARK   10  A    between atoms: C11_14  and  C12_15 
REMARK   11  A    between atoms: C12_15  and  N2_16 
REMARK       I    between atoms: N2_16  and  C13_18 
REMARK       I    between atoms: C13_18  and  N3_20 
REMARK   12  A    between atoms: C16_23  and  N4_24 
REMARK       I    between atoms: N4_24  and  C17_26 
REMARK   13  A    between atoms: C17_26  and  C18_28 
REMARK   14  A    between atoms: C21_31  and  C22_32 
REMARK   15  A    between atoms: C22_32  and  N5_33 
ROOT
HETATM    1  N2  UNL     1     -13.273   9.931   5.208  1.00  0.00    -0.343 N 
ATOM      2  H2  UNL     1     -12.773   9.415   4.485  1.00  0.00     0.164 HD
HETATM    3  C13 UNL     1     -13.882  11.163   4.882  1.00  0.00     0.325 C 
HETATM    4  O2  UNL     1     -14.528  11.834   5.745  1.00  0.00    -0.247 OA
HETATM    5  N3  UNL     1     -13.759  11.665   3.543  1.00  0.00    -0.270 N 
HETATM    6  C14 UNL     1     -13.018  10.911   2.550  1.00  0.00     0.139 C 
HETATM    7  C15 UNL     1     -12.470  11.846   1.483  1.00  0.00     0.046 C 
HETATM    8  C16 UNL     1     -12.270  13.230   2.091  1.00  0.00     0.095 C 
HETATM    9  C35 UNL     1     -13.587  13.880   2.356  1.00  0.00     0.128 C 
HETATM   10  C36 UNL     1     -14.367  12.892   3.184  1.00  0.00     0.229 C 
HETATM   11  O4  UNL     1     -15.548  13.123   3.571  1.00  0.00    -0.273 OA
ENDROOT
BRANCH   8  12
HETATM   12  N4  UNL     1     -11.393  13.982   1.273  1.00  0.00    -0.352 N 
HETATM   13  C17 UNL     1     -10.067  14.226   1.724  1.00  0.00     0.252 C 
HETATM   14  O3  UNL     1      -9.730  13.770   2.842  1.00  0.00    -0.268 OA
ATOM     15  H4  UNL     1     -11.709  14.344   0.373  1.00  0.00     0.163 HD
BRANCH  13  16
HETATM   16  C18 UNL     1      -9.148  14.979   0.888  1.00  0.00     0.032 A 
HETATM   17  C19 UNL     1      -7.793  14.672   1.021  1.00  0.00     0.017 A 
HETATM   18  C20 UNL     1      -6.870  15.347   0.269  1.00  0.00     0.011 A 
HETATM   19  C21 UNL     1      -7.283  16.340  -0.628  1.00  0.00    -0.020 A 
HETATM   20  C33 UNL     1      -8.596  16.649  -0.766  1.00  0.00     0.011 A 
HETATM   21  C34 UNL     1      -9.512  15.963  -0.005  1.00  0.00     0.017 A 
BRANCH  19  22
HETATM   22  C22 UNL     1      -6.149  16.989  -1.408  1.00  0.00     0.186 C 
HETATM   23  C27 UNL     1      -4.997  16.042  -1.194  1.00  0.00     0.047 C 
HETATM   24  C28 UNL     1      -3.697  16.693  -0.859  1.00  0.00     0.003 C 
HETATM   25  C29 UNL     1      -3.730  17.571   0.353  1.00  0.00     0.000 C 
HETATM   26  C30 UNL     1      -3.738  18.989  -0.130  1.00  0.00     0.000 C 
HETATM   27  C31 UNL     1      -4.777  19.110  -1.224  1.00  0.00     0.003 C 
HETATM   28  C32 UNL     1      -5.988  18.343  -0.875  1.00  0.00     0.047 C 
BRANCH  22  29
HETATM   29  N5  UNL     1      -6.583  16.851  -2.761  1.00  0.00     0.106 N 
HETATM   30  C23 UNL     1      -6.817  15.527  -3.249  1.00  0.00     0.301 C 
HETATM   31  C24 UNL     1      -7.779  15.697  -4.439  1.00  0.00     0.262 C 
HETATM   32  N6  UNL     1      -8.046  17.096  -4.713  1.00  0.00    -0.072 N 
HETATM   33  C25 UNL     1      -6.858  17.886  -4.866  1.00  0.00     0.262 C 
ATOM     34  H62 UNL     1      -8.653  17.195  -5.527  1.00  0.00     0.277 HD
ATOM     35  H61 UNL     1      -8.655  17.494  -3.998  1.00  0.00     0.277 HD
HETATM   36  C26 UNL     1      -5.857  17.572  -3.758  1.00  0.00     0.301 C 
ENDBRANCH  22  29
ENDBRANCH  19  22
ENDBRANCH  13  16
ENDBRANCH   8  12
BRANCH   1  37
HETATM   37  C12 UNL     1     -13.344   9.394   6.527  1.00  0.00     0.124 C 
BRANCH  37  38
HETATM   38  C11 UNL     1     -12.068   9.484   7.299  1.00  0.00     0.020 C 
BRANCH  38  39
HETATM   39  C10 UNL     1     -12.127  10.446   8.442  1.00  0.00     0.002 C 
BRANCH  39  40
HETATM   40  C9  UNL     1     -10.930  11.383   8.505  1.00  0.00     0.000 C 
BRANCH  40  41
HETATM   41  C8  UNL     1     -11.310  12.770   8.070  1.00  0.00     0.000 C 
BRANCH  41  42
HETATM   42  C7  UNL     1     -11.149  12.968   6.595  1.00  0.00     0.009 C 
BRANCH  42  43
HETATM   43  C6  UNL     1     -11.830  14.201   6.107  1.00  0.00     0.103 C 
BRANCH  43  44
HETATM   44  C5  UNL     1     -10.829  15.367   6.172  1.00  0.00     0.221 C 
HETATM   45  N1  UNL     1      -9.919  15.479   5.129  1.00  0.00    -0.337 N 
ATOM     46  H1  UNL     1     -10.022  14.747   4.426  1.00  0.00     0.168 HD
HETATM   47  O1  UNL     1     -10.902  16.134   7.149  1.00  0.00    -0.273 OA
BRANCH  45  48
HETATM   48  C4  UNL     1      -8.887  16.386   4.838  1.00  0.00     0.087 C 
BRANCH  48  49
HETATM   49  C3  UNL     1      -7.841  16.728   5.801  1.00  0.00    -0.010 C 
BRANCH  49  50
HETATM   50  C2  UNL     1      -7.327  15.761   6.779  1.00  0.00     0.024 C 
HETATM   51  C1  UNL     1      -7.598  16.168   8.230  1.00  0.00     0.009 C 
ENDBRANCH  49  50
ENDBRANCH  48  49
ENDBRANCH  45  48
ENDBRANCH  43  44
ENDBRANCH  42  43
ENDBRANCH  41  42
ENDBRANCH  40  41
ENDBRANCH  39  40
ENDBRANCH  38  39
ENDBRANCH  37  38
ENDBRANCH   1  37
TORSDOF 15
ENDMDL
MODEL 3
REMARK VINA RESULT: -8.994755934      3.298     10.196
REMARK  15 active torsions:
REMARK  status: ('A' for Active; 'I' for Inactive)
REMARK    1  A    between atoms: C2_2  and  C3_3 
REMARK    2  A    between atoms: C3_3  and  C4_4 
REMARK    3  A    between atoms: C4_4  and  N1_5 
REMARK       I    between atoms: N1_5  and  C5_7 
REMARK    4  A    between atoms: C5_7  and  C6_9 
REMARK    5  A    between atoms: C6_9  and  C7_10 
REMARK    6  A    between atoms: C7_10  and  C8_11 
REMARK    7  A    between atoms: C8_11  and  C9_12 
REMARK    8  A    between atoms: C9_12  and  C10_13 
REMARK    9  A    between atoms: C10_13  and  C11_14 
REMARK   10  A    between atoms: C11_14  and  C12_15 
REMARK   11  A    between atoms: C12_15  and  N2_16 
REMARK       I    between atoms: N2_16  and  C13_18 
REMARK       I    between atoms: C13_18  and  N3_20 
REMARK   12  A    between atoms: C16_23  and  N4_24 
REMARK       I    between atoms: N4_24  and  C17_26 
REMARK   13  A    between atoms: C17_26  and  C18_28 
REMARK   14  A    between atoms: C21_31  and  C22_32 
REMARK   15  A    between atoms: C22_32  and  N5_33 
ROOT
HETATM    1  N2  UNL     1      -2.001  17.174  -6.386  1.00  0.00    -0.343 N 
ATOM      2  H2  UNL     1      -1.971  17.768  -5.558  1.00  0.00     0.164 HD
HETATM    3  C13 UNL     1      -3.242  16.913  -7.006  1.00  0.00     0.325 C 
HETATM    4  O2  UNL     1      -3.326  16.191  -8.047  1.00  0.00    -0.247 OA
HETATM    5  N3  UNL     1      -4.434  17.477  -6.439  1.00  0.00    -0.270 N 
HETATM    6  C14 UNL     1      -4.352  18.299  -5.247  1.00  0.00     0.139 C 
HETATM    7  C15 UNL     1      -5.663  18.239  -4.478  1.00  0.00     0.046 C 
HETATM    8  C16 UNL     1      -6.352  16.912  -4.773  1.00  0.00     0.095 C 
HETATM    9  C35 UNL     1      -6.869  16.891  -6.173  1.00  0.00     0.128 C 
HETATM   10  C36 UNL     1      -5.691  17.241  -7.045  1.00  0.00     0.229 C 
HETATM   11  O4  UNL     1      -5.788  17.331  -8.302  1.00  0.00    -0.273 OA
ENDROOT
BRANCH   8  12
HETATM   12  N4  UNL     1      -7.327  16.656  -3.779  1.00  0.00    -0.352 N 
HETATM   13  C17 UNL     1      -7.721  15.313  -3.529  1.00  0.00     0.252 C 
HETATM   14  O3  UNL     1      -7.191  14.405  -4.212  1.00  0.00    -0.268 OA
ATOM     15  H4  UNL     1      -7.741  17.424  -3.250  1.00  0.00     0.163 HD
BRANCH  13  16
HETATM   16  C18 UNL     1      -8.705  15.030  -2.499  1.00  0.00     0.032 A 
HETATM   17  C19 UNL     1      -8.302  14.174  -1.472  1.00  0.00     0.017 A 
HETATM   18  C20 UNL     1      -9.181  13.859  -0.471  1.00  0.00     0.011 A 
HETATM   19  C21 UNL     1     -10.477  14.391  -0.478  1.00  0.00    -0.020 A 
HETATM   20  C33 UNL     1     -10.881  15.222  -1.470  1.00  0.00     0.011 A 
HETATM   21  C34 UNL     1      -9.988  15.531  -2.468  1.00  0.00     0.017 A 
BRANCH  19  22
HETATM   22  C22 UNL     1     -11.332  13.967   0.706  1.00  0.00     0.186 C 
HETATM   23  C27 UNL     1     -11.286  12.463   0.646  1.00  0.00     0.047 C 
HETATM   24  C28 UNL     1     -12.600  11.782   0.835  1.00  0.00     0.003 C 
HETATM   25  C29 UNL     1     -13.664  12.193  -0.134  1.00  0.00     0.000 C 
HETATM   26  C30 UNL     1     -14.601  13.102   0.600  1.00  0.00     0.000 C 
HETATM   27  C31 UNL     1     -13.776  14.124   1.352  1.00  0.00     0.003 C 
HETATM   28  C32 UNL     1     -12.645  14.587   0.525  1.00  0.00     0.047 C 
BRANCH  22  29
HETATM   29  N5  UNL     1     -10.545  14.384   1.823  1.00  0.00     0.106 N 
HETATM   30  C23 UNL     1     -10.650  13.621   3.027  1.00  0.00     0.301 C 
HETATM   31  C24 UNL     1      -9.349  13.902   3.801  1.00  0.00     0.262 C 
HETATM   32  N6  UNL     1      -8.523  14.879   3.118  1.00  0.00    -0.072 N 
HETATM   33  C25 UNL     1      -9.222  16.087   2.786  1.00  0.00     0.262 C 
ATOM     34  H62 UNL     1      -7.684  15.086   3.660  1.00  0.00     0.277 HD
ATOM     35  H61 UNL     1      -8.092  14.471   2.288  1.00  0.00     0.277 HD
HETATM   36  C26 UNL     1     -10.581  15.770   2.168  1.00  0.00     0.301 C 
ENDBRANCH  22  29
ENDBRANCH  19  22
ENDBRANCH  13  16
ENDBRANCH   8  12
BRANCH   1  37
HETATM   37  C12 UNL     1      -0.787  16.623  -6.892  1.00  0.00     0.124 C 
BRANCH  37  38
HETATM   38  C11 UNL     1       0.356  16.659  -5.930  1.00  0.00     0.020 C 
BRANCH  38  39
HETATM   39  C10 UNL     1      -0.067  16.806  -4.504  1.00  0.00     0.002 C 
BRANCH  39  40
HETATM   40  C9  UNL     1       0.655  17.928  -3.772  1.00  0.00     0.000 C 
BRANCH  40  41
HETATM   41  C8  UNL     1      -0.302  18.719  -2.925  1.00  0.00     0.000 C 
BRANCH  41  42
HETATM   42  C7  UNL     1      -1.627  18.038  -2.776  1.00  0.00     0.009 C 
BRANCH  42  43
HETATM   43  C6  UNL     1      -2.582  18.825  -1.944  1.00  0.00     0.103 C 
BRANCH  43  44
HETATM   44  C5  UNL     1      -3.233  17.878  -0.923  1.00  0.00     0.221 C 
HETATM   45  N1  UNL     1      -4.286  17.091  -1.371  1.00  0.00    -0.337 N 
ATOM     46  H1  UNL     1      -4.514  17.246  -2.353  1.00  0.00     0.168 HD
HETATM   47  O1  UNL     1      -2.773  17.874   0.234  1.00  0.00    -0.273 OA
BRANCH  45  48
HETATM   48  C4  UNL     1      -5.105  16.129  -0.758  1.00  0.00     0.087 C 
BRANCH  48  49
HETATM   49  C3  UNL     1      -6.131  16.475   0.225  1.00  0.00    -0.010 C 
BRANCH  49  50
HETATM   50  C2  UNL     1      -7.212  17.424  -0.070  1.00  0.00     0.024 C 
HETATM   51  C1  UNL     1      -6.754  18.885  -0.046  1.00  0.00     0.009 C 
ENDBRANCH  49  50
ENDBRANCH  48  49
ENDBRANCH  45  48
ENDBRANCH  43  44
ENDBRANCH  42  43
ENDBRANCH  41  42
ENDBRANCH  40  41
ENDBRANCH  39  40
ENDBRANCH  38  39
ENDBRANCH  37  38
ENDBRANCH   1  37
TORSDOF 15
ENDMDL
MODEL 4
REMARK VINA RESULT: -8.955331108      3.094     10.878
REMARK  15 active torsions:
REMARK  status: ('A' for Active; 'I' for Inactive)
REMARK    1  A    between atoms: C2_2  and  C3_3 
REMARK    2  A    between atoms: C3_3  and  C4_4 
REMARK    3  A    between atoms: C4_4  and  N1_5 
REMARK       I    between atoms: N1_5  and  C5_7 
REMARK    4  A    between atoms: C5_7  and  C6_9 
REMARK    5  A    between atoms: C6_9  and  C7_10 
REMARK    6  A    between atoms: C7_10  and  C8_11 
REMARK    7  A    between atoms: C8_11  and  C9_12 
REMARK    8  A    between atoms: C9_12  and  C10_13 
REMARK    9  A    between atoms: C10_13  and  C11_14 
REMARK   10  A    between atoms: C11_14  and  C12_15 
REMARK   11  A    between atoms: C12_15  and  N2_16 
REMARK       I    between atoms: N2_16  and  C13_18 
REMARK       I    between atoms: C13_18  and  N3_20 
REMARK   12  A    between atoms: C16_23  and  N4_24 
REMARK       I    between atoms: N4_24  and  C17_26 
REMARK   13  A    between atoms: C17_26  and  C18_28 
REMARK   14  A    between atoms: C21_31  and  C22_32 
REMARK   15  A    between atoms: C22_32  and  N5_33 
ROOT
HETATM    1  N2  UNL     1      -2.739  17.943  -5.312  1.00  0.00    -0.343 N 
ATOM      2  H2  UNL     1      -2.573  16.973  -5.046  1.00  0.00     0.164 HD
HETATM    3  C13 UNL     1      -3.242  18.848  -4.351  1.00  0.00     0.325 C 
HETATM    4  O2  UNL     1      -3.451  20.068  -4.633  1.00  0.00    -0.247 OA
HETATM    5  N3  UNL     1      -3.525  18.369  -3.028  1.00  0.00    -0.270 N 
HETATM    6  C14 UNL     1      -3.296  16.976  -2.696  1.00  0.00     0.139 C 
HETATM    7  C15 UNL     1      -4.216  16.550  -1.562  1.00  0.00     0.046 C 
HETATM    8  C16 UNL     1      -5.472  17.412  -1.591  1.00  0.00     0.095 C 
HETATM    9  C35 UNL     1      -5.159  18.807  -1.161  1.00  0.00     0.128 C 
HETATM   10  C36 UNL     1      -4.021  19.255  -2.041  1.00  0.00     0.229 C 
HETATM   11  O4  UNL     1      -3.492  20.398  -1.928  1.00  0.00    -0.273 OA
ENDROOT
BRANCH   8  12
HETATM   12  N4  UNL     1      -6.495  16.780  -0.843  1.00  0.00    -0.352 N 
HETATM   13  C17 UNL     1      -7.808  16.719  -1.384  1.00  0.00     0.252 C 
HETATM   14  O3  UNL     1      -8.009  17.242  -2.507  1.00  0.00    -0.268 OA
ATOM     15  H4  UNL     1      -6.293  16.375   0.071  1.00  0.00     0.163 HD
BRANCH  13  16
HETATM   16  C18 UNL     1      -8.866  16.057  -0.640  1.00  0.00     0.032 A 
HETATM   17  C19 UNL     1      -8.961  14.673  -0.794  1.00  0.00     0.017 A 
HETATM   18  C20 UNL     1      -9.938  13.985  -0.127  1.00  0.00     0.011 A 
HETATM   19  C21 UNL     1     -10.837  14.666   0.704  1.00  0.00    -0.020 A 
HETATM   20  C33 UNL     1     -10.756  16.010   0.861  1.00  0.00     0.011 A 
HETATM   21  C34 UNL     1      -9.770  16.689   0.185  1.00  0.00     0.017 A 
BRANCH  19  22
HETATM   22  C22 UNL     1     -11.853  13.768   1.393  1.00  0.00     0.186 C 
HETATM   23  C27 UNL     1     -11.312  12.383   1.152  1.00  0.00     0.047 C 
HETATM   24  C28 UNL     1     -12.322  11.375   0.720  1.00  0.00     0.003 C 
HETATM   25  C29 UNL     1     -13.077  11.735  -0.521  1.00  0.00     0.000 C 
HETATM   26  C30 UNL     1     -14.442  12.177  -0.094  1.00  0.00     0.000 C 
HETATM   27  C31 UNL     1     -14.287  13.155   1.051  1.00  0.00     0.003 C 
HETATM   28  C32 UNL     1     -13.157  14.070   0.800  1.00  0.00     0.047 C 
BRANCH  22  29
HETATM   29  N5  UNL     1     -11.659  14.080   2.773  1.00  0.00     0.106 N 
HETATM   30  C23 UNL     1     -10.377  13.797   3.340  1.00  0.00     0.301 C 
HETATM   31  C24 UNL     1     -10.265  14.717   4.569  1.00  0.00     0.262 C 
HETATM   32  N6  UNL     1     -11.486  15.471   4.785  1.00  0.00    -0.072 N 
HETATM   33  C25 UNL     1     -12.663  14.652   4.833  1.00  0.00     0.262 C 
ATOM     34  H62 UNL     1     -11.413  16.046   5.623  1.00  0.00     0.277 HD
ATOM     35  H61 UNL     1     -11.586  16.205   4.083  1.00  0.00     0.277 HD
HETATM   36  C26 UNL     1     -12.661  13.639   3.691  1.00  0.00     0.301 C 
ENDBRANCH  22  29
ENDBRANCH  19  22
ENDBRANCH  13  16
ENDBRANCH   8  12
BRANCH   1  37
HETATM   37  C12 UNL     1      -2.460  18.357  -6.648  1.00  0.00     0.124 C 
BRANCH  37  38
HETATM   38  C11 UNL     1      -2.310  17.235  -7.623  1.00  0.00     0.020 C 
BRANCH  38  39
HETATM   39  C10 UNL     1      -2.902  15.948  -7.149  1.00  0.00     0.002 C 
BRANCH  39  40
HETATM   40  C9  UNL     1      -3.905  15.349  -8.125  1.00  0.00     0.000 C 
BRANCH  40  41
HETATM   41  C8  UNL     1      -5.279  15.913  -7.896  1.00  0.00     0.000 C 
BRANCH  41  42
HETATM   42  C7  UNL     1      -5.575  16.120  -6.443  1.00  0.00     0.009 C 
BRANCH  42  43
HETATM   43  C6  UNL     1      -6.334  17.377  -6.189  1.00  0.00     0.103 C 
BRANCH  43  44
HETATM   44  C5  UNL     1      -7.837  17.062  -6.269  1.00  0.00     0.221 C 
HETATM   45  N1  UNL     1      -8.378  16.294  -5.247  1.00  0.00    -0.337 N 
ATOM     46  H1  UNL     1      -7.691  16.016  -4.546  1.00  0.00     0.168 HD
HETATM   47  O1  UNL     1      -8.470  17.518  -7.239  1.00  0.00    -0.273 OA
BRANCH  45  48
HETATM   48  C4  UNL     1      -9.671  15.818  -4.973  1.00  0.00     0.087 C 
BRANCH  48  49
HETATM   49  C3  UNL     1     -10.453  15.054  -5.944  1.00  0.00    -0.010 C 
BRANCH  49  50
HETATM   50  C2  UNL     1      -9.831  14.129  -6.900  1.00  0.00     0.024 C 
HETATM   51  C1  UNL     1     -10.012  14.557  -8.359  1.00  0.00     0.009 C 
ENDBRANCH  49  50
ENDBRANCH  48  49
ENDBRANCH  45  48
ENDBRANCH  43  44
ENDBRANCH  42  43
ENDBRANCH  41  42
ENDBRANCH  40  41
ENDBRANCH  39  40
ENDBRANCH  38  39
ENDBRANCH  37  38
ENDBRANCH   1  37
TORSDOF 15
ENDMDL
MODEL 5
REMARK VINA RESULT: -8.936968794      2.243      4.808
REMARK  15 active torsions:
REMARK  status: ('A' for Active; 'I' for Inactive)
REMARK    1  A    between atoms: C2_2  and  C3_3 
REMARK    2  A    between atoms: C3_3  and  C4_4 
REMARK    3  A    between atoms: C4_4  and  N1_5 
REMARK       I    between atoms: N1_5  and  C5_7 
REMARK    4  A    between atoms: C5_7  and  C6_9 
REMARK    5  A    between atoms: C6_9  and  C7_10 
REMARK    6  A    between atoms: C7_10  and  C8_11 
REMARK    7  A    between atoms: C8_11  and  C9_12 
REMARK    8  A    between atoms: C9_12  and  C10_13 
REMARK    9  A    between atoms: C10_13  and  C11_14 
REMARK   10  A    between atoms: C11_14  and  C12_15 
REMARK   11  A    between atoms: C12_15  and  N2_16 
REMARK       I    between atoms: N2_16  and  C13_18 
REMARK       I    between atoms: C13_18  and  N3_20 
REMARK   12  A    between atoms: C16_23  and  N4_24 
REMARK       I    between atoms: N4_24  and  C17_26 
REMARK   13  A    between atoms: C17_26  and  C18_28 
REMARK   14  A    between atoms: C21_31  and  C22_32 
REMARK   15  A    between atoms: C22_32  and  N5_33 
ROOT
HETATM    1  N2  UNL     1     -13.435   9.377   5.453  1.00  0.00    -0.343 N 
ATOM      2  H2  UNL     1     -12.951   8.903   4.691  1.00  0.00     0.164 HD
HETATM    3  C13 UNL     1     -14.014  10.643   5.223  1.00  0.00     0.325 C 
HETATM    4  O2  UNL     1     -14.639  11.265   6.137  1.00  0.00    -0.247 OA
HETATM    5  N3  UNL     1     -13.886  11.240   3.923  1.00  0.00    -0.270 N 
HETATM    6  C14 UNL     1     -13.169  10.544   2.873  1.00  0.00     0.139 C 
HETATM    7  C15 UNL     1     -12.603  11.541   1.874  1.00  0.00     0.046 C 
HETATM    8  C16 UNL     1     -12.366  12.871   2.581  1.00  0.00     0.095 C 
HETATM    9  C35 UNL     1     -13.665  13.532   2.902  1.00  0.00     0.128 C 
HETATM   10  C36 UNL     1     -14.465  12.505   3.661  1.00  0.00     0.229 C 
HETATM   11  O4  UNL     1     -15.638  12.735   4.072  1.00  0.00    -0.273 OA
ENDROOT
BRANCH   8  12
HETATM   12  N4  UNL     1     -11.475  13.660   1.814  1.00  0.00    -0.352 N 
HETATM   13  C17 UNL     1     -10.186  13.952   2.337  1.00  0.00     0.252 C 
HETATM   14  O3  UNL     1      -9.893  13.502   3.471  1.00  0.00    -0.268 OA
ATOM     15  H4  UNL     1     -11.755  14.015   0.899  1.00  0.00     0.163 HD
BRANCH  13  16
HETATM   16  C18 UNL     1      -9.252  14.743   1.556  1.00  0.00     0.032 A 
HETATM   17  C19 UNL     1      -8.656  14.105   0.466  1.00  0.00     0.017 A 
HETATM   18  C20 UNL     1      -7.761  14.789  -0.311  1.00  0.00     0.011 A 
HETATM   19  C21 UNL     1      -7.445  16.121  -0.013  1.00  0.00    -0.020 A 
HETATM   20  C33 UNL     1      -8.015  16.752   1.042  1.00  0.00     0.011 A 
HETATM   21  C34 UNL     1      -8.913  16.053   1.813  1.00  0.00     0.017 A 
BRANCH  19  22
HETATM   22  C22 UNL     1      -6.451  16.756  -0.975  1.00  0.00     0.186 C 
HETATM   23  C27 UNL     1      -5.232  15.882  -0.840  1.00  0.00     0.047 C 
HETATM   24  C28 UNL     1      -3.938  16.615  -0.720  1.00  0.00     0.003 C 
HETATM   25  C29 UNL     1      -3.870  17.584   0.419  1.00  0.00     0.000 C 
HETATM   26  C30 UNL     1      -4.015  18.957  -0.160  1.00  0.00     0.000 C 
HETATM   27  C31 UNL     1      -5.184  18.945  -1.121  1.00  0.00     0.003 C 
HETATM   28  C32 UNL     1      -6.300  18.154  -0.567  1.00  0.00     0.047 C 
BRANCH  22  29
HETATM   29  N5  UNL     1      -7.039  16.492  -2.249  1.00  0.00     0.106 N 
HETATM   30  C23 UNL     1      -6.175  16.492  -3.388  1.00  0.00     0.301 C 
HETATM   31  C24 UNL     1      -6.903  15.650  -4.451  1.00  0.00     0.262 C 
HETATM   32  N6  UNL     1      -8.212  15.226  -3.991  1.00  0.00    -0.072 N 
HETATM   33  C25 UNL     1      -9.026  16.306  -3.512  1.00  0.00     0.262 C 
ATOM     34  H62 UNL     1      -8.699  14.703  -4.718  1.00  0.00     0.277 HD
ATOM     35  H61 UNL     1      -8.128  14.496  -3.284  1.00  0.00     0.277 HD
HETATM   36  C26 UNL     1      -8.223  17.216  -2.587  1.00  0.00     0.301 C 
ENDBRANCH  22  29
ENDBRANCH  19  22
ENDBRANCH  13  16
ENDBRANCH   8  12
BRANCH   1  37
HETATM   37  C12 UNL     1     -13.512   8.745   6.730  1.00  0.00     0.124 C 
BRANCH  37  38
HETATM   38  C11 UNL     1     -12.200   8.609   7.431  1.00  0.00     0.020 C 
BRANCH  38  39
HETATM   39  C10 UNL     1     -11.919   9.718   8.393  1.00  0.00     0.002 C 
BRANCH  39  40
HETATM   40  C9  UNL     1     -11.236  10.917   7.751  1.00  0.00     0.000 C 
BRANCH  40  41
HETATM   41  C8  UNL     1     -10.995  12.003   8.761  1.00  0.00     0.000 C 
BRANCH  41  42
HETATM   42  C7  UNL     1     -11.084  13.371   8.157  1.00  0.00     0.009 C 
BRANCH  42  43
HETATM   43  C6  UNL     1     -11.986  13.413   6.971  1.00  0.00     0.103 C 
BRANCH  43  44
HETATM   44  C5  UNL     1     -11.642  14.662   6.143  1.00  0.00     0.221 C 
HETATM   45  N1  UNL     1     -10.309  15.047   6.101  1.00  0.00    -0.337 N 
ATOM     46  H1  UNL     1      -9.698  14.440   6.647  1.00  0.00     0.168 HD
HETATM   47  O1  UNL     1     -12.577  15.243   5.563  1.00  0.00    -0.273 OA
BRANCH  45  48
HETATM   48  C4  UNL     1      -9.623  16.096   5.466  1.00  0.00     0.087 C 
BRANCH  48  49
HETATM   49  C3  UNL     1      -8.270  16.499   5.846  1.00  0.00    -0.010 C 
BRANCH  49  50
HETATM   50  C2  UNL     1      -7.441  15.703   6.762  1.00  0.00     0.024 C 
HETATM   51  C1  UNL     1      -7.584  16.127   8.226  1.00  0.00     0.009 C 
ENDBRANCH  49  50
ENDBRANCH  48  49
ENDBRANCH  45  48
ENDBRANCH  43  44
ENDBRANCH  42  43
ENDBRANCH  41  42
ENDBRANCH  40  41
ENDBRANCH  39  40
ENDBRANCH  38  39
ENDBRANCH  37  38
ENDBRANCH   1  37
TORSDOF 15
ENDMDL
