MODEL 1
REMARK VINA RESULT: -8.954255141      0.000      0.000
REMARK  17 active torsions:
REMARK  status: ('A' for Active; 'I' for Inactive)
REMARK    1  A    between atoms: C3_3  and  C4_4 
REMARK    2  A    between atoms: C6_8  and  C7_9 
REMARK    3  A    between atoms: C7_9  and  C8_10 
REMARK    4  A    between atoms: C7_9  and  N6_39 
REMARK    5  A    between atoms: C8_10  and  C9_11 
REMARK       I    between atoms: C9_11  and  N2_13 
REMARK    6  A    between atoms: C12_16  and  C13_17 
REMARK       I    between atoms: C13_17  and  N3_19 
REMARK    7  A    between atoms: N3_19  and  C14_21 
REMARK    8  A    between atoms: C14_21  and  C16_23 
REMARK       I    between atoms: C16_23  and  N4_25 
REMARK    9  A    between atoms: C19_28  and  C20_29 
REMARK   10  A    between atoms: C20_29  and  C21_30 
REMARK   11  A    between atoms: C21_30  and  N5_31 
REMARK   12  A    between atoms: N6_39  and  C26_42 
REMARK   13  A    between atoms: C26_42  and  C27_43 
REMARK   14  A    between atoms: C27_43  and  C28_44 
REMARK   15  A    between atoms: C28_44  and  C29_45 
REMARK   16  A    between atoms: C29_45  and  C30_46 
REMARK   17  A    between atoms: C30_46  and  C31_47 
ROOT
HETATM    1  C1  UNL     1     -10.182  14.587  -8.730  1.00  0.00     0.112 C 
HETATM    2  C2  UNL     1      -9.820  14.993  -7.352  1.00  0.00    -0.105 C 
HETATM    3  C3  UNL     1      -9.550  15.326  -6.222  1.00  0.00    -0.066 C 
ENDROOT
BRANCH   3   4
HETATM    4  C4  UNL     1      -9.254  15.726  -4.864  1.00  0.00     0.035 A 
HETATM    5  C5  UNL     1      -8.332  16.644  -4.413  1.00  0.00     0.108 A 
HETATM    6  N1  UNL     1      -8.388  16.722  -3.070  1.00  0.00    -0.366 N 
HETATM    7  C6  UNL     1      -9.325  15.879  -2.584  1.00  0.00     0.041 A 
ATOM      8  H1  UNL     1      -7.804  17.332  -2.499  1.00  0.00     0.165 HD
HETATM    9  C37 UNL     1      -9.867  15.256  -3.701  1.00  0.00     0.049 A 
BRANCH   7  10
HETATM   10  C7  UNL     1      -9.694  15.690  -1.161  1.00  0.00     0.244 C 
BRANCH  10  11
HETATM   11  C8  UNL     1     -10.963  14.918  -0.970  1.00  0.00     0.142 C 
BRANCH  11  12
HETATM   12  C9  UNL     1     -10.748  13.721  -0.114  1.00  0.00     0.222 C 
HETATM   13  O1  UNL     1      -9.554  13.351   0.044  1.00  0.00    -0.273 OA
HETATM   14  N2  UNL     1     -11.853  13.085   0.458  1.00  0.00    -0.342 N 
HETATM   15  C10 UNL     1     -13.283  13.274   0.471  1.00  0.00     0.090 C 
HETATM   16  C24 UNL     1     -12.100  11.944   1.305  1.00  0.00     0.102 C 
HETATM   17  C11 UNL     1     -13.503  13.660   1.918  1.00  0.00     0.041 C 
HETATM   18  C25 UNL     1     -13.382  11.766   0.512  1.00  0.00     0.051 C 
HETATM   19  C12 UNL     1     -12.587  12.585   2.554  1.00  0.00     0.103 C 
BRANCH  19  20
HETATM   20  C13 UNL     1     -13.409  11.661   3.387  1.00  0.00     0.224 C 
HETATM   21  O2  UNL     1     -14.568  12.036   3.672  1.00  0.00    -0.273 OA
HETATM   22  N3  UNL     1     -12.888  10.448   3.814  1.00  0.00    -0.348 N 
ATOM     23  H3  UNL     1     -11.939  10.234   3.506  1.00  0.00     0.163 HD
BRANCH  22  24
HETATM   24  C14 UNL     1     -13.521   9.460   4.635  1.00  0.00     0.172 C 
HETATM   25  C15 UNL     1     -13.784   8.211   3.796  1.00  0.00     0.042 C 
BRANCH  24  26
HETATM   26  C16 UNL     1     -12.767   9.211   5.857  1.00  0.00     0.242 C 
HETATM   27  O3  UNL     1     -12.058   8.137   5.865  1.00  0.00    -0.271 OA
HETATM   28  N4  UNL     1     -12.723  10.003   7.031  1.00  0.00    -0.350 N 
HETATM   29  C17 UNL     1     -11.922   9.488   8.123  1.00  0.00     0.126 C 
HETATM   30  C23 UNL     1     -13.453  11.256   7.068  1.00  0.00     0.126 C 
HETATM   31  C18 UNL     1     -11.606  10.475   9.205  1.00  0.00     0.024 C 
HETATM   32  C19 UNL     1     -12.795  11.358   9.411  1.00  0.00    -0.010 C 
HETATM   33  C22 UNL     1     -12.935  12.193   8.157  1.00  0.00     0.024 C 
BRANCH  32  34
HETATM   34  C20 UNL     1     -12.816  12.154  10.658  1.00  0.00     0.032 C 
BRANCH  34  35
HETATM   35  C21 UNL     1     -14.095  12.831  11.008  1.00  0.00     0.230 C 
BRANCH  35  36
HETATM   36  N5  UNL     1     -13.936  14.155  11.561  1.00  0.00    -0.079 N 
ATOM     37  H53 UNL     1     -13.483  14.770  10.885  1.00  0.00     0.274 HD
ATOM     38  H52 UNL     1     -14.841  14.618  11.640  1.00  0.00     0.274 HD
ATOM     39  H51 UNL     1     -13.443  14.182  12.453  1.00  0.00     0.274 HD
ENDBRANCH  35  36
ENDBRANCH  34  35
ENDBRANCH  32  34
ENDBRANCH  24  26
ENDBRANCH  22  24
ENDBRANCH  19  20
ENDBRANCH  11  12
ENDBRANCH  10  11
BRANCH  10  40
HETATM   40  N6  UNL     1      -9.807  16.950  -0.444  1.00  0.00    -0.065 N 
ATOM     41  H62 UNL     1      -9.968  17.724  -1.088  1.00  0.00     0.278 HD
ATOM     42  H61 UNL     1     -10.677  16.994   0.087  1.00  0.00     0.278 HD
BRANCH  40  43
HETATM   43  C26 UNL     1      -8.683  17.208   0.394  1.00  0.00     0.233 C 
BRANCH  43  44
HETATM   44  C27 UNL     1      -8.735  16.520   1.700  1.00  0.00     0.027 C 
BRANCH  44  45
HETATM   45  C28 UNL     1     -10.022  16.468   2.416  1.00  0.00     0.002 C 
BRANCH  45  46
HETATM   46  C29 UNL     1     -10.296  15.324   3.314  1.00  0.00     0.000 C 
BRANCH  46  47
HETATM   47  C30 UNL     1      -9.075  14.569   3.747  1.00  0.00     0.004 C 
BRANCH  47  48
HETATM   48  C31 UNL     1      -8.887  14.761   5.241  1.00  0.00    -0.014 C 
HETATM   49  C32 UNL     1     -10.231  14.691   5.912  1.00  0.00     0.004 C 
HETATM   50  C33 UNL     1     -10.291  15.694   7.038  1.00  0.00     0.000 C 
HETATM   51  C34 UNL     1      -8.978  15.669   7.776  1.00  0.00     0.000 C 
HETATM   52  C35 UNL     1      -7.920  16.287   6.901  1.00  0.00     0.000 C 
HETATM   53  C36 UNL     1      -8.256  16.130   5.433  1.00  0.00     0.004 C 
ENDBRANCH  47  48
ENDBRANCH  46  47
ENDBRANCH  45  46
ENDBRANCH  44  45
ENDBRANCH  43  44
ENDBRANCH  40  43
ENDBRANCH  10  40
ENDBRANCH   7  10
ENDBRANCH   3   4
TORSDOF 17
ENDMDL
MODEL 2
REMARK VINA RESULT: -8.746035505      1.549      1.962
REMARK  17 active torsions:
REMARK  status: ('A' for Active; 'I' for Inactive)
REMARK    1  A    between atoms: C3_3  and  C4_4 
REMARK    2  A    between atoms: C6_8  and  C7_9 
REMARK    3  A    between atoms: C7_9  and  C8_10 
REMARK    4  A    between atoms: C7_9  and  N6_39 
REMARK    5  A    between atoms: C8_10  and  C9_11 
REMARK       I    between atoms: C9_11  and  N2_13 
REMARK    6  A    between atoms: C12_16  and  C13_17 
REMARK       I    between atoms: C13_17  and  N3_19 
REMARK    7  A    between atoms: N3_19  and  C14_21 
REMARK    8  A    between atoms: C14_21  and  C16_23 
REMARK       I    between atoms: C16_23  and  N4_25 
REMARK    9  A    between atoms: C19_28  and  C20_29 
REMARK   10  A    between atoms: C20_29  and  C21_30 
REMARK   11  A    between atoms: C21_30  and  N5_31 
REMARK   12  A    between atoms: N6_39  and  C26_42 
REMARK   13  A    between atoms: C26_42  and  C27_43 
REMARK   14  A    between atoms: C27_43  and  C28_44 
REMARK   15  A    between atoms: C28_44  and  C29_45 
REMARK   16  A    between atoms: C29_45  and  C30_46 
REMARK   17  A    between atoms: C30_46  and  C31_47 
ROOT
HETATM    1  C1  UNL     1     -10.286  14.616  -8.759  1.00  0.00     0.112 C 
HETATM    2  C2  UNL     1      -9.751  15.002  -7.433  1.00  0.00    -0.105 C 
HETATM    3  C3  UNL     1      -9.334  15.306  -6.339  1.00  0.00    -0.066 C 
ENDROOT
BRANCH   3   4
HETATM    4  C4  UNL     1      -8.858  15.655  -5.020  1.00  0.00     0.035 A 
HETATM    5  C5  UNL     1      -8.130  16.756  -4.625  1.00  0.00     0.108 A 
HETATM    6  N1  UNL     1      -7.903  16.697  -3.298  1.00  0.00    -0.366 N 
HETATM    7  C6  UNL     1      -8.454  15.584  -2.770  1.00  0.00     0.041 A 
ATOM      8  H1  UNL     1      -7.385  17.397  -2.767  1.00  0.00     0.165 HD
HETATM    9  C37 UNL     1      -9.051  14.931  -3.842  1.00  0.00     0.049 A 
BRANCH   7  10
HETATM   10  C7  UNL     1      -8.434  15.175  -1.345  1.00  0.00     0.244 C 
BRANCH  10  11
HETATM   11  C8  UNL     1      -9.388  14.065  -1.028  1.00  0.00     0.142 C 
BRANCH  11  12
HETATM   12  C9  UNL     1     -10.721  14.592  -0.627  1.00  0.00     0.222 C 
HETATM   13  O1  UNL     1     -11.135  15.605  -1.251  1.00  0.00    -0.273 OA
HETATM   14  N2  UNL     1     -11.427  13.951   0.393  1.00  0.00    -0.342 N 
HETATM   15  C10 UNL     1     -11.227  12.809   1.252  1.00  0.00     0.090 C 
HETATM   16  C24 UNL     1     -12.685  14.116   1.079  1.00  0.00     0.102 C 
HETATM   17  C11 UNL     1     -12.300  11.876   0.732  1.00  0.00     0.041 C 
HETATM   18  C25 UNL     1     -11.962  13.601   2.310  1.00  0.00     0.051 C 
HETATM   19  C12 UNL     1     -13.441  12.918   0.632  1.00  0.00     0.103 C 
BRANCH  19  20
HETATM   20  C13 UNL     1     -14.537  12.549   1.574  1.00  0.00     0.224 C 
HETATM   21  O2  UNL     1     -15.393  13.427   1.817  1.00  0.00    -0.273 OA
HETATM   22  N3  UNL     1     -14.579  11.284   2.142  1.00  0.00    -0.348 N 
ATOM     23  H3  UNL     1     -13.840  10.640   1.857  1.00  0.00     0.163 HD
BRANCH  22  24
HETATM   24  C14 UNL     1     -15.534  10.772   3.078  1.00  0.00     0.172 C 
HETATM   25  C15 UNL     1     -16.504   9.848   2.344  1.00  0.00     0.042 C 
BRANCH  24  26
HETATM   26  C16 UNL     1     -14.886  10.163   4.231  1.00  0.00     0.242 C 
HETATM   27  O3  UNL     1     -14.992   8.883   4.318  1.00  0.00    -0.271 OA
HETATM   28  N4  UNL     1     -14.158  10.805   5.264  1.00  0.00    -0.350 N 
HETATM   29  C17 UNL     1     -13.658   9.953   6.323  1.00  0.00     0.126 C 
HETATM   30  C23 UNL     1     -13.950  12.239   5.197  1.00  0.00     0.126 C 
HETATM   31  C18 UNL     1     -12.618  10.573   7.206  1.00  0.00     0.024 C 
HETATM   32  C19 UNL     1     -12.959  12.013   7.410  1.00  0.00    -0.010 C 
HETATM   33  C22 UNL     1     -12.784  12.694   6.070  1.00  0.00     0.024 C 
BRANCH  32  34
HETATM   34  C20 UNL     1     -12.267  12.703   8.521  1.00  0.00     0.032 C 
BRANCH  34  35
HETATM   35  C21 UNL     1     -11.527  11.850   9.492  1.00  0.00     0.230 C 
BRANCH  35  36
HETATM   36  N5  UNL     1     -10.269  12.403   9.933  1.00  0.00    -0.079 N 
ATOM     37  H53 UNL     1      -9.541  12.229   9.240  1.00  0.00     0.274 HD
ATOM     38  H52 UNL     1     -10.299  13.422   9.904  1.00  0.00     0.274 HD
ATOM     39  H51 UNL     1      -9.968  12.082  10.853  1.00  0.00     0.274 HD
ENDBRANCH  35  36
ENDBRANCH  34  35
ENDBRANCH  32  34
ENDBRANCH  24  26
ENDBRANCH  22  24
ENDBRANCH  19  20
ENDBRANCH  11  12
ENDBRANCH  10  11
BRANCH  10  40
HETATM   40  N6  UNL     1      -8.701  16.286  -0.445  1.00  0.00    -0.065 N 
ATOM     41  H62 UNL     1      -9.011  17.109  -0.962  1.00  0.00     0.278 HD
ATOM     42  H61 UNL     1      -9.540  16.115   0.110  1.00  0.00     0.278 HD
BRANCH  40  43
HETATM   43  C26 UNL     1      -7.589  16.595   0.391  1.00  0.00     0.233 C 
BRANCH  43  44
HETATM   44  C27 UNL     1      -7.882  16.517   1.837  1.00  0.00     0.027 C 
BRANCH  44  45
HETATM   45  C28 UNL     1      -9.284  16.625   2.276  1.00  0.00     0.002 C 
BRANCH  45  46
HETATM   46  C29 UNL     1      -9.724  15.859   3.464  1.00  0.00     0.000 C 
BRANCH  46  47
HETATM   47  C30 UNL     1      -8.749  14.818   3.926  1.00  0.00     0.004 C 
BRANCH  47  48
HETATM   48  C31 UNL     1      -8.634  14.896   5.438  1.00  0.00    -0.014 C 
HETATM   49  C32 UNL     1     -10.009  14.779   6.036  1.00  0.00     0.004 C 
HETATM   50  C33 UNL     1     -10.125  15.693   7.230  1.00  0.00     0.000 C 
HETATM   51  C34 UNL     1      -8.848  15.608   8.027  1.00  0.00     0.000 C 
HETATM   52  C35 UNL     1      -7.750  16.288   7.255  1.00  0.00     0.000 C 
HETATM   53  C36 UNL     1      -8.014  16.244   5.764  1.00  0.00     0.004 C 
ENDBRANCH  47  48
ENDBRANCH  46  47
ENDBRANCH  45  46
ENDBRANCH  44  45
ENDBRANCH  43  44
ENDBRANCH  40  43
ENDBRANCH  10  40
ENDBRANCH   7  10
ENDBRANCH   3   4
TORSDOF 17
ENDMDL
MODEL 3
REMARK VINA RESULT: -8.626783048      3.309      5.732
REMARK  17 active torsions:
REMARK  status: ('A' for Active; 'I' for Inactive)
REMARK    1  A    between atoms: C3_3  and  C4_4 
REMARK    2  A    between atoms: C6_8  and  C7_9 
REMARK    3  A    between atoms: C7_9  and  C8_10 
REMARK    4  A    between atoms: C7_9  and  N6_39 
REMARK    5  A    between atoms: C8_10  and  C9_11 
REMARK       I    between atoms: C9_11  and  N2_13 
REMARK    6  A    between atoms: C12_16  and  C13_17 
REMARK       I    between atoms: C13_17  and  N3_19 
REMARK    7  A    between atoms: N3_19  and  C14_21 
REMARK    8  A    between atoms: C14_21  and  C16_23 
REMARK       I    between atoms: C16_23  and  N4_25 
REMARK    9  A    between atoms: C19_28  and  C20_29 
REMARK   10  A    between atoms: C20_29  and  C21_30 
REMARK   11  A    between atoms: C21_30  and  N5_31 
REMARK   12  A    between atoms: N6_39  and  C26_42 
REMARK   13  A    between atoms: C26_42  and  C27_43 
REMARK   14  A    between atoms: C27_43  and  C28_44 
REMARK   15  A    between atoms: C28_44  and  C29_45 
REMARK   16  A    between atoms: C29_45  and  C30_46 
REMARK   17  A    between atoms: C30_46  and  C31_47 
ROOT
HETATM    1  C1  UNL     1      -3.387  17.578  -8.139  1.00  0.00     0.112 C 
HETATM    2  C2  UNL     1      -4.460  17.262  -7.168  1.00  0.00    -0.105 C 
HETATM    3  C3  UNL     1      -5.351  17.020  -6.388  1.00  0.00    -0.066 C 
ENDROOT
BRANCH   3   4
HETATM    4  C4  UNL     1      -6.434  16.748  -5.470  1.00  0.00     0.035 A 
HETATM    5  C5  UNL     1      -7.791  16.881  -5.667  1.00  0.00     0.108 A 
HETATM    6  N1  UNL     1      -8.450  16.510  -4.552  1.00  0.00    -0.366 N 
HETATM    7  C6  UNL     1      -7.582  16.124  -3.593  1.00  0.00     0.041 A 
ATOM      8  H1  UNL     1      -9.464  16.518  -4.448  1.00  0.00     0.165 HD
HETATM    9  C37 UNL     1      -6.323  16.272  -4.162  1.00  0.00     0.049 A 
BRANCH   7  10
HETATM   10  C7  UNL     1      -7.921  15.632  -2.236  1.00  0.00     0.244 C 
BRANCH  10  11
HETATM   11  C8  UNL     1      -8.972  14.566  -2.232  1.00  0.00     0.142 C 
BRANCH  11  12
HETATM   12  C9  UNL     1     -10.253  15.069  -1.666  1.00  0.00     0.222 C 
HETATM   13  O1  UNL     1     -10.859  15.944  -2.339  1.00  0.00    -0.273 OA
HETATM   14  N2  UNL     1     -10.708  14.555  -0.449  1.00  0.00    -0.342 N 
HETATM   15  C10 UNL     1     -10.259  13.577   0.511  1.00  0.00     0.090 C 
HETATM   16  C24 UNL     1     -11.834  14.751   0.431  1.00  0.00     0.102 C 
HETATM   17  C11 UNL     1     -11.321  12.510   0.344  1.00  0.00     0.041 C 
HETATM   18  C25 UNL     1     -10.861  14.480   1.564  1.00  0.00     0.051 C 
HETATM   19  C12 UNL     1     -12.548  13.454   0.312  1.00  0.00     0.103 C 
BRANCH  19  20
HETATM   20  C13 UNL     1     -13.422  13.173   1.487  1.00  0.00     0.224 C 
HETATM   21  O2  UNL     1     -13.553  11.974   1.821  1.00  0.00    -0.273 OA
HETATM   22  N3  UNL     1     -14.051  14.211   2.160  1.00  0.00    -0.348 N 
ATOM     23  H3  UNL     1     -13.858  15.151   1.815  1.00  0.00     0.163 HD
BRANCH  22  24
HETATM   24  C14 UNL     1     -14.938  14.122   3.281  1.00  0.00     0.172 C 
HETATM   25  C15 UNL     1     -16.262  13.515   2.821  1.00  0.00     0.042 C 
BRANCH  24  26
HETATM   26  C16 UNL     1     -14.321  13.427   4.403  1.00  0.00     0.242 C 
HETATM   27  O3  UNL     1     -14.888  12.328   4.758  1.00  0.00    -0.271 OA
HETATM   28  N4  UNL     1     -13.179  13.815   5.148  1.00  0.00    -0.350 N 
HETATM   29  C17 UNL     1     -12.811  12.954   6.252  1.00  0.00     0.126 C 
HETATM   30  C23 UNL     1     -12.457  15.013   4.765  1.00  0.00     0.126 C 
HETATM   31  C18 UNL     1     -11.435  13.174   6.804  1.00  0.00     0.024 C 
HETATM   32  C19 UNL     1     -11.136  14.638   6.776  1.00  0.00    -0.010 C 
HETATM   33  C22 UNL     1     -11.034  15.031   5.318  1.00  0.00     0.024 C 
BRANCH  32  34
HETATM   34  C20 UNL     1      -9.988  15.091   7.593  1.00  0.00     0.032 C 
BRANCH  34  35
HETATM   35  C21 UNL     1      -9.109  16.138   7.003  1.00  0.00     0.230 C 
BRANCH  35  36
HETATM   36  N5  UNL     1      -7.987  16.510   7.833  1.00  0.00    -0.079 N 
ATOM     37  H53 UNL     1      -7.770  17.499   7.713  1.00  0.00     0.274 HD
ATOM     38  H52 UNL     1      -8.256  16.507   8.817  1.00  0.00     0.274 HD
ATOM     39  H51 UNL     1      -7.152  15.942   7.691  1.00  0.00     0.274 HD
ENDBRANCH  35  36
ENDBRANCH  34  35
ENDBRANCH  32  34
ENDBRANCH  24  26
ENDBRANCH  22  24
ENDBRANCH  19  20
ENDBRANCH  11  12
ENDBRANCH  10  11
BRANCH  10  40
HETATM   40  N6  UNL     1      -8.344  16.703  -1.347  1.00  0.00    -0.065 N 
ATOM     41  H62 UNL     1      -8.701  17.498  -1.877  1.00  0.00     0.278 HD
ATOM     42  H61 UNL     1      -9.193  16.447  -0.843  1.00  0.00     0.278 HD
BRANCH  40  43
HETATM   43  C26 UNL     1      -7.317  17.108  -0.446  1.00  0.00     0.233 C 
BRANCH  43  44
HETATM   44  C27 UNL     1      -6.399  16.020  -0.051  1.00  0.00     0.027 C 
BRANCH  44  45
HETATM   45  C28 UNL     1      -5.130  16.375   0.608  1.00  0.00     0.002 C 
BRANCH  45  46
HETATM   46  C29 UNL     1      -3.884  16.380  -0.190  1.00  0.00     0.000 C 
BRANCH  46  47
HETATM   47  C30 UNL     1      -3.058  17.623  -0.042  1.00  0.00     0.004 C 
BRANCH  47  48
HETATM   48  C31 UNL     1      -3.018  18.343  -1.378  1.00  0.00    -0.014 C 
HETATM   49  C32 UNL     1      -4.193  19.277  -1.462  1.00  0.00     0.004 C 
HETATM   50  C33 UNL     1      -4.739  19.286  -2.868  1.00  0.00     0.000 C 
HETATM   51  C34 UNL     1      -3.582  19.297  -3.834  1.00  0.00     0.000 C 
HETATM   52  C35 UNL     1      -2.910  17.951  -3.798  1.00  0.00     0.000 C 
HETATM   53  C36 UNL     1      -3.098  17.274  -2.456  1.00  0.00     0.004 C 
ENDBRANCH  47  48
ENDBRANCH  46  47
ENDBRANCH  45  46
ENDBRANCH  44  45
ENDBRANCH  43  44
ENDBRANCH  40  43
ENDBRANCH  10  40
ENDBRANCH   7  10
ENDBRANCH   3   4
TORSDOF 17
ENDMDL
MODEL 4
REMARK VINA RESULT: -8.604609119      1.617      6.637
REMARK  17 active torsions:
REMARK  status: ('A' for Active; 'I' for Inactive)
REMARK    1  A    between atoms: C3_3  and  C4_4 
REMARK    2  A    between atoms: C6_8  and  C7_9 
REMARK    3  A    between atoms: C7_9  and  C8_10 
REMARK    4  A    between atoms: C7_9  and  N6_39 
REMARK    5  A    between atoms: C8_10  and  C9_11 
REMARK       I    between atoms: C9_11  and  N2_13 
REMARK    6  A    between atoms: C12_16  and  C13_17 
REMARK       I    between atoms: C13_17  and  N3_19 
REMARK    7  A    between atoms: N3_19  and  C14_21 
REMARK    8  A    between atoms: C14_21  and  C16_23 
REMARK       I    between atoms: C16_23  and  N4_25 
REMARK    9  A    between atoms: C19_28  and  C20_29 
REMARK   10  A    between atoms: C20_29  and  C21_30 
REMARK   11  A    between atoms: C21_30  and  N5_31 
REMARK   12  A    between atoms: N6_39  and  C26_42 
REMARK   13  A    between atoms: C26_42  and  C27_43 
REMARK   14  A    between atoms: C27_43  and  C28_44 
REMARK   15  A    between atoms: C28_44  and  C29_45 
REMARK   16  A    between atoms: C29_45  and  C30_46 
REMARK   17  A    between atoms: C30_46  and  C31_47 
ROOT
HETATM    1  C1  UNL     1      -8.018  15.930   7.352  1.00  0.00     0.112 C 
HETATM    2  C2  UNL     1      -8.164  16.134   5.892  1.00  0.00    -0.105 C 
HETATM    3  C3  UNL     1      -8.308  16.299   4.704  1.00  0.00    -0.066 C 
ENDROOT
BRANCH   3   4
HETATM    4  C4  UNL     1      -8.509  16.495   3.286  1.00  0.00     0.035 A 
HETATM    5  C5  UNL     1      -9.486  17.223   2.641  1.00  0.00     0.108 A 
HETATM    6  N1  UNL     1      -9.301  17.150   1.309  1.00  0.00    -0.366 N 
HETATM    7  C6  UNL     1      -8.223  16.392   1.019  1.00  0.00     0.041 A 
ATOM      8  H1  UNL     1      -9.894  17.606   0.616  1.00  0.00     0.165 HD
HETATM    9  C37 UNL     1      -7.726  15.981   2.251  1.00  0.00     0.049 A 
BRANCH   7  10
HETATM   10  C7  UNL     1      -7.688  16.090  -0.330  1.00  0.00     0.244 C 
BRANCH  10  11
HETATM   11  C8  UNL     1      -8.485  15.063  -1.074  1.00  0.00     0.142 C 
BRANCH  11  12
HETATM   12  C9  UNL     1      -8.849  13.918  -0.196  1.00  0.00     0.222 C 
HETATM   13  O1  UNL     1      -7.901  13.183   0.190  1.00  0.00    -0.273 OA
HETATM   14  N2  UNL     1     -10.188  13.723   0.148  1.00  0.00    -0.342 N 
HETATM   15  C10 UNL     1     -11.446  14.377  -0.117  1.00  0.00     0.090 C 
HETATM   16  C24 UNL     1     -10.958  12.785   0.927  1.00  0.00     0.102 C 
HETATM   17  C11 UNL     1     -11.785  14.904   1.261  1.00  0.00     0.041 C 
HETATM   18  C25 UNL     1     -12.056  12.993  -0.101  1.00  0.00     0.051 C 
HETATM   19  C12 UNL     1     -11.422  13.627   2.059  1.00  0.00     0.103 C 
BRANCH  19  20
HETATM   20  C13 UNL     1     -12.646  13.084   2.713  1.00  0.00     0.224 C 
HETATM   21  O2  UNL     1     -13.599  13.877   2.877  1.00  0.00    -0.273 OA
HETATM   22  N3  UNL     1     -12.699  11.756   3.113  1.00  0.00    -0.348 N 
ATOM     23  H3  UNL     1     -11.871  11.194   2.912  1.00  0.00     0.163 HD
BRANCH  22  24
HETATM   24  C14 UNL     1     -13.773  11.080   3.775  1.00  0.00     0.172 C 
HETATM   25  C15 UNL     1     -14.594  10.316   2.737  1.00  0.00     0.042 C 
BRANCH  24  26
HETATM   26  C16 UNL     1     -13.296  10.259   4.879  1.00  0.00     0.242 C 
HETATM   27  O3  UNL     1     -13.078   9.022   4.601  1.00  0.00    -0.271 OA
HETATM   28  N4  UNL     1     -13.046  10.657   6.217  1.00  0.00    -0.350 N 
HETATM   29  C17 UNL     1     -12.619   9.614   7.127  1.00  0.00     0.126 C 
HETATM   30  C23 UNL     1     -13.216  12.049   6.585  1.00  0.00     0.126 C 
HETATM   31  C18 UNL     1     -12.036  10.094   8.421  1.00  0.00     0.024 C 
HETATM   32  C19 UNL     1     -12.787  11.307   8.865  1.00  0.00    -0.010 C 
HETATM   33  C22 UNL     1     -12.469  12.401   7.869  1.00  0.00     0.024 C 
BRANCH  32  34
HETATM   34  C20 UNL     1     -12.602  11.717  10.275  1.00  0.00     0.032 C 
BRANCH  34  35
HETATM   35  C21 UNL     1     -13.787  12.280  10.977  1.00  0.00     0.230 C 
BRANCH  35  36
HETATM   36  N5  UNL     1     -13.923  13.712  10.862  1.00  0.00    -0.079 N 
ATOM     37  H53 UNL     1     -13.611  14.169  11.719  1.00  0.00     0.274 HD
ATOM     38  H52 UNL     1     -13.237  14.084  10.205  1.00  0.00     0.274 HD
ATOM     39  H51 UNL     1     -14.861  14.027  10.612  1.00  0.00     0.274 HD
ENDBRANCH  35  36
ENDBRANCH  34  35
ENDBRANCH  32  34
ENDBRANCH  24  26
ENDBRANCH  22  24
ENDBRANCH  19  20
ENDBRANCH  11  12
ENDBRANCH  10  11
BRANCH  10  40
HETATM   40  N6  UNL     1      -6.299  15.661  -0.293  1.00  0.00    -0.065 N 
ATOM     41  H62 UNL     1      -6.024  15.393   0.652  1.00  0.00     0.278 HD
ATOM     42  H61 UNL     1      -6.181  14.761  -0.760  1.00  0.00     0.278 HD
BRANCH  40  43
HETATM   43  C26 UNL     1      -5.408  16.636  -0.828  1.00  0.00     0.233 C 
BRANCH  43  44
HETATM   44  C27 UNL     1      -6.073  17.689  -1.621  1.00  0.00     0.027 C 
BRANCH  44  45
HETATM   45  C28 UNL     1      -5.853  17.717  -3.078  1.00  0.00     0.002 C 
BRANCH  45  46
HETATM   46  C29 UNL     1      -6.917  17.213  -3.974  1.00  0.00     0.000 C 
BRANCH  46  47
HETATM   47  C30 UNL     1      -6.944  15.721  -4.126  1.00  0.00     0.004 C 
BRANCH  47  48
HETATM   48  C31 UNL     1      -7.959  15.359  -5.195  1.00  0.00    -0.014 C 
HETATM   49  C32 UNL     1      -7.640  16.126  -6.448  1.00  0.00     0.004 C 
HETATM   50  C33 UNL     1      -8.919  16.557  -7.123  1.00  0.00     0.000 C 
HETATM   51  C34 UNL     1      -9.904  15.419  -7.059  1.00  0.00     0.000 C 
HETATM   52  C35 UNL     1     -10.371  15.263  -5.636  1.00  0.00     0.000 C 
HETATM   53  C36 UNL     1      -9.325  15.749  -4.655  1.00  0.00     0.004 C 
ENDBRANCH  47  48
ENDBRANCH  46  47
ENDBRANCH  45  46
ENDBRANCH  44  45
ENDBRANCH  43  44
ENDBRANCH  40  43
ENDBRANCH  10  40
ENDBRANCH   7  10
ENDBRANCH   3   4
TORSDOF 17
ENDMDL
MODEL 5
REMARK VINA RESULT: -8.586266495      4.471     11.563
REMARK  17 active torsions:
REMARK  status: ('A' for Active; 'I' for Inactive)
REMARK    1  A    between atoms: C3_3  and  C4_4 
REMARK    2  A    between atoms: C6_8  and  C7_9 
REMARK    3  A    between atoms: C7_9  and  C8_10 
REMARK    4  A    between atoms: C7_9  and  N6_39 
REMARK    5  A    between atoms: C8_10  and  C9_11 
REMARK       I    between atoms: C9_11  and  N2_13 
REMARK    6  A    between atoms: C12_16  and  C13_17 
REMARK       I    between atoms: C13_17  and  N3_19 
REMARK    7  A    between atoms: N3_19  and  C14_21 
REMARK    8  A    between atoms: C14_21  and  C16_23 
REMARK       I    between atoms: C16_23  and  N4_25 
REMARK    9  A    between atoms: C19_28  and  C20_29 
REMARK   10  A    between atoms: C20_29  and  C21_30 
REMARK   11  A    between atoms: C21_30  and  N5_31 
REMARK   12  A    between atoms: N6_39  and  C26_42 
REMARK   13  A    between atoms: C26_42  and  C27_43 
REMARK   14  A    between atoms: C27_43  and  C28_44 
REMARK   15  A    between atoms: C28_44  and  C29_45 
REMARK   16  A    between atoms: C29_45  and  C30_46 
REMARK   17  A    between atoms: C30_46  and  C31_47 
ROOT
HETATM    1  C1  UNL     1     -16.667   9.325   2.855  1.00  0.00     0.112 C 
HETATM    2  C2  UNL     1     -15.783  10.465   2.519  1.00  0.00    -0.105 C 
HETATM    3  C3  UNL     1     -15.083  11.410   2.243  1.00  0.00    -0.066 C 
ENDROOT
BRANCH   3   4
HETATM    4  C4  UNL     1     -14.268  12.557   1.910  1.00  0.00     0.035 A 
HETATM    5  C5  UNL     1     -14.573  13.896   2.014  1.00  0.00     0.108 A 
HETATM    6  N1  UNL     1     -13.524  14.635   1.604  1.00  0.00    -0.366 N 
HETATM    7  C6  UNL     1     -12.504  13.838   1.220  1.00  0.00     0.041 A 
ATOM      8  H1  UNL     1     -13.503  15.654   1.587  1.00  0.00     0.165 HD
HETATM    9  C37 UNL     1     -12.965  12.541   1.410  1.00  0.00     0.049 A 
BRANCH   7  10
HETATM   10  C7  UNL     1     -11.176  14.274   0.725  1.00  0.00     0.244 C 
BRANCH  10  11
HETATM   11  C8  UNL     1     -10.719  13.534  -0.494  1.00  0.00     0.142 C 
BRANCH  11  12
HETATM   12  C9  UNL     1      -9.394  14.022  -0.962  1.00  0.00     0.222 C 
HETATM   13  O1  UNL     1      -8.382  13.437  -0.493  1.00  0.00    -0.273 OA
HETATM   14  N2  UNL     1      -9.342  15.078  -1.876  1.00  0.00    -0.342 N 
HETATM   15  C10 UNL     1     -10.291  15.909  -2.575  1.00  0.00     0.090 C 
HETATM   16  C24 UNL     1      -8.327  15.842  -2.558  1.00  0.00     0.102 C 
HETATM   17  C11 UNL     1     -10.074  15.446  -4.001  1.00  0.00     0.041 C 
HETATM   18  C25 UNL     1      -9.276  17.020  -2.429  1.00  0.00     0.051 C 
HETATM   19  C12 UNL     1      -8.525  15.429  -3.971  1.00  0.00     0.103 C 
BRANCH  19  20
HETATM   20  C13 UNL     1      -7.998  16.433  -4.939  1.00  0.00     0.224 C 
HETATM   21  O2  UNL     1      -8.712  16.689  -5.934  1.00  0.00    -0.273 OA
HETATM   22  N3  UNL     1      -6.769  17.039  -4.724  1.00  0.00    -0.348 N 
ATOM     23  H3  UNL     1      -6.280  16.770  -3.870  1.00  0.00     0.163 HD
BRANCH  22  24
HETATM   24  C14 UNL     1      -6.103  17.996  -5.556  1.00  0.00     0.172 C 
HETATM   25  C15 UNL     1      -5.765  19.230  -4.722  1.00  0.00     0.042 C 
BRANCH  24  26
HETATM   26  C16 UNL     1      -4.960  17.410  -6.244  1.00  0.00     0.242 C 
HETATM   27  O3  UNL     1      -5.109  17.221  -7.508  1.00  0.00    -0.271 OA
HETATM   28  N4  UNL     1      -3.714  17.024  -5.692  1.00  0.00    -0.350 N 
HETATM   29  C17 UNL     1      -2.768  16.417  -6.606  1.00  0.00     0.126 C 
HETATM   30  C23 UNL     1      -3.458  17.262  -4.284  1.00  0.00     0.126 C 
HETATM   31  C18 UNL     1      -1.358  16.333  -6.104  1.00  0.00     0.024 C 
HETATM   32  C19 UNL     1      -1.387  16.032  -4.641  1.00  0.00    -0.010 C 
HETATM   33  C22 UNL     1      -1.967  17.252  -3.959  1.00  0.00     0.024 C 
BRANCH  32  34
HETATM   34  C20 UNL     1      -0.118  15.563  -4.040  1.00  0.00     0.032 C 
BRANCH  34  35
HETATM   35  C21 UNL     1      -0.043  14.129  -3.649  1.00  0.00     0.230 C 
BRANCH  35  36
HETATM   36  N5  UNL     1      -1.171  13.661  -2.880  1.00  0.00    -0.079 N 
ATOM     37  H53 UNL     1      -0.855  13.078  -2.104  1.00  0.00     0.274 HD
ATOM     38  H52 UNL     1      -1.592  14.431  -2.361  1.00  0.00     0.274 HD
ATOM     39  H51 UNL     1      -1.880  13.171  -3.427  1.00  0.00     0.274 HD
ENDBRANCH  35  36
ENDBRANCH  34  35
ENDBRANCH  32  34
ENDBRANCH  24  26
ENDBRANCH  22  24
ENDBRANCH  19  20
ENDBRANCH  11  12
ENDBRANCH  10  11
BRANCH  10  40
HETATM   40  N6  UNL     1     -10.143  14.172   1.743  1.00  0.00    -0.065 N 
ATOM     41  H62 UNL     1     -10.103  13.229   2.130  1.00  0.00     0.278 HD
ATOM     42  H61 UNL     1      -9.212  14.219   1.327  1.00  0.00     0.278 HD
BRANCH  40  43
HETATM   43  C26 UNL     1     -10.291  15.143   2.776  1.00  0.00     0.233 C 
BRANCH  43  44
HETATM   44  C27 UNL     1      -9.387  16.304   2.645  1.00  0.00     0.027 C 
BRANCH  44  45
HETATM   45  C28 UNL     1      -7.975  16.060   2.303  1.00  0.00     0.002 C 
BRANCH  45  46
HETATM   46  C29 UNL     1      -7.457  16.550   1.006  1.00  0.00     0.000 C 
BRANCH  46  47
HETATM   47  C30 UNL     1      -6.317  15.749   0.452  1.00  0.00     0.004 C 
BRANCH  47  48
HETATM   48  C31 UNL     1      -5.394  16.680  -0.314  1.00  0.00    -0.014 C 
HETATM   49  C32 UNL     1      -4.005  16.557   0.249  1.00  0.00     0.004 C 
HETATM   50  C33 UNL     1      -3.339  17.910   0.264  1.00  0.00     0.000 C 
HETATM   51  C34 UNL     1      -3.668  18.624  -1.022  1.00  0.00     0.000 C 
HETATM   52  C35 UNL     1      -5.119  19.020  -0.997  1.00  0.00     0.000 C 
HETATM   53  C36 UNL     1      -5.932  18.089  -0.123  1.00  0.00     0.004 C 
ENDBRANCH  47  48
ENDBRANCH  46  47
ENDBRANCH  45  46
ENDBRANCH  44  45
ENDBRANCH  43  44
ENDBRANCH  40  43
ENDBRANCH  10  40
ENDBRANCH   7  10
ENDBRANCH   3   4
TORSDOF 17
ENDMDL
