MODEL 1
REMARK VINA RESULT: -7.565188575      0.000      0.000
REMARK  6 active torsions:
REMARK  status: ('A' for Active; 'I' for Inactive)
REMARK    1  A    between atoms: N1_1  and  C1_4 
REMARK    2  A    between atoms: N5_18  and  C6_19 
REMARK    3  A    between atoms: C6_19  and  O3_20 
REMARK    4  A    between atoms: O3_20  and  C7_21 
REMARK    5  A    between atoms: C7_21  and  C8_22 
REMARK    6  A    between atoms: C8_22  and  C9_23 
ROOT
HETATM    1  C1  UNL     1      43.486  50.682  49.704  1.00  0.00     0.679 A 
HETATM    2  N2  UNL     1      43.556  49.467  50.221  1.00  0.00    -0.176 N 
ATOM      3  H2  UNL     1      42.779  49.107  50.775  1.00  0.00     0.186 HD
HETATM    4  C2  UNL     1      44.677  48.677  50.016  1.00  0.00     0.134 A 
HETATM    5  N3  UNL     1      44.701  47.537  50.523  1.00  0.00    -0.384 N 
ATOM      6  H31 UNL     1      45.526  46.955  50.372  1.00  0.00     0.157 HD
ATOM      7  H32 UNL     1      43.919  47.185  51.077  1.00  0.00     0.157 HD
HETATM    8  C3  UNL     1      45.738  49.154  49.264  1.00  0.00     0.121 A 
HETATM    9  C4  UNL     1      46.875  48.429  48.998  1.00  0.00     0.267 A 
HETATM   10  O1  UNL     1      46.994  47.275  49.461  1.00  0.00    -0.267 OA
HETATM   11  N4  UNL     1      47.888  48.939  48.234  1.00  0.00    -0.274 N 
ATOM     12  H4  UNL     1      48.721  48.379  48.051  1.00  0.00     0.173 HD
HETATM   13  C5  UNL     1      47.786  50.160  47.733  1.00  0.00     0.332 A 
HETATM   14  O2  UNL     1      48.708  50.645  47.028  1.00  0.00    -0.246 OA
HETATM   15  N5  UNL     1      46.657  50.896  47.991  1.00  0.00    -0.262 N 
HETATM   16  C10 UNL     1      45.642  50.438  48.730  1.00  0.00     0.148 A 
HETATM   17  N7  UNL     1      44.527  51.126  48.978  1.00  0.00    -0.175 N 
ATOM     18  H7  UNL     1      44.458  52.064  48.585  1.00  0.00     0.186 HD
ENDROOT
BRANCH  15  19
HETATM   19  C6  UNL     1      46.615  52.213  47.405  1.00  0.00     0.305 C 
BRANCH  19  20
HETATM   20  O3  UNL     1      45.934  52.218  46.209  1.00  0.00    -0.371 OA
BRANCH  20  21
HETATM   21  C7  UNL     1      45.488  53.361  45.672  1.00  0.00     0.178 C 
BRANCH  21  22
HETATM   22  C8  UNL     1      44.004  53.495  46.062  1.00  0.00     0.126 C 
BRANCH  22  23
HETATM   23  C9  UNL     1      43.288  52.232  45.792  1.00  0.00     0.233 C 
HETATM   24  N6  UNL     1      42.314  51.812  46.731  1.00  0.00    -0.062 NA
HETATM   25  O4  UNL     1      43.529  51.553  44.771  1.00  0.00    -0.277 OA
ENDBRANCH  22  23
ENDBRANCH  21  22
ENDBRANCH  20  21
ENDBRANCH  19  20
ENDBRANCH  15  19
BRANCH   1  26
HETATM   26  N1  UNL     1      42.427  51.438  49.894  1.00  0.00    -0.234 N 
ATOM     27  H12 UNL     1      41.487  51.044  49.835  1.00  0.00     0.174 HD
ATOM     28  H11 UNL     1      42.521  52.431  50.104  1.00  0.00     0.174 HD
ENDBRANCH   1  26
TORSDOF 6
ENDMDL
MODEL 2
REMARK VINA RESULT: -7.292314698      1.206      1.206
REMARK  6 active torsions:
REMARK  status: ('A' for Active; 'I' for Inactive)
REMARK    1  A    between atoms: N1_1  and  C1_4 
REMARK    2  A    between atoms: N5_18  and  C6_19 
REMARK    3  A    between atoms: C6_19  and  O3_20 
REMARK    4  A    between atoms: O3_20  and  C7_21 
REMARK    5  A    between atoms: C7_21  and  C8_22 
REMARK    6  A    between atoms: C8_22  and  C9_23 
ROOT
HETATM    1  C1  UNL     1      42.765  50.720  48.722  1.00  0.00     0.679 A 
HETATM    2  N2  UNL     1      42.735  49.633  49.474  1.00  0.00    -0.176 N 
ATOM      3  H2  UNL     1      41.838  49.226  49.741  1.00  0.00     0.186 HD
HETATM    4  C2  UNL     1      43.912  49.039  49.904  1.00  0.00     0.134 A 
HETATM    5  N3  UNL     1      43.837  48.015  50.613  1.00  0.00    -0.384 N 
ATOM      6  H31 UNL     1      44.703  47.578  50.929  1.00  0.00     0.157 HD
ATOM      7  H32 UNL     1      42.935  47.616  50.875  1.00  0.00     0.157 HD
HETATM    8  C3  UNL     1      45.136  49.581  49.547  1.00  0.00     0.121 A 
HETATM    9  C4  UNL     1      46.347  49.044  49.915  1.00  0.00     0.267 A 
HETATM   10  O1  UNL     1      46.377  48.017  50.624  1.00  0.00    -0.267 OA
HETATM   11  N4  UNL     1      47.530  49.607  49.522  1.00  0.00    -0.274 N 
ATOM     12  H4  UNL     1      48.415  49.188  49.808  1.00  0.00     0.173 HD
HETATM   13  C5  UNL     1      47.524  50.697  48.769  1.00  0.00     0.332 A 
HETATM   14  O2  UNL     1      48.603  51.228  48.399  1.00  0.00    -0.246 OA
HETATM   15  N5  UNL     1      46.322  51.245  48.396  1.00  0.00    -0.262 N 
HETATM   16  C10 UNL     1      45.143  50.727  48.755  1.00  0.00     0.148 A 
HETATM   17  N7  UNL     1      43.963  51.229  48.388  1.00  0.00    -0.175 N 
ATOM     18  H7  UNL     1      43.971  52.068  47.807  1.00  0.00     0.186 HD
ENDROOT
BRANCH  15  19
HETATM   19  C6  UNL     1      46.397  52.425  47.571  1.00  0.00     0.305 C 
BRANCH  19  20
HETATM   20  O3  UNL     1      45.929  52.189  46.299  1.00  0.00    -0.371 OA
BRANCH  20  21
HETATM   21  C7  UNL     1      45.595  53.200  45.486  1.00  0.00     0.178 C 
BRANCH  21  22
HETATM   22  C8  UNL     1      44.270  53.784  46.011  1.00  0.00     0.126 C 
BRANCH  22  23
HETATM   23  C9  UNL     1      43.138  53.295  45.198  1.00  0.00     0.233 C 
HETATM   24  N6  UNL     1      42.745  51.943  45.360  1.00  0.00    -0.062 NA
HETATM   25  O4  UNL     1      42.543  54.044  44.395  1.00  0.00    -0.277 OA
ENDBRANCH  22  23
ENDBRANCH  21  22
ENDBRANCH  20  21
ENDBRANCH  19  20
ENDBRANCH  15  19
BRANCH   1  26
HETATM   26  N1  UNL     1      41.653  51.289  48.310  1.00  0.00    -0.234 N 
ATOM     27  H12 UNL     1      40.757  50.811  48.404  1.00  0.00     0.174 HD
ATOM     28  H11 UNL     1      41.664  52.217  47.889  1.00  0.00     0.174 HD
ENDBRANCH   1  26
TORSDOF 6
ENDMDL
MODEL 3
REMARK VINA RESULT: -7.271070712      1.857      4.643
REMARK  6 active torsions:
REMARK  status: ('A' for Active; 'I' for Inactive)
REMARK    1  A    between atoms: N1_1  and  C1_4 
REMARK    2  A    between atoms: N5_18  and  C6_19 
REMARK    3  A    between atoms: C6_19  and  O3_20 
REMARK    4  A    between atoms: O3_20  and  C7_21 
REMARK    5  A    between atoms: C7_21  and  C8_22 
REMARK    6  A    between atoms: C8_22  and  C9_23 
ROOT
HETATM    1  C1  UNL     1      43.122  50.936  51.443  1.00  0.00     0.679 A 
HETATM    2  N2  UNL     1      41.909  50.757  50.945  1.00  0.00    -0.176 N 
ATOM      3  H2  UNL     1      41.135  50.529  51.569  1.00  0.00     0.186 HD
HETATM    4  C2  UNL     1      41.681  50.879  49.583  1.00  0.00     0.134 A 
HETATM    5  N3  UNL     1      40.521  50.701  49.157  1.00  0.00    -0.384 N 
ATOM      6  H31 UNL     1      40.353  50.791  48.155  1.00  0.00     0.157 HD
ATOM      7  H32 UNL     1      39.753  50.472  49.789  1.00  0.00     0.157 HD
HETATM    8  C3  UNL     1      42.723  51.190  48.726  1.00  0.00     0.121 A 
HETATM    9  C4  UNL     1      42.578  51.347  47.368  1.00  0.00     0.267 A 
HETATM   10  O1  UNL     1      41.455  51.191  46.846  1.00  0.00    -0.267 OA
HETATM   11  N4  UNL     1      43.637  51.673  46.567  1.00  0.00    -0.274 N 
ATOM     12  H4  UNL     1      43.502  51.785  45.562  1.00  0.00     0.173 HD
HETATM   13  C5  UNL     1      44.839  51.844  47.098  1.00  0.00     0.332 A 
HETATM   14  O2  UNL     1      45.824  52.143  46.375  1.00  0.00    -0.246 OA
HETATM   15  N5  UNL     1      44.999  51.688  48.452  1.00  0.00    -0.262 N 
HETATM   16  C10 UNL     1      43.992  51.373  49.273  1.00  0.00     0.148 A 
HETATM   17  N7  UNL     1      44.120  51.237  50.593  1.00  0.00    -0.175 N 
ATOM     18  H7  UNL     1      45.049  51.372  50.991  1.00  0.00     0.186 HD
ENDROOT
BRANCH  15  19
HETATM   19  C6  UNL     1      46.333  51.898  48.956  1.00  0.00     0.305 C 
BRANCH  19  20
HETATM   20  O3  UNL     1      46.884  50.734  49.444  1.00  0.00    -0.371 OA
BRANCH  20  21
HETATM   21  C7  UNL     1      47.453  49.842  48.624  1.00  0.00     0.178 C 
BRANCH  21  22
HETATM   22  C8  UNL     1      46.682  48.519  48.788  1.00  0.00     0.126 C 
BRANCH  22  23
HETATM   23  C9  UNL     1      46.594  48.153  50.216  1.00  0.00     0.233 C 
HETATM   24  N6  UNL     1      45.306  48.084  50.802  1.00  0.00    -0.062 NA
HETATM   25  O4  UNL     1      47.618  47.908  50.889  1.00  0.00    -0.277 OA
ENDBRANCH  22  23
ENDBRANCH  21  22
ENDBRANCH  20  21
ENDBRANCH  19  20
ENDBRANCH  15  19
BRANCH   1  26
HETATM   26  N1  UNL     1      43.347  50.822  52.733  1.00  0.00    -0.234 N 
ATOM     27  H12 UNL     1      43.758  51.592  53.261  1.00  0.00     0.174 HD
ATOM     28  H11 UNL     1      43.116  49.964  53.233  1.00  0.00     0.174 HD
ENDBRANCH   1  26
TORSDOF 6
ENDMDL
MODEL 4
REMARK VINA RESULT: -7.200709666      2.410      4.637
REMARK  6 active torsions:
REMARK  status: ('A' for Active; 'I' for Inactive)
REMARK    1  A    between atoms: N1_1  and  C1_4 
REMARK    2  A    between atoms: N5_18  and  C6_19 
REMARK    3  A    between atoms: C6_19  and  O3_20 
REMARK    4  A    between atoms: O3_20  and  C7_21 
REMARK    5  A    between atoms: C7_21  and  C8_22 
REMARK    6  A    between atoms: C8_22  and  C9_23 
ROOT
HETATM    1  C1  UNL     1      43.612  52.209  52.327  1.00  0.00     0.679 A 
HETATM    2  N2  UNL     1      42.421  51.793  51.930  1.00  0.00    -0.176 N 
ATOM      3  H2  UNL     1      41.613  51.920  52.538  1.00  0.00     0.186 HD
HETATM    4  C2  UNL     1      42.263  51.187  50.693  1.00  0.00     0.134 A 
HETATM    5  N3  UNL     1      41.121  50.809  50.359  1.00  0.00    -0.384 N 
ATOM      6  H31 UNL     1      41.004  50.363  49.449  1.00  0.00     0.157 HD
ATOM      7  H32 UNL     1      40.317  50.939  50.975  1.00  0.00     0.157 HD
HETATM    8  C3  UNL     1      43.353  51.011  49.858  1.00  0.00     0.121 A 
HETATM    9  C4  UNL     1      43.278  50.438  48.610  1.00  0.00     0.267 A 
HETATM   10  O1  UNL     1      42.178  50.028  48.185  1.00  0.00    -0.267 OA
HETATM   11  N4  UNL     1      44.383  50.303  47.816  1.00  0.00    -0.274 N 
ATOM     12  H4  UNL     1      44.300  49.875  46.894  1.00  0.00     0.173 HD
HETATM   13  C5  UNL     1      45.561  50.729  48.245  1.00  0.00     0.332 A 
HETATM   14  O2  UNL     1      46.588  50.613  47.527  1.00  0.00    -0.246 OA
HETATM   15  N5  UNL     1      45.651  51.302  49.489  1.00  0.00    -0.262 N 
HETATM   16  C10 UNL     1      44.598  51.457  50.298  1.00  0.00     0.148 A 
HETATM   17  N7  UNL     1      44.658  52.028  51.501  1.00  0.00    -0.175 N 
ATOM     18  H7  UNL     1      45.569  52.355  51.821  1.00  0.00     0.186 HD
ENDROOT
BRANCH  15  19
HETATM   19  C6  UNL     1      46.964  51.749  49.883  1.00  0.00     0.305 C 
BRANCH  19  20
HETATM   20  O3  UNL     1      47.545  50.892  50.790  1.00  0.00    -0.371 OA
BRANCH  20  21
HETATM   21  C7  UNL     1      48.512  50.043  50.418  1.00  0.00     0.178 C 
BRANCH  21  22
HETATM   22  C8  UNL     1      48.147  48.662  50.993  1.00  0.00     0.126 C 
BRANCH  22  23
HETATM   23  C9  UNL     1      47.043  48.061  50.218  1.00  0.00     0.233 C 
HETATM   24  N6  UNL     1      45.752  48.059  50.803  1.00  0.00    -0.062 NA
HETATM   25  O4  UNL     1      47.234  47.572  49.085  1.00  0.00    -0.277 OA
ENDBRANCH  22  23
ENDBRANCH  21  22
ENDBRANCH  20  21
ENDBRANCH  19  20
ENDBRANCH  15  19
BRANCH   1  26
HETATM   26  N1  UNL     1      43.772  52.785  53.498  1.00  0.00    -0.234 N 
ATOM     27  H12 UNL     1      43.393  53.715  53.679  1.00  0.00     0.174 HD
ATOM     28  H11 UNL     1      44.276  52.315  54.250  1.00  0.00     0.174 HD
ENDBRANCH   1  26
TORSDOF 6
ENDMDL
MODEL 5
REMARK VINA RESULT: -7.193966248      1.391      1.414
REMARK  6 active torsions:
REMARK  status: ('A' for Active; 'I' for Inactive)
REMARK    1  A    between atoms: N1_1  and  C1_4 
REMARK    2  A    between atoms: N5_18  and  C6_19 
REMARK    3  A    between atoms: C6_19  and  O3_20 
REMARK    4  A    between atoms: O3_20  and  C7_21 
REMARK    5  A    between atoms: C7_21  and  C8_22 
REMARK    6  A    between atoms: C8_22  and  C9_23 
ROOT
HETATM    1  C1  UNL     1      42.687  50.665  49.395  1.00  0.00     0.679 A 
HETATM    2  N2  UNL     1      42.794  49.414  49.813  1.00  0.00    -0.176 N 
ATOM      3  H2  UNL     1      41.956  48.843  49.917  1.00  0.00     0.186 HD
HETATM    4  C2  UNL     1      44.035  48.874  50.111  1.00  0.00     0.134 A 
HETATM    5  N3  UNL     1      44.089  47.690  50.504  1.00  0.00    -0.384 N 
ATOM      6  H31 UNL     1      45.003  47.292  50.723  1.00  0.00     0.157 HD
ATOM      7  H32 UNL     1      43.245  47.125  50.605  1.00  0.00     0.157 HD
HETATM    8  C3  UNL     1      45.181  49.640  49.973  1.00  0.00     0.121 A 
HETATM    9  C4  UNL     1      46.449  49.175  50.229  1.00  0.00     0.267 A 
HETATM   10  O1  UNL     1      46.608  48.001  50.626  1.00  0.00    -0.267 OA
HETATM   11  N4  UNL     1      47.551  49.967  50.060  1.00  0.00    -0.274 N 
ATOM     12  H4  UNL     1      48.481  49.596  50.256  1.00  0.00     0.173 HD
HETATM   13  C5  UNL     1      47.408  51.215  49.641  1.00  0.00     0.332 A 
HETATM   14  O2  UNL     1      48.411  51.957  49.480  1.00  0.00    -0.246 OA
HETATM   15  N5  UNL     1      46.148  51.693  49.383  1.00  0.00    -0.262 N 
HETATM   16  C10 UNL     1      45.044  50.955  49.532  1.00  0.00     0.148 A 
HETATM   17  N7  UNL     1      43.812  51.391  49.268  1.00  0.00    -0.175 N 
ATOM     18  H7  UNL     1      43.714  52.353  48.944  1.00  0.00     0.186 HD
ENDROOT
BRANCH  15  19
HETATM   19  C6  UNL     1      46.074  53.057  48.923  1.00  0.00     0.305 C 
BRANCH  19  20
HETATM   20  O3  UNL     1      45.800  53.129  47.576  1.00  0.00    -0.371 OA
BRANCH  20  21
HETATM   21  C7  UNL     1      45.067  54.129  47.071  1.00  0.00     0.178 C 
BRANCH  21  22
HETATM   22  C8  UNL     1      44.643  53.708  45.652  1.00  0.00     0.126 C 
BRANCH  22  23
HETATM   23  C9  UNL     1      43.650  52.617  45.718  1.00  0.00     0.233 C 
HETATM   24  N6  UNL     1      42.551  52.777  46.597  1.00  0.00    -0.062 NA
HETATM   25  O4  UNL     1      43.770  51.586  45.023  1.00  0.00    -0.277 OA
ENDBRANCH  22  23
ENDBRANCH  21  22
ENDBRANCH  20  21
ENDBRANCH  19  20
ENDBRANCH  15  19
BRANCH   1  26
HETATM   26  N1  UNL     1      41.514  51.185  49.110  1.00  0.00    -0.234 N 
ATOM     27  H12 UNL     1      41.369  52.194  49.141  1.00  0.00     0.174 HD
ATOM     28  H11 UNL     1      40.725  50.592  48.853  1.00  0.00     0.174 HD
ENDBRANCH   1  26
TORSDOF 6
ENDMDL
