MODEL 1
REMARK VINA RESULT: -7.152997823      0.000      0.000
REMARK  10 active torsions:
REMARK  status: ('A' for Active; 'I' for Inactive)
REMARK    1  A    between atoms: C4_4  and  C5_5 
REMARK    2  A    between atoms: C5_5  and  N1_6 
REMARK    3  A    between atoms: N1_6  and  C6_8 
REMARK    4  A    between atoms: C7_11  and  N3_12 
REMARK    5  A    between atoms: N3_12  and  C8_14 
REMARK    6  A    between atoms: C8_14  and  N4_15 
REMARK    7  A    between atoms: C9_21  and  N6_22 
REMARK    8  A    between atoms: N6_22  and  C10_24 
REMARK    9  A    between atoms: C10_24  and  C11_25 
REMARK   10  A    between atoms: C11_25  and  O1_26 
ROOT
HETATM    1  C6  UNL     1      43.886  49.165  50.558  1.00  0.00     0.707 A 
HETATM    2  N2  UNL     1      43.072  49.706  49.643  1.00  0.00    -0.021 N 
ATOM      3  H2  UNL     1      43.172  49.470  48.656  1.00  0.00     0.203 HD
HETATM    4  C7  UNL     1      42.107  50.582  50.054  1.00  0.00     0.708 A 
HETATM    5  N5  UNL     1      41.948  50.915  51.334  1.00  0.00    -0.021 N 
ATOM      6  H5  UNL     1      41.220  51.571  51.618  1.00  0.00     0.203 HD
HETATM    7  C9  UNL     1      42.778  50.360  52.246  1.00  0.00     0.707 A 
HETATM    8  N7  UNL     1      43.733  49.496  51.864  1.00  0.00    -0.022 N 
ATOM      9  H7  UNL     1      44.350  49.085  52.565  1.00  0.00     0.203 HD
ENDROOT
BRANCH   1  10
HETATM   10  N1  UNL     1      44.795  48.340  50.170  1.00  0.00    -0.219 N 
ATOM     11  H1  UNL     1      44.748  47.374  50.493  1.00  0.00     0.178 HD
BRANCH  10  12
HETATM   12  C5  UNL     1      45.883  48.726  49.293  1.00  0.00     0.205 C 
BRANCH  12  13
HETATM   13  C4  UNL     1      47.158  48.781  50.070  1.00  0.00     0.096 A 
HETATM   14  C3  UNL     1      47.976  49.850  50.310  1.00  0.00     0.063 A 
HETATM   15  C2  UNL     1      49.017  49.360  51.078  1.00  0.00     0.031 A 
HETATM   16  C1  UNL     1      50.183  50.119  51.613  1.00  0.00     0.070 C 
HETATM   17  N8  UNL     1      48.793  48.054  51.268  1.00  0.00    -0.266 N 
HETATM   18  O2  UNL     1      47.691  47.742  50.661  1.00  0.00    -0.241 OA
ATOM     19  H8  UNL     1      49.386  47.415  51.797  1.00  0.00     0.194 HD
ENDBRANCH  12  13
ENDBRANCH  10  12
ENDBRANCH   1  10
BRANCH   4  20
HETATM   20  N3  UNL     1      41.361  51.067  49.140  1.00  0.00    -0.201 N 
ATOM     21  H3  UNL     1      40.412  51.352  49.376  1.00  0.00     0.179 HD
BRANCH  20  22
HETATM   22  C8  UNL     1      41.821  51.223  47.783  1.00  0.00     0.368 C 
BRANCH  22  23
HETATM   23  N4  UNL     1      42.488  52.508  47.679  1.00  0.00    -0.063 N 
ATOM     24  H43 UNL     1      42.545  52.847  46.719  1.00  0.00     0.276 HD
ATOM     25  H42 UNL     1      41.932  53.274  48.061  1.00  0.00     0.276 HD
ATOM     26  H41 UNL     1      43.404  52.426  48.122  1.00  0.00     0.276 HD
ENDBRANCH  22  23
ENDBRANCH  20  22
ENDBRANCH   4  20
BRANCH   7  27
HETATM   27  N6  UNL     1      42.651  50.659  53.477  1.00  0.00    -0.223 N 
ATOM     28  H6  UNL     1      42.434  49.923  54.149  1.00  0.00     0.177 HD
BRANCH  27  29
HETATM   29  C10 UNL     1      42.805  52.006  53.938  1.00  0.00     0.164 C 
BRANCH  29  30
HETATM   30  C11 UNL     1      42.604  52.057  55.450  1.00  0.00     0.184 C 
BRANCH  30  31
HETATM   31  O1  UNL     1      41.964  53.253  55.754  1.00  0.00    -0.399 OA
ATOM     32  H1  UNL     1      41.252  53.057  56.352  1.00  0.00     0.209 HD
ENDBRANCH  30  31
ENDBRANCH  29  30
ENDBRANCH  27  29
ENDBRANCH   7  27
TORSDOF 10
ENDMDL
MODEL 2
REMARK VINA RESULT: -7.128453177      2.385      4.415
REMARK  10 active torsions:
REMARK  status: ('A' for Active; 'I' for Inactive)
REMARK    1  A    between atoms: C4_4  and  C5_5 
REMARK    2  A    between atoms: C5_5  and  N1_6 
REMARK    3  A    between atoms: N1_6  and  C6_8 
REMARK    4  A    between atoms: C7_11  and  N3_12 
REMARK    5  A    between atoms: N3_12  and  C8_14 
REMARK    6  A    between atoms: C8_14  and  N4_15 
REMARK    7  A    between atoms: C9_21  and  N6_22 
REMARK    8  A    between atoms: N6_22  and  C10_24 
REMARK    9  A    between atoms: C10_24  and  C11_25 
REMARK   10  A    between atoms: C11_25  and  O1_26 
ROOT
HETATM    1  C6  UNL     1      44.308  49.480  49.646  1.00  0.00     0.707 A 
HETATM    2  N2  UNL     1      43.765  49.979  50.764  1.00  0.00    -0.021 N 
ATOM      3  H2  UNL     1      44.035  49.615  51.678  1.00  0.00     0.203 HD
HETATM    4  C7  UNL     1      42.844  50.983  50.661  1.00  0.00     0.708 A 
HETATM    5  N5  UNL     1      42.467  51.482  49.485  1.00  0.00    -0.021 N 
ATOM      6  H5  UNL     1      41.778  52.232  49.430  1.00  0.00     0.203 HD
HETATM    7  C9  UNL     1      43.023  50.968  48.364  1.00  0.00     0.707 A 
HETATM    8  N7  UNL     1      43.931  49.981  48.443  1.00  0.00    -0.022 N 
ATOM      9  H7  UNL     1      44.342  49.605  47.588  1.00  0.00     0.203 HD
ENDROOT
BRANCH   1  10
HETATM   10  N1  UNL     1      45.175  48.534  49.745  1.00  0.00    -0.219 N 
ATOM     11  H1  UNL     1      44.969  47.744  50.354  1.00  0.00     0.178 HD
BRANCH  10  12
HETATM   12  C5  UNL     1      46.434  48.546  49.026  1.00  0.00     0.205 C 
BRANCH  12  13
HETATM   13  C4  UNL     1      47.563  48.705  49.992  1.00  0.00     0.096 A 
HETATM   14  C3  UNL     1      48.315  49.813  50.266  1.00  0.00     0.063 A 
HETATM   15  C2  UNL     1      49.221  49.421  51.235  1.00  0.00     0.031 A 
HETATM   16  C1  UNL     1      50.272  50.257  51.882  1.00  0.00     0.070 C 
HETATM   17  N8  UNL     1      48.987  48.131  51.501  1.00  0.00    -0.266 N 
HETATM   18  O2  UNL     1      48.006  47.736  50.753  1.00  0.00    -0.241 OA
ATOM     19  H8  UNL     1      49.494  47.557  52.175  1.00  0.00     0.194 HD
ENDBRANCH  12  13
ENDBRANCH  10  12
ENDBRANCH   1  10
BRANCH   4  20
HETATM   20  N3  UNL     1      42.362  51.419  51.757  1.00  0.00    -0.201 N 
ATOM     21  H3  UNL     1      41.352  51.406  51.893  1.00  0.00     0.179 HD
BRANCH  20  22
HETATM   22  C8  UNL     1      43.202  51.930  52.811  1.00  0.00     0.368 C 
BRANCH  22  23
HETATM   23  N4  UNL     1      43.881  53.112  52.312  1.00  0.00    -0.063 N 
ATOM     24  H43 UNL     1      44.264  52.981  51.377  1.00  0.00     0.276 HD
ATOM     25  H42 UNL     1      43.238  53.873  52.091  1.00  0.00     0.276 HD
ATOM     26  H41 UNL     1      44.591  53.381  52.995  1.00  0.00     0.276 HD
ENDBRANCH  22  23
ENDBRANCH  20  22
ENDBRANCH   4  20
BRANCH   7  27
HETATM   27  N6  UNL     1      42.683  51.425  47.226  1.00  0.00    -0.223 N 
ATOM     28  H6  UNL     1      42.118  50.846  46.604  1.00  0.00     0.177 HD
BRANCH  27  29
HETATM   29  C10 UNL     1      43.075  52.734  46.799  1.00  0.00     0.164 C 
BRANCH  29  30
HETATM   30  C11 UNL     1      44.098  52.622  45.673  1.00  0.00     0.184 C 
BRANCH  30  31
HETATM   31  O1  UNL     1      43.789  51.491  44.928  1.00  0.00    -0.399 OA
ATOM     32  H1  UNL     1      44.556  51.259  44.418  1.00  0.00     0.209 HD
ENDBRANCH  30  31
ENDBRANCH  29  30
ENDBRANCH  27  29
ENDBRANCH   7  27
TORSDOF 10
ENDMDL
MODEL 3
REMARK VINA RESULT: -7.081906658      2.297      2.555
REMARK  10 active torsions:
REMARK  status: ('A' for Active; 'I' for Inactive)
REMARK    1  A    between atoms: C4_4  and  C5_5 
REMARK    2  A    between atoms: C5_5  and  N1_6 
REMARK    3  A    between atoms: N1_6  and  C6_8 
REMARK    4  A    between atoms: C7_11  and  N3_12 
REMARK    5  A    between atoms: N3_12  and  C8_14 
REMARK    6  A    between atoms: C8_14  and  N4_15 
REMARK    7  A    between atoms: C9_21  and  N6_22 
REMARK    8  A    between atoms: N6_22  and  C10_24 
REMARK    9  A    between atoms: C10_24  and  C11_25 
REMARK   10  A    between atoms: C11_25  and  O1_26 
ROOT
HETATM    1  C6  UNL     1      44.530  52.212  50.734  1.00  0.00     0.707 A 
HETATM    2  N2  UNL     1      43.549  51.490  50.177  1.00  0.00    -0.021 N 
ATOM      3  H2  UNL     1      43.613  51.192  49.205  1.00  0.00     0.203 HD
HETATM    4  C7  UNL     1      42.461  51.160  50.935  1.00  0.00     0.708 A 
HETATM    5  N5  UNL     1      42.342  51.533  52.209  1.00  0.00    -0.021 N 
ATOM      6  H5  UNL     1      41.521  51.275  52.756  1.00  0.00     0.203 HD
HETATM    7  C9  UNL     1      43.341  52.262  52.756  1.00  0.00     0.707 A 
HETATM    8  N7  UNL     1      44.420  52.597  52.030  1.00  0.00    -0.022 N 
ATOM      9  H7  UNL     1      45.165  53.146  52.459  1.00  0.00     0.203 HD
ENDROOT
BRANCH   1  10
HETATM   10  N1  UNL     1      45.555  52.522  50.020  1.00  0.00    -0.219 N 
ATOM     11  H1  UNL     1      45.665  53.490  49.718  1.00  0.00     0.178 HD
BRANCH  10  12
HETATM   12  C5  UNL     1      46.559  51.554  49.625  1.00  0.00     0.205 C 
BRANCH  12  13
HETATM   13  C4  UNL     1      47.662  51.535  50.633  1.00  0.00     0.096 A 
HETATM   14  C3  UNL     1      48.754  50.716  50.701  1.00  0.00     0.063 A 
HETATM   15  C2  UNL     1      49.455  51.119  51.824  1.00  0.00     0.031 A 
HETATM   16  C1  UNL     1      50.728  50.549  52.349  1.00  0.00     0.070 C 
HETATM   17  N8  UNL     1      48.779  52.136  52.373  1.00  0.00    -0.266 N 
HETATM   18  O2  UNL     1      47.727  52.358  51.650  1.00  0.00    -0.241 OA
ATOM     19  H8  UNL     1      49.046  52.648  53.214  1.00  0.00     0.194 HD
ENDBRANCH  12  13
ENDBRANCH  10  12
ENDBRANCH   1  10
BRANCH   4  20
HETATM   20  N3  UNL     1      41.559  50.472  50.354  1.00  0.00    -0.201 N 
ATOM     21  H3  UNL     1      40.930  49.902  50.920  1.00  0.00     0.179 HD
BRANCH  20  22
HETATM   22  C8  UNL     1      41.401  50.475  48.921  1.00  0.00     0.368 C 
BRANCH  22  23
HETATM   23  N4  UNL     1      41.644  49.127  48.439  1.00  0.00    -0.063 N 
ATOM     24  H43 UNL     1      41.801  48.461  49.194  1.00  0.00     0.276 HD
ATOM     25  H42 UNL     1      40.810  48.692  48.044  1.00  0.00     0.276 HD
ATOM     26  H41 UNL     1      42.421  49.164  47.778  1.00  0.00     0.276 HD
ENDBRANCH  22  23
ENDBRANCH  20  22
ENDBRANCH   4  20
BRANCH   7  27
HETATM   27  N6  UNL     1      43.256  52.633  53.971  1.00  0.00    -0.223 N 
ATOM     28  H6  UNL     1      43.553  53.574  54.228  1.00  0.00     0.177 HD
BRANCH  27  29
HETATM   29  C10 UNL     1      42.753  51.756  54.986  1.00  0.00     0.164 C 
BRANCH  29  30
HETATM   30  C11 UNL     1      42.412  52.561  56.237  1.00  0.00     0.184 C 
BRANCH  30  31
HETATM   31  O1  UNL     1      43.317  53.612  56.326  1.00  0.00    -0.399 OA
ATOM     32  H1  UNL     1      42.989  54.223  56.975  1.00  0.00     0.209 HD
ENDBRANCH  30  31
ENDBRANCH  29  30
ENDBRANCH  27  29
ENDBRANCH   7  27
TORSDOF 10
ENDMDL
MODEL 4
REMARK VINA RESULT: -7.059302139      3.044      4.395
REMARK  10 active torsions:
REMARK  status: ('A' for Active; 'I' for Inactive)
REMARK    1  A    between atoms: C4_4  and  C5_5 
REMARK    2  A    between atoms: C5_5  and  N1_6 
REMARK    3  A    between atoms: N1_6  and  C6_8 
REMARK    4  A    between atoms: C7_11  and  N3_12 
REMARK    5  A    between atoms: N3_12  and  C8_14 
REMARK    6  A    between atoms: C8_14  and  N4_15 
REMARK    7  A    between atoms: C9_21  and  N6_22 
REMARK    8  A    between atoms: N6_22  and  C10_24 
REMARK    9  A    between atoms: C10_24  and  C11_25 
REMARK   10  A    between atoms: C11_25  and  O1_26 
ROOT
HETATM    1  C6  UNL     1      44.508  52.080  50.518  1.00  0.00     0.707 A 
HETATM    2  N2  UNL     1      43.456  51.439  49.992  1.00  0.00    -0.021 N 
ATOM      3  H2  UNL     1      43.459  51.155  49.013  1.00  0.00     0.203 HD
HETATM    4  C7  UNL     1      42.379  51.171  50.790  1.00  0.00     0.708 A 
HETATM    5  N5  UNL     1      42.341  51.527  52.073  1.00  0.00    -0.021 N 
ATOM      6  H5  UNL     1      41.526  51.318  52.651  1.00  0.00     0.203 HD
HETATM    7  C9  UNL     1      43.410  52.175  52.589  1.00  0.00     0.707 A 
HETATM    8  N7  UNL     1      44.479  52.446  51.824  1.00  0.00    -0.022 N 
ATOM      9  H7  UNL     1      45.278  52.934  52.229  1.00  0.00     0.203 HD
ENDROOT
BRANCH   1  10
HETATM   10  N1  UNL     1      45.522  52.330  49.766  1.00  0.00    -0.219 N 
ATOM     11  H1  UNL     1      46.111  53.132  49.991  1.00  0.00     0.178 HD
BRANCH  10  12
HETATM   12  C5  UNL     1      45.862  51.522  48.611  1.00  0.00     0.205 C 
BRANCH  12  13
HETATM   13  C4  UNL     1      45.019  51.929  47.447  1.00  0.00     0.096 A 
HETATM   14  C3  UNL     1      45.011  53.111  46.759  1.00  0.00     0.063 A 
HETATM   15  C2  UNL     1      44.048  52.966  45.778  1.00  0.00     0.031 A 
HETATM   16  C1  UNL     1      43.643  53.970  44.753  1.00  0.00     0.070 C 
HETATM   17  N8  UNL     1      43.527  51.740  45.906  1.00  0.00    -0.266 N 
HETATM   18  O2  UNL     1      44.119  51.153  46.898  1.00  0.00    -0.241 OA
ATOM     19  H8  UNL     1      42.793  51.337  45.325  1.00  0.00     0.194 HD
ENDBRANCH  12  13
ENDBRANCH  10  12
ENDBRANCH   1  10
BRANCH   4  20
HETATM   20  N3  UNL     1      41.408  50.559  50.237  1.00  0.00    -0.201 N 
ATOM     21  H3  UNL     1      40.715  50.098  50.825  1.00  0.00     0.179 HD
BRANCH  20  22
HETATM   22  C8  UNL     1      41.259  50.500  48.804  1.00  0.00     0.368 C 
BRANCH  22  23
HETATM   23  N4  UNL     1      41.763  49.215  48.352  1.00  0.00    -0.063 N 
ATOM     24  H43 UNL     1      41.638  49.074  47.351  1.00  0.00     0.276 HD
ATOM     25  H42 UNL     1      42.782  49.162  48.372  1.00  0.00     0.276 HD
ATOM     26  H41 UNL     1      41.318  48.487  48.912  1.00  0.00     0.276 HD
ENDBRANCH  22  23
ENDBRANCH  20  22
ENDBRANCH   4  20
BRANCH   7  27
HETATM   27  N6  UNL     1      43.402  52.527  53.812  1.00  0.00    -0.223 N 
ATOM     28  H6  UNL     1      43.875  53.388  54.087  1.00  0.00     0.177 HD
BRANCH  27  29
HETATM   29  C10 UNL     1      42.742  51.742  54.812  1.00  0.00     0.164 C 
BRANCH  29  30
HETATM   30  C11 UNL     1      42.558  52.572  56.079  1.00  0.00     0.184 C 
BRANCH  30  31
HETATM   31  O1  UNL     1      41.697  53.621  55.779  1.00  0.00    -0.399 OA
ATOM     32  H1  UNL     1      41.869  53.892  54.885  1.00  0.00     0.209 HD
ENDBRANCH  30  31
ENDBRANCH  29  30
ENDBRANCH  27  29
ENDBRANCH   7  27
TORSDOF 10
ENDMDL
MODEL 5
REMARK VINA RESULT: -6.999436053      2.136      2.350
REMARK  10 active torsions:
REMARK  status: ('A' for Active; 'I' for Inactive)
REMARK    1  A    between atoms: C4_4  and  C5_5 
REMARK    2  A    between atoms: C5_5  and  N1_6 
REMARK    3  A    between atoms: N1_6  and  C6_8 
REMARK    4  A    between atoms: C7_11  and  N3_12 
REMARK    5  A    between atoms: N3_12  and  C8_14 
REMARK    6  A    between atoms: C8_14  and  N4_15 
REMARK    7  A    between atoms: C9_21  and  N6_22 
REMARK    8  A    between atoms: N6_22  and  C10_24 
REMARK    9  A    between atoms: C10_24  and  C11_25 
REMARK   10  A    between atoms: C11_25  and  O1_26 
ROOT
HETATM    1  C6  UNL     1      44.602  51.887  50.629  1.00  0.00     0.707 A 
HETATM    2  N2  UNL     1      43.551  51.309  50.033  1.00  0.00    -0.021 N 
ATOM      3  H2  UNL     1      43.611  50.999  49.063  1.00  0.00     0.203 HD
HETATM    4  C7  UNL     1      42.397  51.141  50.746  1.00  0.00     0.708 A 
HETATM    5  N5  UNL     1      42.282  51.533  52.013  1.00  0.00    -0.021 N 
ATOM      6  H5  UNL     1      41.411  51.398  52.527  1.00  0.00     0.203 HD
HETATM    7  C9  UNL     1      43.351  52.117  52.601  1.00  0.00     0.707 A 
HETATM    8  N7  UNL     1      44.495  52.291  51.920  1.00  0.00    -0.022 N 
ATOM      9  H7  UNL     1      45.293  52.732  52.378  1.00  0.00     0.203 HD
ENDROOT
BRANCH   1  10
HETATM   10  N1  UNL     1      45.688  52.045  49.957  1.00  0.00    -0.219 N 
ATOM     11  H1  UNL     1      46.479  52.505  50.407  1.00  0.00     0.178 HD
BRANCH  10  12
HETATM   12  C5  UNL     1      45.835  51.596  48.586  1.00  0.00     0.205 C 
BRANCH  12  13
HETATM   13  C4  UNL     1      46.856  50.507  48.521  1.00  0.00     0.096 A 
HETATM   14  C3  UNL     1      48.076  50.431  49.132  1.00  0.00     0.063 A 
HETATM   15  C2  UNL     1      48.615  49.218  48.741  1.00  0.00     0.031 A 
HETATM   16  C1  UNL     1      49.937  48.648  49.130  1.00  0.00     0.070 C 
HETATM   17  N8  UNL     1      47.726  48.626  47.935  1.00  0.00    -0.266 N 
HETATM   18  O2  UNL     1      46.700  49.410  47.824  1.00  0.00    -0.241 OA
ATOM     19  H8  UNL     1      47.836  47.717  47.486  1.00  0.00     0.194 HD
ENDBRANCH  12  13
ENDBRANCH  10  12
ENDBRANCH   1  10
BRANCH   4  20
HETATM   20  N3  UNL     1      41.431  50.584  50.128  1.00  0.00    -0.201 N 
ATOM     21  H3  UNL     1      40.620  50.270  50.660  1.00  0.00     0.179 HD
BRANCH  20  22
HETATM   22  C8  UNL     1      41.450  50.386  48.701  1.00  0.00     0.368 C 
BRANCH  22  23
HETATM   23  N4  UNL     1      41.612  48.965  48.446  1.00  0.00    -0.063 N 
ATOM     24  H43 UNL     1      41.030  48.388  49.052  1.00  0.00     0.276 HD
ATOM     25  H42 UNL     1      41.209  48.676  47.554  1.00  0.00     0.276 HD
ATOM     26  H41 UNL     1      42.604  48.742  48.522  1.00  0.00     0.276 HD
ENDBRANCH  22  23
ENDBRANCH  20  22
ENDBRANCH   4  20
BRANCH   7  27
HETATM   27  N6  UNL     1      43.271  52.503  53.811  1.00  0.00    -0.223 N 
ATOM     28  H6  UNL     1      43.596  53.437  54.060  1.00  0.00     0.177 HD
BRANCH  27  29
HETATM   29  C10 UNL     1      42.735  51.653  54.832  1.00  0.00     0.164 C 
BRANCH  29  30
HETATM   30  C11 UNL     1      42.490  52.466  56.100  1.00  0.00     0.184 C 
BRANCH  30  31
HETATM   31  O1  UNL     1      41.754  53.591  55.749  1.00  0.00    -0.399 OA
ATOM     32  H1  UNL     1      41.863  53.729  54.815  1.00  0.00     0.209 HD
ENDBRANCH  30  31
ENDBRANCH  29  30
ENDBRANCH  27  29
ENDBRANCH   7  27
TORSDOF 10
ENDMDL
