MODEL 1
REMARK VINA RESULT: -6.026426466      0.000      0.000
REMARK  7 active torsions:
REMARK  status: ('A' for Active; 'I' for Inactive)
REMARK    1  A    between atoms: N1_2  and  C3_4 
REMARK    2  A    between atoms: C5_10  and  N4_11 
REMARK    3  A    between atoms: C8_19  and  N6_20 
REMARK    4  A    between atoms: N6_20  and  C9_22 
REMARK    5  A    between atoms: C9_22  and  C10_23 
REMARK    6  A    between atoms: C10_23  and  N7_24 
REMARK    7  A    between atoms: N7_24  and  C11_26 
ROOT
HETATM    1  C3  UNL     1      45.841  51.538  47.471  1.00  0.00     0.682 A 
HETATM    2  N2  UNL     1      47.098  51.075  47.504  1.00  0.00    -0.175 N 
ATOM      3  H2  UNL     1      47.801  51.486  46.889  1.00  0.00     0.186 HD
HETATM    4  C4  UNL     1      47.452  50.065  48.344  1.00  0.00     0.156 A 
HETATM    5  N3  UNL     1      48.724  49.611  48.373  1.00  0.00    -0.175 N 
ATOM      6  H3  UNL     1      49.420  50.029  47.755  1.00  0.00     0.186 HD
HETATM    7  C5  UNL     1      49.086  48.621  49.201  1.00  0.00     0.680 A 
HETATM    8  N5  UNL     1      48.187  48.035  50.043  1.00  0.00    -0.155 N 
ATOM      9  H5  UNL     1      48.482  47.283  50.665  1.00  0.00     0.187 HD
HETATM   10  C6  UNL     1      46.909  48.456  50.047  1.00  0.00     0.277 A 
HETATM   11  O1  UNL     1      46.076  47.916  50.827  1.00  0.00    -0.266 OA
HETATM   12  C7  UNL     1      46.544  49.475  49.194  1.00  0.00     0.122 A 
HETATM   13  C8  UNL     1      45.240  49.963  49.151  1.00  0.00     0.136 A 
HETATM   14  N9  UNL     1      44.947  50.963  48.302  1.00  0.00    -0.176 N 
ATOM     15  H9  UNL     1      43.987  51.308  48.284  1.00  0.00     0.186 HD
ENDROOT
BRANCH  13  16
HETATM   16  N6  UNL     1      44.397  49.407  49.929  1.00  0.00    -0.373 N 
ATOM     17  H6  UNL     1      44.167  48.440  49.700  1.00  0.00     0.161 HD
BRANCH  16  18
HETATM   18  C9  UNL     1      43.733  49.929  51.063  1.00  0.00     0.141 C 
BRANCH  18  19
HETATM   19  C10 UNL     1      42.767  51.046  50.775  1.00  0.00     0.140 C 
BRANCH  19  20
HETATM   20  N7  UNL     1      41.507  50.655  50.234  1.00  0.00    -0.385 N 
ATOM     21  H7  UNL     1      40.725  50.542  50.880  1.00  0.00     0.160 HD
BRANCH  20  22
HETATM   22  C11 UNL     1      41.273  50.415  48.883  1.00  0.00     0.168 C 
HETATM   23  N8  UNL     1      41.385  49.192  48.434  1.00  0.00    -0.396 N 
ATOM     24  H82 UNL     1      41.640  48.440  49.074  1.00  0.00     0.156 HD
ATOM     25  H81 UNL     1      41.213  49.017  47.444  1.00  0.00     0.156 HD
ENDBRANCH  20  22
ENDBRANCH  19  20
ENDBRANCH  18  19
ENDBRANCH  16  18
ENDBRANCH  13  16
BRANCH   1  26
HETATM   26  N1  UNL     1      45.450  52.603  46.590  1.00  0.00    -0.226 N 
HETATM   27  C1  UNL     1      44.230  52.628  45.851  1.00  0.00     0.168 C 
HETATM   28  C2  UNL     1      46.366  53.731  46.446  1.00  0.00     0.168 C 
ENDBRANCH   1  26
BRANCH   7  29
HETATM   29  N4  UNL     1      50.301  48.222  49.194  1.00  0.00    -0.234 N 
ATOM     30  H42 UNL     1      50.605  47.538  48.502  1.00  0.00     0.174 HD
ATOM     31  H41 UNL     1      50.948  48.599  49.885  1.00  0.00     0.174 HD
ENDBRANCH   7  29
TORSDOF 7
ENDMDL
MODEL 2
REMARK VINA RESULT: -6.022209668      1.307      1.935
REMARK  7 active torsions:
REMARK  status: ('A' for Active; 'I' for Inactive)
REMARK    1  A    between atoms: N1_2  and  C3_4 
REMARK    2  A    between atoms: C5_10  and  N4_11 
REMARK    3  A    between atoms: C8_19  and  N6_20 
REMARK    4  A    between atoms: N6_20  and  C9_22 
REMARK    5  A    between atoms: C9_22  and  C10_23 
REMARK    6  A    between atoms: C10_23  and  N7_24 
REMARK    7  A    between atoms: N7_24  and  C11_26 
ROOT
HETATM    1  C3  UNL     1      45.587  51.788  47.204  1.00  0.00     0.682 A 
HETATM    2  N2  UNL     1      46.690  51.309  47.795  1.00  0.00    -0.175 N 
ATOM      3  H2  UNL     1      47.599  51.709  47.562  1.00  0.00     0.186 HD
HETATM    4  C4  UNL     1      46.617  50.297  48.702  1.00  0.00     0.156 A 
HETATM    5  N3  UNL     1      47.735  49.827  49.296  1.00  0.00    -0.175 N 
ATOM      6  H3  UNL     1      48.640  50.233  49.056  1.00  0.00     0.186 HD
HETATM    7  C5  UNL     1      47.675  48.835  50.195  1.00  0.00     0.680 A 
HETATM    8  N5  UNL     1      46.487  48.263  50.544  1.00  0.00    -0.155 N 
ATOM      9  H5  UNL     1      46.461  47.509  51.230  1.00  0.00     0.187 HD
HETATM   10  C6  UNL     1      45.347  48.701  49.976  1.00  0.00     0.277 A 
HETATM   11  O1  UNL     1      44.247  48.174  50.298  1.00  0.00    -0.266 OA
HETATM   12  C7  UNL     1      45.417  49.721  49.053  1.00  0.00     0.122 A 
HETATM   13  C8  UNL     1      44.276  50.226  48.432  1.00  0.00     0.136 A 
HETATM   14  N9  UNL     1      44.408  51.227  47.544  1.00  0.00    -0.176 N 
ATOM     15  H9  UNL     1      43.562  51.584  47.099  1.00  0.00     0.186 HD
ENDROOT
BRANCH  13  16
HETATM   16  N6  UNL     1      43.167  49.683  48.748  1.00  0.00    -0.373 N 
ATOM     17  H6  UNL     1      43.220  48.691  48.978  1.00  0.00     0.161 HD
BRANCH  16  18
HETATM   18  C9  UNL     1      41.874  50.250  48.829  1.00  0.00     0.141 C 
BRANCH  18  19
HETATM   19  C10 UNL     1      41.551  50.910  50.142  1.00  0.00     0.140 C 
BRANCH  19  20
HETATM   20  N7  UNL     1      42.271  50.427  51.274  1.00  0.00    -0.385 N 
ATOM     21  H7  UNL     1      42.152  49.446  51.531  1.00  0.00     0.160 HD
BRANCH  20  22
HETATM   22  C11 UNL     1      43.124  51.204  52.052  1.00  0.00     0.168 C 
HETATM   23  N8  UNL     1      43.823  52.143  51.469  1.00  0.00    -0.396 N 
ATOM     24  H82 UNL     1      43.734  52.290  50.464  1.00  0.00     0.156 HD
ATOM     25  H81 UNL     1      44.448  52.713  52.040  1.00  0.00     0.156 HD
ENDBRANCH  20  22
ENDBRANCH  19  20
ENDBRANCH  18  19
ENDBRANCH  16  18
ENDBRANCH  13  16
BRANCH   1  26
HETATM   26  N1  UNL     1      45.646  52.854  46.244  1.00  0.00    -0.226 N 
HETATM   27  C1  UNL     1      44.573  53.217  45.377  1.00  0.00     0.168 C 
HETATM   28  C2  UNL     1      46.890  53.614  46.154  1.00  0.00     0.168 C 
ENDBRANCH   1  26
BRANCH   7  29
HETATM   29  N4  UNL     1      48.759  48.420  50.732  1.00  0.00    -0.234 N 
ATOM     30  H42 UNL     1      48.959  48.645  51.707  1.00  0.00     0.174 HD
ATOM     31  H41 UNL     1      49.408  47.868  50.172  1.00  0.00     0.174 HD
ENDBRANCH   7  29
TORSDOF 7
ENDMDL
MODEL 3
REMARK VINA RESULT: -5.953011458      1.854      4.918
REMARK  7 active torsions:
REMARK  status: ('A' for Active; 'I' for Inactive)
REMARK    1  A    between atoms: N1_2  and  C3_4 
REMARK    2  A    between atoms: C5_10  and  N4_11 
REMARK    3  A    between atoms: C8_19  and  N6_20 
REMARK    4  A    between atoms: N6_20  and  C9_22 
REMARK    5  A    between atoms: C9_22  and  C10_23 
REMARK    6  A    between atoms: C10_23  and  N7_24 
REMARK    7  A    between atoms: N7_24  and  C11_26 
ROOT
HETATM    1  C3  UNL     1      43.778  51.726  47.778  1.00  0.00     0.682 A 
HETATM    2  N2  UNL     1      43.065  51.681  48.912  1.00  0.00    -0.175 N 
ATOM      3  H2  UNL     1      42.304  52.345  49.053  1.00  0.00     0.186 HD
HETATM    4  C4  UNL     1      43.341  50.763  49.878  1.00  0.00     0.156 A 
HETATM    5  N3  UNL     1      42.612  50.723  51.014  1.00  0.00    -0.175 N 
ATOM      6  H3  UNL     1      41.852  51.392  51.146  1.00  0.00     0.186 HD
HETATM    7  C5  UNL     1      42.871  49.820  51.971  1.00  0.00     0.680 A 
HETATM    8  N5  UNL     1      43.877  48.910  51.834  1.00  0.00    -0.155 N 
ATOM      9  H5  UNL     1      44.059  48.231  52.573  1.00  0.00     0.187 HD
HETATM   10  C6  UNL     1      44.629  48.914  50.718  1.00  0.00     0.277 A 
HETATM   11  O1  UNL     1      45.560  48.071  50.589  1.00  0.00    -0.266 OA
HETATM   12  C7  UNL     1      44.357  49.845  49.739  1.00  0.00     0.122 A 
HETATM   13  C8  UNL     1      45.092  49.900  48.557  1.00  0.00     0.136 A 
HETATM   14  N9  UNL     1      44.775  50.828  47.636  1.00  0.00    -0.176 N 
ATOM     15  H9  UNL     1      45.323  50.854  46.776  1.00  0.00     0.186 HD
ENDROOT
BRANCH  13  16
HETATM   16  N6  UNL     1      46.041  49.058  48.434  1.00  0.00    -0.373 N 
ATOM     17  H6  UNL     1      45.786  48.088  48.622  1.00  0.00     0.161 HD
BRANCH  16  18
HETATM   18  C9  UNL     1      47.393  49.265  48.078  1.00  0.00     0.141 C 
BRANCH  18  19
HETATM   19  C10 UNL     1      48.131  50.257  48.936  1.00  0.00     0.140 C 
BRANCH  19  20
HETATM   20  N7  UNL     1      48.107  50.003  50.340  1.00  0.00    -0.385 N 
ATOM     21  H7  UNL     1      47.399  50.480  50.898  1.00  0.00     0.160 HD
BRANCH  20  22
HETATM   22  C11 UNL     1      48.986  49.148  50.998  1.00  0.00     0.168 C 
HETATM   23  N8  UNL     1      48.616  47.913  51.215  1.00  0.00    -0.396 N 
ATOM     24  H82 UNL     1      47.697  47.598  50.903  1.00  0.00     0.156 HD
ATOM     25  H81 UNL     1      49.260  47.287  51.698  1.00  0.00     0.156 HD
ENDBRANCH  20  22
ENDBRANCH  19  20
ENDBRANCH  18  19
ENDBRANCH  16  18
ENDBRANCH  13  16
BRANCH   1  26
HETATM   26  N1  UNL     1      43.500  52.687  46.748  1.00  0.00    -0.226 N 
HETATM   27  C1  UNL     1      43.564  54.101  46.929  1.00  0.00     0.168 C 
HETATM   28  C2  UNL     1      43.128  52.178  45.431  1.00  0.00     0.168 C 
ENDBRANCH   1  26
BRANCH   7  29
HETATM   29  N4  UNL     1      42.155  49.820  53.031  1.00  0.00    -0.234 N 
ATOM     30  H42 UNL     1      41.242  50.272  53.024  1.00  0.00     0.174 HD
ATOM     31  H41 UNL     1      42.514  49.362  53.868  1.00  0.00     0.174 HD
ENDBRANCH   7  29
TORSDOF 7
ENDMDL
MODEL 4
REMARK VINA RESULT: -5.920018157      1.309      1.951
REMARK  7 active torsions:
REMARK  status: ('A' for Active; 'I' for Inactive)
REMARK    1  A    between atoms: N1_2  and  C3_4 
REMARK    2  A    between atoms: C5_10  and  N4_11 
REMARK    3  A    between atoms: C8_19  and  N6_20 
REMARK    4  A    between atoms: N6_20  and  C9_22 
REMARK    5  A    between atoms: C9_22  and  C10_23 
REMARK    6  A    between atoms: C10_23  and  N7_24 
REMARK    7  A    between atoms: N7_24  and  C11_26 
ROOT
HETATM    1  C3  UNL     1      45.854  51.848  47.240  1.00  0.00     0.682 A 
HETATM    2  N2  UNL     1      47.059  51.306  47.467  1.00  0.00    -0.175 N 
ATOM      3  H2  UNL     1      47.886  51.721  47.036  1.00  0.00     0.186 HD
HETATM    4  C4  UNL     1      47.197  50.211  48.263  1.00  0.00     0.156 A 
HETATM    5  N3  UNL     1      48.416  49.677  48.489  1.00  0.00    -0.175 N 
ATOM      6  H3  UNL     1      49.237  50.099  48.054  1.00  0.00     0.186 HD
HETATM    7  C5  UNL     1      48.566  48.602  49.276  1.00  0.00     0.680 A 
HETATM    8  N5  UNL     1      47.495  48.008  49.876  1.00  0.00    -0.155 N 
ATOM      9  H5  UNL     1      47.628  47.190  50.471  1.00  0.00     0.187 HD
HETATM   10  C6  UNL     1      46.260  48.506  49.677  1.00  0.00     0.277 A 
HETATM   11  O1  UNL     1      45.269  47.958  50.233  1.00  0.00    -0.266 OA
HETATM   12  C7  UNL     1      46.115  49.611  48.867  1.00  0.00     0.122 A 
HETATM   13  C8  UNL     1      44.868  50.183  48.625  1.00  0.00     0.136 A 
HETATM   14  N9  UNL     1      44.791  51.265  47.830  1.00  0.00    -0.176 N 
ATOM     15  H9  UNL     1      43.869  51.670  47.663  1.00  0.00     0.186 HD
ENDROOT
BRANCH  13  16
HETATM   16  N6  UNL     1      43.865  49.619  49.175  1.00  0.00    -0.373 N 
ATOM     17  H6  UNL     1      43.940  48.608  49.280  1.00  0.00     0.161 HD
BRANCH  16  18
HETATM   18  C9  UNL     1      42.666  50.186  49.663  1.00  0.00     0.141 C 
BRANCH  18  19
HETATM   19  C10 UNL     1      42.752  50.758  51.052  1.00  0.00     0.140 C 
BRANCH  19  20
HETATM   20  N7  UNL     1      43.113  49.838  52.081  1.00  0.00    -0.385 N 
ATOM     21  H7  UNL     1      43.707  49.049  51.828  1.00  0.00     0.160 HD
BRANCH  20  22
HETATM   22  C11 UNL     1      42.708  49.946  53.409  1.00  0.00     0.168 C 
HETATM   23  N8  UNL     1      41.681  49.242  53.810  1.00  0.00    -0.396 N 
ATOM     24  H82 UNL     1      41.198  48.632  53.152  1.00  0.00     0.156 HD
ATOM     25  H81 UNL     1      41.385  49.322  54.783  1.00  0.00     0.156 HD
ENDBRANCH  20  22
ENDBRANCH  19  20
ENDBRANCH  18  19
ENDBRANCH  16  18
ENDBRANCH  13  16
BRANCH   1  26
HETATM   26  N1  UNL     1      45.691  53.003  46.402  1.00  0.00    -0.226 N 
HETATM   27  C1  UNL     1      46.584  54.115  46.381  1.00  0.00     0.168 C 
HETATM   28  C2  UNL     1      44.530  53.035  45.516  1.00  0.00     0.168 C 
ENDBRANCH   1  26
BRANCH   7  29
HETATM   29  N4  UNL     1      49.739  48.130  49.462  1.00  0.00    -0.234 N 
ATOM     30  H42 UNL     1      50.470  48.728  49.847  1.00  0.00     0.174 HD
ATOM     31  H41 UNL     1      49.923  47.156  49.221  1.00  0.00     0.174 HD
ENDBRANCH   7  29
TORSDOF 7
ENDMDL
MODEL 5
REMARK VINA RESULT: -5.900530491      2.795      4.569
REMARK  7 active torsions:
REMARK  status: ('A' for Active; 'I' for Inactive)
REMARK    1  A    between atoms: N1_2  and  C3_4 
REMARK    2  A    between atoms: C5_10  and  N4_11 
REMARK    3  A    between atoms: C8_19  and  N6_20 
REMARK    4  A    between atoms: N6_20  and  C9_22 
REMARK    5  A    between atoms: C9_22  and  C10_23 
REMARK    6  A    between atoms: C10_23  and  N7_24 
REMARK    7  A    between atoms: N7_24  and  C11_26 
ROOT
HETATM    1  C3  UNL     1      46.934  51.465  47.589  1.00  0.00     0.682 A 
HETATM    2  N2  UNL     1      46.741  50.355  48.316  1.00  0.00    -0.175 N 
ATOM      3  H2  UNL     1      47.534  49.749  48.526  1.00  0.00     0.186 HD
HETATM    4  C4  UNL     1      45.505  50.026  48.779  1.00  0.00     0.156 A 
HETATM    5  N3  UNL     1      45.325  48.909  49.516  1.00  0.00    -0.175 N 
ATOM      6  H3  UNL     1      46.124  48.308  49.721  1.00  0.00     0.186 HD
HETATM    7  C5  UNL     1      44.113  48.576  49.982  1.00  0.00     0.680 A 
HETATM    8  N5  UNL     1      43.018  49.350  49.730  1.00  0.00    -0.155 N 
ATOM      9  H5  UNL     1      42.104  49.080  50.093  1.00  0.00     0.187 HD
HETATM   10  C6  UNL     1      43.152  50.472  48.999  1.00  0.00     0.277 A 
HETATM   11  O1  UNL     1      42.141  51.190  48.766  1.00  0.00    -0.266 OA
HETATM   12  C7  UNL     1      44.401  50.807  48.523  1.00  0.00     0.122 A 
HETATM   13  C8  UNL     1      44.612  51.958  47.766  1.00  0.00     0.136 A 
HETATM   14  N9  UNL     1      45.855  52.235  47.336  1.00  0.00    -0.176 N 
ATOM     15  H9  UNL     1      45.991  53.081  46.783  1.00  0.00     0.186 HD
ENDROOT
BRANCH  13  16
HETATM   16  N6  UNL     1      43.587  52.675  47.520  1.00  0.00    -0.373 N 
ATOM     17  H6  UNL     1      42.945  52.797  48.304  1.00  0.00     0.161 HD
BRANCH  16  18
HETATM   18  C9  UNL     1      43.206  53.326  46.325  1.00  0.00     0.141 C 
BRANCH  18  19
HETATM   19  C10 UNL     1      43.121  54.826  46.418  1.00  0.00     0.140 C 
BRANCH  19  20
HETATM   20  N7  UNL     1      42.051  55.340  47.208  1.00  0.00    -0.385 N 
ATOM     21  H7  UNL     1      41.914  54.946  48.139  1.00  0.00     0.160 HD
BRANCH  20  22
HETATM   22  C11 UNL     1      41.181  56.344  46.793  1.00  0.00     0.168 C 
HETATM   23  N8  UNL     1      39.953  56.335  47.243  1.00  0.00    -0.396 N 
ATOM     24  H82 UNL     1      39.654  55.600  47.884  1.00  0.00     0.156 HD
ATOM     25  H81 UNL     1      39.315  57.071  46.939  1.00  0.00     0.156 HD
ENDBRANCH  20  22
ENDBRANCH  19  20
ENDBRANCH  18  19
ENDBRANCH  16  18
ENDBRANCH  13  16
BRANCH   1  26
HETATM   26  N1  UNL     1      48.231  51.828  47.092  1.00  0.00    -0.226 N 
HETATM   27  C1  UNL     1      48.568  53.120  46.591  1.00  0.00     0.168 C 
HETATM   28  C2  UNL     1      49.271  50.802  47.104  1.00  0.00     0.168 C 
ENDBRANCH   1  26
BRANCH   7  29
HETATM   29  N4  UNL     1      43.988  47.508  50.675  1.00  0.00    -0.234 N 
ATOM     30  H42 UNL     1      43.933  46.605  50.206  1.00  0.00     0.174 HD
ATOM     31  H41 UNL     1      43.946  47.582  51.691  1.00  0.00     0.174 HD
ENDBRANCH   7  29
TORSDOF 7
ENDMDL
