MODEL 1
REMARK VINA RESULT: -6.893397556      0.000      0.000
REMARK  14 active torsions:
REMARK  status: ('A' for Active; 'I' for Inactive)
REMARK    1  A    between atoms: N1_1  and  C1_5 
REMARK    2  A    between atoms: C1_5  and  C2_6 
REMARK    3  A    between atoms: C2_6  and  C3_7 
REMARK    4  A    between atoms: C3_7  and  N2_8 
REMARK    5  A    between atoms: N2_8  and  C4_11 
REMARK    6  A    between atoms: C4_11  and  C5_12 
REMARK    7  A    between atoms: C6_14  and  C7_15 
REMARK    8  A    between atoms: N3_19  and  C11_20 
REMARK    9  A    between atoms: C11_20  and  C12_21 
REMARK   10  A    between atoms: C12_21  and  C13_22 
REMARK   11  A    between atoms: C13_22  and  C14_23 
REMARK   12  A    between atoms: C14_23  and  C15_24 
REMARK   13  A    between atoms: C15_24  and  C16_25 
REMARK   14  A    between atoms: N6_35  and  N7_37 
ROOT
HETATM    1  C5  UNL     1      70.902   8.966  11.204  1.00  0.00     0.194 C 
HETATM    2  O1  UNL     1      70.555  10.032  12.053  1.00  0.00    -0.371 OA
HETATM    3  C6  UNL     1      71.217  11.183  11.598  1.00  0.00     0.156 C 
HETATM    4  C19 UNL     1      70.876  11.319  10.103  1.00  0.00     0.040 C 
HETATM    5  C20 UNL     1      71.906  10.436   9.403  1.00  0.00     0.059 C 
HETATM    6  C21 UNL     1      72.079   9.277  10.351  1.00  0.00     0.033 C 
HETATM    7  N6  UNL     1      73.182   8.644  10.376  1.00  0.00    -0.313 N 
ATOM      8  H6  UNL     1      73.295   7.860  11.019  1.00  0.00     0.185 HD
ENDROOT
BRANCH   3   9
HETATM    9  C7  UNL     1      70.739  12.422  12.262  1.00  0.00     0.251 C 
HETATM   10  C8  UNL     1      71.049  13.627  11.396  1.00  0.00     0.040 C 
HETATM   11  C9  UNL     1      72.465  14.076  11.783  1.00  0.00     0.032 C 
HETATM   12  C10 UNL     1      72.719  13.224  12.979  1.00  0.00     0.273 C 
HETATM   13  N3  UNL     1      71.485  12.758  13.461  1.00  0.00     0.095 N 
BRANCH  13  14
HETATM   14  C11 UNL     1      70.700  13.612  14.269  1.00  0.00     0.273 C 
BRANCH  14  15
HETATM   15  C12 UNL     1      69.343  13.151  14.630  1.00  0.00     0.030 C 
BRANCH  15  16
HETATM   16  C13 UNL     1      68.565  14.197  15.395  1.00  0.00     0.002 C 
BRANCH  16  17
HETATM   17  C14 UNL     1      68.652  15.561  14.758  1.00  0.00     0.006 C 
BRANCH  17  18
HETATM   18  C15 UNL     1      67.713  16.529  15.482  1.00  0.00     0.058 C 
BRANCH  18  19
HETATM   19  C16 UNL     1      66.601  16.914  14.583  1.00  0.00     0.025 A 
HETATM   20  C17 UNL     1      66.658  17.426  13.301  1.00  0.00     0.113 A 
HETATM   21  N4  UNL     1      65.396  17.637  12.846  1.00  0.00    -0.360 N 
HETATM   22  C18 UNL     1      64.549  17.259  13.835  1.00  0.00     0.180 A 
ATOM     23  H4  UNL     1      65.134  18.009  11.933  1.00  0.00     0.166 HD
HETATM   24  N5  UNL     1      65.280  16.828  14.871  1.00  0.00    -0.355 N 
ATOM     25  H5  UNL     1      64.897  16.483  15.752  1.00  0.00     0.166 HD
ENDBRANCH  18  19
ENDBRANCH  17  18
ENDBRANCH  16  17
ENDBRANCH  15  16
ENDBRANCH  14  15
ENDBRANCH  13  14
ENDBRANCH   3   9
BRANCH   1  26
HETATM   26  C4  UNL     1      71.230   7.725  12.002  1.00  0.00     0.270 C 
BRANCH  26  27
HETATM   27  N2  UNL     1      70.279   6.674  11.816  1.00  0.00    -0.072 N 
ATOM     28  H22 UNL     1      69.475   7.002  11.280  1.00  0.00     0.277 HD
ATOM     29  H21 UNL     1      69.811   6.446  12.694  1.00  0.00     0.277 HD
BRANCH  27  30
HETATM   30  C3  UNL     1      70.855   5.490  11.215  1.00  0.00     0.234 C 
BRANCH  30  31
HETATM   31  C2  UNL     1      71.206   4.466  12.267  1.00  0.00     0.055 C 
BRANCH  31  32
HETATM   32  C1  UNL     1      72.696   4.334  12.453  1.00  0.00     0.231 C 
BRANCH  32  33
HETATM   33  N1  UNL     1      73.142   5.213  13.508  1.00  0.00    -0.079 N 
ATOM     34  H13 UNL     1      72.625   6.093  13.516  1.00  0.00     0.274 HD
ATOM     35  H12 UNL     1      72.870   4.873  14.430  1.00  0.00     0.274 HD
ATOM     36  H11 UNL     1      74.148   5.362  13.436  1.00  0.00     0.274 HD
ENDBRANCH  32  33
ENDBRANCH  31  32
ENDBRANCH  30  31
ENDBRANCH  27  30
ENDBRANCH  26  27
ENDBRANCH   1  26
BRANCH   7  37
HETATM   37  N7  UNL     1      74.223   8.995   9.553  1.00  0.00    -0.345 N 
ATOM     38  H72 UNL     1      74.069   8.984   8.545  1.00  0.00     0.176 HD
ATOM     39  H71 UNL     1      75.132   9.261   9.933  1.00  0.00     0.176 HD
ENDBRANCH   7  37
TORSDOF 14
ENDMDL
MODEL 2
REMARK VINA RESULT: -6.716016397      2.658      9.086
REMARK  14 active torsions:
REMARK  status: ('A' for Active; 'I' for Inactive)
REMARK    1  A    between atoms: N1_1  and  C1_5 
REMARK    2  A    between atoms: C1_5  and  C2_6 
REMARK    3  A    between atoms: C2_6  and  C3_7 
REMARK    4  A    between atoms: C3_7  and  N2_8 
REMARK    5  A    between atoms: N2_8  and  C4_11 
REMARK    6  A    between atoms: C4_11  and  C5_12 
REMARK    7  A    between atoms: C6_14  and  C7_15 
REMARK    8  A    between atoms: N3_19  and  C11_20 
REMARK    9  A    between atoms: C11_20  and  C12_21 
REMARK   10  A    between atoms: C12_21  and  C13_22 
REMARK   11  A    between atoms: C13_22  and  C14_23 
REMARK   12  A    between atoms: C14_23  and  C15_24 
REMARK   13  A    between atoms: C15_24  and  C16_25 
REMARK   14  A    between atoms: N6_35  and  N7_37 
ROOT
HETATM    1  C5  UNL     1      69.561  14.827  12.893  1.00  0.00     0.194 C 
HETATM    2  O1  UNL     1      70.365  13.947  12.145  1.00  0.00    -0.371 OA
HETATM    3  C6  UNL     1      70.826  12.940  13.006  1.00  0.00     0.156 C 
HETATM    4  C19 UNL     1      69.580  12.356  13.698  1.00  0.00     0.040 C 
HETATM    5  C20 UNL     1      69.346  13.283  14.889  1.00  0.00     0.059 C 
HETATM    6  C21 UNL     1      69.728  14.642  14.358  1.00  0.00     0.033 C 
HETATM    7  N6  UNL     1      70.157  15.532  15.159  1.00  0.00    -0.313 N 
ATOM      8  H6  UNL     1      70.414  16.449  14.796  1.00  0.00     0.185 HD
ENDROOT
BRANCH   3   9
HETATM    9  C7  UNL     1      71.478  11.819  12.283  1.00  0.00     0.251 C 
HETATM   10  C8  UNL     1      72.627  11.270  13.106  1.00  0.00     0.040 C 
HETATM   11  C9  UNL     1      73.858  12.107  12.731  1.00  0.00     0.032 C 
HETATM   12  C10 UNL     1      73.332  12.888  11.575  1.00  0.00     0.273 C 
HETATM   13  N3  UNL     1      72.186  12.240  11.087  1.00  0.00     0.095 N 
BRANCH  13  14
HETATM   14  C11 UNL     1      72.344  11.127  10.229  1.00  0.00     0.273 C 
BRANCH  14  15
HETATM   15  C12 UNL     1      71.117  10.465   9.740  1.00  0.00     0.030 C 
BRANCH  15  16
HETATM   16  C13 UNL     1      71.232   8.958   9.755  1.00  0.00     0.002 C 
BRANCH  16  17
HETATM   17  C14 UNL     1      70.377   8.324  10.823  1.00  0.00     0.006 C 
BRANCH  17  18
HETATM   18  C15 UNL     1      70.539   6.803  10.778  1.00  0.00     0.058 C 
BRANCH  18  19
HETATM   19  C16 UNL     1      71.565   6.380  11.758  1.00  0.00     0.025 A 
HETATM   20  C17 UNL     1      72.539   7.139  12.379  1.00  0.00     0.113 A 
HETATM   21  N4  UNL     1      73.267   6.345  13.205  1.00  0.00    -0.360 N 
HETATM   22  C18 UNL     1      72.755   5.093  13.106  1.00  0.00     0.180 A 
ATOM     23  H4  UNL     1      74.051   6.634  13.790  1.00  0.00     0.166 HD
HETATM   24  N5  UNL     1      71.736   5.124  12.237  1.00  0.00    -0.355 N 
ATOM     25  H5  UNL     1      71.169   4.317  11.974  1.00  0.00     0.166 HD
ENDBRANCH  18  19
ENDBRANCH  17  18
ENDBRANCH  16  17
ENDBRANCH  15  16
ENDBRANCH  14  15
ENDBRANCH  13  14
ENDBRANCH   3   9
BRANCH   1  26
HETATM   26  C4  UNL     1      69.893  16.265  12.572  1.00  0.00     0.270 C 
BRANCH  26  27
HETATM   27  N2  UNL     1      69.972  16.520  11.167  1.00  0.00    -0.072 N 
ATOM     28  H22 UNL     1      70.666  15.916  10.726  1.00  0.00     0.277 HD
ATOM     29  H21 UNL     1      70.401  17.427  10.985  1.00  0.00     0.277 HD
BRANCH  27  30
HETATM   30  C3  UNL     1      68.692  16.409  10.500  1.00  0.00     0.234 C 
BRANCH  30  31
HETATM   31  C2  UNL     1      68.828  15.671   9.189  1.00  0.00     0.055 C 
BRANCH  31  32
HETATM   32  C1  UNL     1      68.660  16.587   8.004  1.00  0.00     0.231 C 
BRANCH  32  33
HETATM   33  N1  UNL     1      67.481  16.216   7.257  1.00  0.00    -0.079 N 
ATOM     34  H13 UNL     1      66.770  15.790   7.851  1.00  0.00     0.274 HD
ATOM     35  H12 UNL     1      66.951  17.031   6.950  1.00  0.00     0.274 HD
ATOM     36  H11 UNL     1      67.740  15.612   6.476  1.00  0.00     0.274 HD
ENDBRANCH  32  33
ENDBRANCH  31  32
ENDBRANCH  30  31
ENDBRANCH  27  30
ENDBRANCH  26  27
ENDBRANCH   1  26
BRANCH   7  37
HETATM   37  N7  UNL     1      70.281  15.280  16.503  1.00  0.00    -0.345 N 
ATOM     38  H72 UNL     1      71.173  14.926  16.849  1.00  0.00     0.176 HD
ATOM     39  H71 UNL     1      69.506  15.442  17.145  1.00  0.00     0.176 HD
ENDBRANCH   7  37
TORSDOF 14
ENDMDL
MODEL 3
REMARK VINA RESULT: -6.581358556      1.821      3.032
REMARK  14 active torsions:
REMARK  status: ('A' for Active; 'I' for Inactive)
REMARK    1  A    between atoms: N1_1  and  C1_5 
REMARK    2  A    between atoms: C1_5  and  C2_6 
REMARK    3  A    between atoms: C2_6  and  C3_7 
REMARK    4  A    between atoms: C3_7  and  N2_8 
REMARK    5  A    between atoms: N2_8  and  C4_11 
REMARK    6  A    between atoms: C4_11  and  C5_12 
REMARK    7  A    between atoms: C6_14  and  C7_15 
REMARK    8  A    between atoms: N3_19  and  C11_20 
REMARK    9  A    between atoms: C11_20  and  C12_21 
REMARK   10  A    between atoms: C12_21  and  C13_22 
REMARK   11  A    between atoms: C13_22  and  C14_23 
REMARK   12  A    between atoms: C14_23  and  C15_24 
REMARK   13  A    between atoms: C15_24  and  C16_25 
REMARK   14  A    between atoms: N6_35  and  N7_37 
ROOT
HETATM    1  C5  UNL     1      70.965  11.675  12.156  1.00  0.00     0.194 C 
HETATM    2  O1  UNL     1      70.088  12.266  13.085  1.00  0.00    -0.371 OA
HETATM    3  C6  UNL     1      70.658  13.474  13.513  1.00  0.00     0.156 C 
HETATM    4  C19 UNL     1      70.995  14.272  12.240  1.00  0.00     0.040 C 
HETATM    5  C20 UNL     1      72.372  13.755  11.829  1.00  0.00     0.059 C 
HETATM    6  C21 UNL     1      72.317  12.290  12.180  1.00  0.00     0.033 C 
HETATM    7  N6  UNL     1      73.391  11.673  12.470  1.00  0.00    -0.313 N 
ATOM      8  H6  UNL     1      73.350  10.682  12.708  1.00  0.00     0.185 HD
ENDROOT
BRANCH   3   9
HETATM    9  C7  UNL     1      69.716  14.307  14.304  1.00  0.00     0.251 C 
HETATM   10  C8  UNL     1      70.103  15.768  14.201  1.00  0.00     0.040 C 
HETATM   11  C9  UNL     1      71.122  16.020  15.321  1.00  0.00     0.032 C 
HETATM   12  C10 UNL     1      71.035  14.739  16.080  1.00  0.00     0.273 C 
HETATM   13  N3  UNL     1      69.832  14.102  15.737  1.00  0.00     0.095 N 
BRANCH  13  14
HETATM   14  C11 UNL     1      68.634  14.522  16.361  1.00  0.00     0.273 C 
BRANCH  14  15
HETATM   15  C12 UNL     1      68.679  14.788  17.813  1.00  0.00     0.030 C 
BRANCH  15  16
HETATM   16  C13 UNL     1      68.045  16.112  18.175  1.00  0.00     0.002 C 
BRANCH  16  17
HETATM   17  C14 UNL     1      68.098  17.106  17.043  1.00  0.00     0.006 C 
BRANCH  17  18
HETATM   18  C15 UNL     1      66.761  17.843  16.939  1.00  0.00     0.058 C 
BRANCH  18  19
HETATM   19  C16 UNL     1      66.120  17.535  15.641  1.00  0.00     0.025 A 
HETATM   20  C17 UNL     1      66.645  17.638  14.366  1.00  0.00     0.113 A 
HETATM   21  N4  UNL     1      65.707  17.251  13.463  1.00  0.00    -0.360 N 
HETATM   22  C18 UNL     1      64.598  16.907  14.163  1.00  0.00     0.180 A 
ATOM     23  H4  UNL     1      65.815  17.225  12.449  1.00  0.00     0.166 HD
HETATM   24  N5  UNL     1      64.856  17.080  15.467  1.00  0.00    -0.355 N 
ATOM     25  H5  UNL     1      64.193  16.896  16.221  1.00  0.00     0.166 HD
ENDBRANCH  18  19
ENDBRANCH  17  18
ENDBRANCH  16  17
ENDBRANCH  15  16
ENDBRANCH  14  15
ENDBRANCH  13  14
ENDBRANCH   3   9
BRANCH   1  26
HETATM   26  C4  UNL     1      71.128  10.199  12.432  1.00  0.00     0.270 C 
BRANCH  26  27
HETATM   27  N2  UNL     1      70.140   9.397  11.780  1.00  0.00    -0.072 N 
ATOM     28  H22 UNL     1      69.343   9.965  11.490  1.00  0.00     0.277 HD
ATOM     29  H21 UNL     1      69.671   8.782  12.446  1.00  0.00     0.277 HD
BRANCH  27  30
HETATM   30  C3  UNL     1      70.670   8.642  10.665  1.00  0.00     0.234 C 
BRANCH  30  31
HETATM   31  C2  UNL     1      70.315   7.179  10.784  1.00  0.00     0.055 C 
BRANCH  31  32
HETATM   32  C1  UNL     1      71.002   6.523  11.955  1.00  0.00     0.231 C 
BRANCH  32  33
HETATM   33  N1  UNL     1      70.710   5.108  11.969  1.00  0.00    -0.079 N 
ATOM     34  H13 UNL     1      69.769   4.909  11.629  1.00  0.00     0.274 HD
ATOM     35  H12 UNL     1      71.236   4.602  11.257  1.00  0.00     0.274 HD
ATOM     36  H11 UNL     1      70.867   4.730  12.903  1.00  0.00     0.274 HD
ENDBRANCH  32  33
ENDBRANCH  31  32
ENDBRANCH  30  31
ENDBRANCH  27  30
ENDBRANCH  26  27
ENDBRANCH   1  26
BRANCH   7  37
HETATM   37  N7  UNL     1      74.604  12.316  12.469  1.00  0.00    -0.345 N 
ATOM     38  H72 UNL     1      74.681  13.206  12.961  1.00  0.00     0.176 HD
ATOM     39  H71 UNL     1      75.413  11.919  11.991  1.00  0.00     0.176 HD
ENDBRANCH   7  37
TORSDOF 14
ENDMDL
MODEL 4
REMARK VINA RESULT: -6.554000173      4.028      9.852
REMARK  14 active torsions:
REMARK  status: ('A' for Active; 'I' for Inactive)
REMARK    1  A    between atoms: N1_1  and  C1_5 
REMARK    2  A    between atoms: C1_5  and  C2_6 
REMARK    3  A    between atoms: C2_6  and  C3_7 
REMARK    4  A    between atoms: C3_7  and  N2_8 
REMARK    5  A    between atoms: N2_8  and  C4_11 
REMARK    6  A    between atoms: C4_11  and  C5_12 
REMARK    7  A    between atoms: C6_14  and  C7_15 
REMARK    8  A    between atoms: N3_19  and  C11_20 
REMARK    9  A    between atoms: C11_20  and  C12_21 
REMARK   10  A    between atoms: C12_21  and  C13_22 
REMARK   11  A    between atoms: C13_22  and  C14_23 
REMARK   12  A    between atoms: C14_23  and  C15_24 
REMARK   13  A    between atoms: C15_24  and  C16_25 
REMARK   14  A    between atoms: N6_35  and  N7_37 
ROOT
HETATM    1  C5  UNL     1      71.401   9.295  11.398  1.00  0.00     0.194 C 
HETATM    2  O1  UNL     1      72.016  10.011  10.355  1.00  0.00    -0.371 OA
HETATM    3  C6  UNL     1      72.923   9.153   9.715  1.00  0.00     0.156 C 
HETATM    4  C19 UNL     1      72.135   7.883   9.344  1.00  0.00     0.040 C 
HETATM    5  C20 UNL     1      72.194   7.025  10.605  1.00  0.00     0.059 C 
HETATM    6  C21 UNL     1      72.117   8.034  11.722  1.00  0.00     0.033 C 
HETATM    7  N6  UNL     1      72.649   7.769  12.847  1.00  0.00    -0.313 N 
ATOM      8  H6  UNL     1      72.595   8.454  13.600  1.00  0.00     0.185 HD
ENDROOT
BRANCH   3   9
HETATM    9  C7  UNL     1      73.451   9.715   8.446  1.00  0.00     0.251 C 
HETATM   10  C8  UNL     1      74.106   8.622   7.626  1.00  0.00     0.040 C 
HETATM   11  C9  UNL     1      75.565   8.552   8.095  1.00  0.00     0.032 C 
HETATM   12  C10 UNL     1      75.644   9.760   8.966  1.00  0.00     0.273 C 
HETATM   13  N3  UNL     1      74.577  10.612   8.638  1.00  0.00     0.095 N 
BRANCH  13  14
HETATM   14  C11 UNL     1      74.695  11.453   7.507  1.00  0.00     0.273 C 
BRANCH  14  15
HETATM   15  C12 UNL     1      76.057  11.738   7.011  1.00  0.00     0.030 C 
BRANCH  15  16
HETATM   16  C13 UNL     1      76.186  11.508   5.522  1.00  0.00     0.002 C 
BRANCH  16  17
HETATM   17  C14 UNL     1      76.848  10.193   5.196  1.00  0.00     0.006 C 
BRANCH  17  18
HETATM   18  C15 UNL     1      76.160   9.555   3.988  1.00  0.00     0.058 C 
BRANCH  18  19
HETATM   19  C16 UNL     1      75.820   8.146   4.292  1.00  0.00     0.025 A 
HETATM   20  C17 UNL     1      74.643   7.464   4.046  1.00  0.00     0.113 A 
HETATM   21  N4  UNL     1      74.766   6.186   4.489  1.00  0.00    -0.360 N 
HETATM   22  C18 UNL     1      76.012   6.063   5.010  1.00  0.00     0.180 A 
ATOM     23  H4  UNL     1      74.056   5.456   4.439  1.00  0.00     0.166 HD
HETATM   24  N5  UNL     1      76.635   7.243   4.887  1.00  0.00    -0.355 N 
ATOM     25  H5  UNL     1      77.588   7.433   5.198  1.00  0.00     0.166 HD
ENDBRANCH  18  19
ENDBRANCH  17  18
ENDBRANCH  16  17
ENDBRANCH  15  16
ENDBRANCH  14  15
ENDBRANCH  13  14
ENDBRANCH   3   9
BRANCH   1  26
HETATM   26  C4  UNL     1      71.341  10.126  12.659  1.00  0.00     0.270 C 
BRANCH  26  27
HETATM   27  N2  UNL     1      70.005  10.459  13.045  1.00  0.00    -0.072 N 
ATOM     28  H22 UNL     1      69.668   9.828  13.772  1.00  0.00     0.277 HD
ATOM     29  H21 UNL     1      69.344  10.228  12.303  1.00  0.00     0.277 HD
BRANCH  27  30
HETATM   30  C3  UNL     1      69.863  11.841  13.452  1.00  0.00     0.234 C 
BRANCH  30  31
HETATM   31  C2  UNL     1      70.905  12.710  12.790  1.00  0.00     0.055 C 
BRANCH  31  32
HETATM   32  C1  UNL     1      70.325  13.536  11.671  1.00  0.00     0.231 C 
BRANCH  32  33
HETATM   33  N1  UNL     1      70.278  12.757  10.455  1.00  0.00    -0.079 N 
ATOM     34  H13 UNL     1      71.186  12.356  10.224  1.00  0.00     0.274 HD
ATOM     35  H12 UNL     1      69.758  11.889  10.577  1.00  0.00     0.274 HD
ATOM     36  H11 UNL     1      69.905  13.323   9.693  1.00  0.00     0.274 HD
ENDBRANCH  32  33
ENDBRANCH  31  32
ENDBRANCH  30  31
ENDBRANCH  27  30
ENDBRANCH  26  27
ENDBRANCH   1  26
BRANCH   7  37
HETATM   37  N7  UNL     1      73.294   6.577  13.067  1.00  0.00    -0.345 N 
ATOM     38  H72 UNL     1      73.813   6.158  12.295  1.00  0.00     0.176 HD
ATOM     39  H71 UNL     1      73.259   6.116  13.976  1.00  0.00     0.176 HD
ENDBRANCH   7  37
TORSDOF 14
ENDMDL
MODEL 5
REMARK VINA RESULT: -6.552893695      2.474      3.393
REMARK  14 active torsions:
REMARK  status: ('A' for Active; 'I' for Inactive)
REMARK    1  A    between atoms: N1_1  and  C1_5 
REMARK    2  A    between atoms: C1_5  and  C2_6 
REMARK    3  A    between atoms: C2_6  and  C3_7 
REMARK    4  A    between atoms: C3_7  and  N2_8 
REMARK    5  A    between atoms: N2_8  and  C4_11 
REMARK    6  A    between atoms: C4_11  and  C5_12 
REMARK    7  A    between atoms: C6_14  and  C7_15 
REMARK    8  A    between atoms: N3_19  and  C11_20 
REMARK    9  A    between atoms: C11_20  and  C12_21 
REMARK   10  A    between atoms: C12_21  and  C13_22 
REMARK   11  A    between atoms: C13_22  and  C14_23 
REMARK   12  A    between atoms: C14_23  and  C15_24 
REMARK   13  A    between atoms: C15_24  and  C16_25 
REMARK   14  A    between atoms: N6_35  and  N7_37 
ROOT
HETATM    1  C5  UNL     1      70.977   8.948  11.194  1.00  0.00     0.194 C 
HETATM    2  O1  UNL     1      70.639  10.023  12.036  1.00  0.00    -0.371 OA
HETATM    3  C6  UNL     1      71.300  11.167  11.566  1.00  0.00     0.156 C 
HETATM    4  C19 UNL     1      70.947  11.291  10.072  1.00  0.00     0.040 C 
HETATM    5  C20 UNL     1      71.970  10.399   9.372  1.00  0.00     0.059 C 
HETATM    6  C21 UNL     1      72.147   9.248  10.329  1.00  0.00     0.033 C 
HETATM    7  N6  UNL     1      73.249   8.612  10.351  1.00  0.00    -0.313 N 
ATOM      8  H6  UNL     1      73.365   7.835  11.000  1.00  0.00     0.185 HD
ENDROOT
BRANCH   3   9
HETATM    9  C7  UNL     1      70.830  12.414  12.222  1.00  0.00     0.251 C 
HETATM   10  C8  UNL     1      71.104  13.607  11.327  1.00  0.00     0.040 C 
HETATM   11  C9  UNL     1      72.527  14.074  11.664  1.00  0.00     0.032 C 
HETATM   12  C10 UNL     1      72.823  13.245  12.867  1.00  0.00     0.273 C 
HETATM   13  N3  UNL     1      71.608  12.777  13.392  1.00  0.00     0.095 N 
BRANCH  13  14
HETATM   14  C11 UNL     1      70.839  13.638  14.209  1.00  0.00     0.273 C 
BRANCH  14  15
HETATM   15  C12 UNL     1      69.484  13.189  14.586  1.00  0.00     0.030 C 
BRANCH  15  16
HETATM   16  C13 UNL     1      68.637  14.314  15.135  1.00  0.00     0.002 C 
BRANCH  16  17
HETATM   17  C14 UNL     1      68.571  14.304  16.642  1.00  0.00     0.006 C 
BRANCH  17  18
HETATM   18  C15 UNL     1      69.167  15.600  17.193  1.00  0.00     0.058 C 
BRANCH  18  19
HETATM   19  C16 UNL     1      70.115  15.289  18.287  1.00  0.00     0.025 A 
HETATM   20  C17 UNL     1      69.893  15.274  19.651  1.00  0.00     0.113 A 
HETATM   21  N4  UNL     1      71.044  14.934  20.288  1.00  0.00    -0.360 N 
HETATM   22  C18 UNL     1      71.984  14.735  19.332  1.00  0.00     0.180 A 
ATOM     23  H4  UNL     1      71.176  14.845  21.296  1.00  0.00     0.166 HD
HETATM   24  N5  UNL     1      71.418  14.950  18.137  1.00  0.00    -0.355 N 
ATOM     25  H5  UNL     1      71.901  14.870  17.241  1.00  0.00     0.166 HD
ENDBRANCH  18  19
ENDBRANCH  17  18
ENDBRANCH  16  17
ENDBRANCH  15  16
ENDBRANCH  14  15
ENDBRANCH  13  14
ENDBRANCH   3   9
BRANCH   1  26
HETATM   26  C4  UNL     1      71.307   7.714  12.001  1.00  0.00     0.270 C 
BRANCH  26  27
HETATM   27  N2  UNL     1      70.312   6.694  11.894  1.00  0.00    -0.072 N 
ATOM     28  H22 UNL     1      69.487   7.040  11.402  1.00  0.00     0.277 HD
ATOM     29  H21 UNL     1      69.892   6.497  12.803  1.00  0.00     0.277 HD
BRANCH  27  30
HETATM   30  C3  UNL     1      70.809   5.480  11.281  1.00  0.00     0.234 C 
BRANCH  30  31
HETATM   31  C2  UNL     1      71.205   4.467  12.329  1.00  0.00     0.055 C 
BRANCH  31  32
HETATM   32  C1  UNL     1      72.701   4.327  12.443  1.00  0.00     0.231 C 
BRANCH  32  33
HETATM   33  N1  UNL     1      73.190   5.131  13.539  1.00  0.00    -0.079 N 
ATOM     34  H13 UNL     1      72.913   6.108  13.449  1.00  0.00     0.274 HD
ATOM     35  H12 UNL     1      72.708   4.920  14.413  1.00  0.00     0.274 HD
ATOM     36  H11 UNL     1      74.201   5.026  13.624  1.00  0.00     0.274 HD
ENDBRANCH  32  33
ENDBRANCH  31  32
ENDBRANCH  30  31
ENDBRANCH  27  30
ENDBRANCH  26  27
ENDBRANCH   1  26
BRANCH   7  37
HETATM   37  N7  UNL     1      74.284   8.954   9.516  1.00  0.00    -0.345 N 
ATOM     38  H72 UNL     1      74.250   9.858   9.046  1.00  0.00     0.176 HD
ATOM     39  H71 UNL     1      75.072   8.323   9.365  1.00  0.00     0.176 HD
ENDBRANCH   7  37
TORSDOF 14
ENDMDL
