MODEL 1
REMARK VINA RESULT: -6.642216100      0.000      0.000
REMARK  14 active torsions:
REMARK  status: ('A' for Active; 'I' for Inactive)
REMARK    1  A    between atoms: N1_1  and  C1_4 
REMARK    2  A    between atoms: C5_10  and  C6_11 
REMARK    3  A    between atoms: C7_12  and  C8_13 
REMARK    4  A    between atoms: C13_18  and  N3_19 
REMARK    5  A    between atoms: N3_19  and  C14_21 
REMARK    6  A    between atoms: C14_21  and  C15_22 
REMARK    7  A    between atoms: C15_22  and  O1_23 
REMARK    8  A    between atoms: O1_23  and  C16_24 
REMARK    9  A    between atoms: C16_24  and  C17_25 
REMARK   10  A    between atoms: C17_25  and  O2_26 
REMARK   11  A    between atoms: O2_26  and  C18_27 
REMARK   12  A    between atoms: C18_27  and  C19_28 
REMARK   13  A    between atoms: C19_28  and  N4_29 
REMARK   14  A    between atoms: C21_31  and  N5_32 
ROOT
HETATM    1  C8  UNL     1      71.710  11.492  12.413  1.00  0.00    -0.009 A 
HETATM    2  C9  UNL     1      70.599  11.959  13.113  1.00  0.00     0.013 A 
HETATM    3  C10 UNL     1      70.264  13.290  13.194  1.00  0.00     0.001 A 
HETATM    4  C11 UNL     1      71.066  14.190  12.550  1.00  0.00     0.002 A 
HETATM    5  C12 UNL     1      72.186  13.736  11.847  1.00  0.00     0.030 A 
HETATM    6  C13 UNL     1      72.519  12.378  11.775  1.00  0.00     0.042 A 
ENDROOT
BRANCH   6   7
HETATM    7  N3  UNL     1      73.767  11.972  11.253  1.00  0.00    -0.367 N 
ATOM      8  H3  UNL     1      74.376  11.559  11.960  1.00  0.00     0.165 HD
BRANCH   7   9
HETATM    9  C14 UNL     1      74.360  12.007   9.982  1.00  0.00     0.087 C 
BRANCH   9  10
HETATM   10  C15 UNL     1      74.233  10.864   9.037  1.00  0.00     0.212 C 
BRANCH  10  11
HETATM   11  O1  UNL     1      72.868  10.554   8.832  1.00  0.00    -0.384 OA
BRANCH  11  12
HETATM   12  C16 UNL     1      72.614   9.232   8.645  1.00  0.00     0.194 C 
BRANCH  12  13
HETATM   13  C17 UNL     1      73.674   8.375   9.242  1.00  0.00     0.193 C 
BRANCH  13  14
HETATM   14  O2  UNL     1      73.870   7.192   8.475  1.00  0.00    -0.387 OA
BRANCH  14  15
HETATM   15  C18 UNL     1      74.487   7.572   7.318  1.00  0.00     0.198 C 
BRANCH  15  16
HETATM   16  C19 UNL     1      75.897   7.094   7.171  1.00  0.00     0.298 C 
BRANCH  16  17
HETATM   17  N4  UNL     1      76.153   6.226   6.101  1.00  0.00     0.094 N 
HETATM   18  C20 UNL     1      75.087   5.688   5.328  1.00  0.00     0.306 C 
HETATM   19  C21 UNL     1      75.631   4.291   5.657  1.00  0.00     0.239 C 
HETATM   20  C22 UNL     1      76.808   4.981   6.338  1.00  0.00     0.306 C 
BRANCH  19  21
HETATM   21  N5  UNL     1      76.006   3.524   4.485  1.00  0.00    -0.072 N 
ATOM     22  H53 UNL     1      76.949   3.767   4.181  1.00  0.00     0.274 HD
ATOM     23  H52 UNL     1      76.152   2.544   4.727  1.00  0.00     0.274 HD
ATOM     24  H51 UNL     1      75.345   3.609   3.713  1.00  0.00     0.274 HD
ENDBRANCH  19  21
ENDBRANCH  16  17
ENDBRANCH  15  16
ENDBRANCH  14  15
ENDBRANCH  13  14
ENDBRANCH  12  13
ENDBRANCH  11  12
ENDBRANCH  10  11
ENDBRANCH   9  10
ENDBRANCH   7   9
ENDBRANCH   6   7
BRANCH   1  25
HETATM   25  C7  UNL     1      71.920  10.035  12.417  1.00  0.00     0.014 C 
HETATM   26  C6  UNL     1      71.166   9.107  11.973  1.00  0.00     0.016 C 
BRANCH  26  27
HETATM   27  C5  UNL     1      71.350   7.686  11.958  1.00  0.00     0.007 A 
HETATM   28  C1  UNL     1      70.538   6.811  11.307  1.00  0.00     0.108 A 
HETATM   29  N2  UNL     1      70.756   5.452  11.321  1.00  0.00    -0.352 N 
HETATM   30  C2  UNL     1      71.800   4.961  11.999  1.00  0.00     0.089 A 
ATOM     31  H2  UNL     1      70.127   4.824  10.820  1.00  0.00     0.166 HD
HETATM   32  C3  UNL     1      72.658   5.774  12.678  1.00  0.00     0.018 A 
HETATM   33  C4  UNL     1      72.440   7.120  12.661  1.00  0.00     0.016 A 
BRANCH  28  34
HETATM   34  N1  UNL     1      69.521   7.158  10.626  1.00  0.00    -0.385 N 
ATOM     35  H12 UNL     1      68.794   6.512  10.320  1.00  0.00     0.157 HD
ATOM     36  H11 UNL     1      69.491   8.155  10.414  1.00  0.00     0.157 HD
ENDBRANCH  28  34
ENDBRANCH  26  27
ENDBRANCH   1  25
TORSDOF 14
ENDMDL
MODEL 2
REMARK VINA RESULT: -6.635285627      1.147      1.645
REMARK  14 active torsions:
REMARK  status: ('A' for Active; 'I' for Inactive)
REMARK    1  A    between atoms: N1_1  and  C1_4 
REMARK    2  A    between atoms: C5_10  and  C6_11 
REMARK    3  A    between atoms: C7_12  and  C8_13 
REMARK    4  A    between atoms: C13_18  and  N3_19 
REMARK    5  A    between atoms: N3_19  and  C14_21 
REMARK    6  A    between atoms: C14_21  and  C15_22 
REMARK    7  A    between atoms: C15_22  and  O1_23 
REMARK    8  A    between atoms: O1_23  and  C16_24 
REMARK    9  A    between atoms: C16_24  and  C17_25 
REMARK   10  A    between atoms: C17_25  and  O2_26 
REMARK   11  A    between atoms: O2_26  and  C18_27 
REMARK   12  A    between atoms: C18_27  and  C19_28 
REMARK   13  A    between atoms: C19_28  and  N4_29 
REMARK   14  A    between atoms: C21_31  and  N5_32 
ROOT
HETATM    1  C8  UNL     1      71.363  11.463  12.349  1.00  0.00    -0.009 A 
HETATM    2  C9  UNL     1      70.384  11.980  13.195  1.00  0.00     0.013 A 
HETATM    3  C10 UNL     1      70.396  13.273  13.662  1.00  0.00     0.001 A 
HETATM    4  C11 UNL     1      71.426  14.083  13.269  1.00  0.00     0.002 A 
HETATM    5  C12 UNL     1      72.418  13.576  12.423  1.00  0.00     0.030 A 
HETATM    6  C13 UNL     1      72.395  12.256  11.957  1.00  0.00     0.042 A 
ENDROOT
BRANCH   6   7
HETATM    7  N3  UNL     1      73.517  11.710  11.295  1.00  0.00    -0.367 N 
ATOM      8  H3  UNL     1      73.990  10.992  11.845  1.00  0.00     0.165 HD
BRANCH   7   9
HETATM    9  C14 UNL     1      74.128  11.930  10.051  1.00  0.00     0.087 C 
BRANCH   9  10
HETATM   10  C15 UNL     1      74.066  10.911   8.968  1.00  0.00     0.212 C 
BRANCH  10  11
HETATM   11  O1  UNL     1      72.728  10.497   8.768  1.00  0.00    -0.384 OA
BRANCH  11  12
HETATM   12  C16 UNL     1      72.572   9.156   8.611  1.00  0.00     0.194 C 
BRANCH  12  13
HETATM   13  C17 UNL     1      73.745   8.399   9.127  1.00  0.00     0.193 C 
BRANCH  13  14
HETATM   14  O2  UNL     1      73.979   7.226   8.354  1.00  0.00    -0.387 OA
BRANCH  14  15
HETATM   15  C18 UNL     1      74.361   7.646   7.112  1.00  0.00     0.198 C 
BRANCH  15  16
HETATM   16  C19 UNL     1      74.912   6.572   6.228  1.00  0.00     0.298 C 
BRANCH  16  17
HETATM   17  N4  UNL     1      75.832   5.693   6.814  1.00  0.00     0.094 N 
HETATM   18  C20 UNL     1      77.133   6.137   7.182  1.00  0.00     0.306 C 
HETATM   19  C21 UNL     1      77.702   5.011   6.307  1.00  0.00     0.239 C 
HETATM   20  C22 UNL     1      76.267   4.538   6.097  1.00  0.00     0.306 C 
BRANCH  19  21
HETATM   21  N5  UNL     1      78.524   4.067   7.038  1.00  0.00    -0.072 N 
ATOM     22  H53 UNL     1      79.033   4.537   7.788  1.00  0.00     0.274 HD
ATOM     23  H52 UNL     1      77.944   3.439   7.594  1.00  0.00     0.274 HD
ATOM     24  H51 UNL     1      79.163   3.538   6.445  1.00  0.00     0.274 HD
ENDBRANCH  19  21
ENDBRANCH  16  17
ENDBRANCH  15  16
ENDBRANCH  14  15
ENDBRANCH  13  14
ENDBRANCH  12  13
ENDBRANCH  11  12
ENDBRANCH  10  11
ENDBRANCH   9  10
ENDBRANCH   7   9
ENDBRANCH   6   7
BRANCH   1  25
HETATM   25  C7  UNL     1      71.194  10.061  11.932  1.00  0.00     0.014 C 
HETATM   26  C6  UNL     1      71.770   9.011  12.371  1.00  0.00     0.016 C 
BRANCH  26  27
HETATM   27  C5  UNL     1      71.619   7.638  11.989  1.00  0.00     0.007 A 
HETATM   28  C1  UNL     1      72.418   6.627  12.420  1.00  0.00     0.108 A 
HETATM   29  N2  UNL     1      72.233   5.321  12.025  1.00  0.00    -0.352 N 
HETATM   30  C2  UNL     1      71.236   5.024  11.184  1.00  0.00     0.089 A 
ATOM     31  H2  UNL     1      72.851   4.586  12.369  1.00  0.00     0.166 HD
HETATM   32  C3  UNL     1      70.393   5.984  10.707  1.00  0.00     0.018 A 
HETATM   33  C4  UNL     1      70.578   7.276  11.101  1.00  0.00     0.016 A 
BRANCH  28  34
HETATM   34  N1  UNL     1      73.392   6.784  13.223  1.00  0.00    -0.385 N 
ATOM     35  H12 UNL     1      73.583   6.168  14.013  1.00  0.00     0.157 HD
ATOM     36  H11 UNL     1      73.979   7.588  13.002  1.00  0.00     0.157 HD
ENDBRANCH  28  34
ENDBRANCH  26  27
ENDBRANCH   1  25
TORSDOF 14
ENDMDL
MODEL 3
REMARK VINA RESULT: -6.596198062      1.053      1.348
REMARK  14 active torsions:
REMARK  status: ('A' for Active; 'I' for Inactive)
REMARK    1  A    between atoms: N1_1  and  C1_4 
REMARK    2  A    between atoms: C5_10  and  C6_11 
REMARK    3  A    between atoms: C7_12  and  C8_13 
REMARK    4  A    between atoms: C13_18  and  N3_19 
REMARK    5  A    between atoms: N3_19  and  C14_21 
REMARK    6  A    between atoms: C14_21  and  C15_22 
REMARK    7  A    between atoms: C15_22  and  O1_23 
REMARK    8  A    between atoms: O1_23  and  C16_24 
REMARK    9  A    between atoms: C16_24  and  C17_25 
REMARK   10  A    between atoms: C17_25  and  O2_26 
REMARK   11  A    between atoms: O2_26  and  C18_27 
REMARK   12  A    between atoms: C18_27  and  C19_28 
REMARK   13  A    between atoms: C19_28  and  N4_29 
REMARK   14  A    between atoms: C21_31  and  N5_32 
ROOT
HETATM    1  C8  UNL     1      71.891  11.527  12.425  1.00  0.00    -0.009 A 
HETATM    2  C9  UNL     1      70.837  12.015  13.193  1.00  0.00     0.013 A 
HETATM    3  C10 UNL     1      70.540  13.353  13.304  1.00  0.00     0.001 A 
HETATM    4  C11 UNL     1      71.326  14.239  12.620  1.00  0.00     0.002 A 
HETATM    5  C12 UNL     1      72.390  13.763  11.848  1.00  0.00     0.030 A 
HETATM    6  C13 UNL     1      72.683  12.398  11.746  1.00  0.00     0.042 A 
ENDROOT
BRANCH   6   7
HETATM    7  N3  UNL     1      73.889  11.965  11.148  1.00  0.00    -0.367 N 
ATOM      8  H3  UNL     1      74.513  11.501  11.809  1.00  0.00     0.165 HD
BRANCH   7   9
HETATM    9  C14 UNL     1      74.421  12.030   9.852  1.00  0.00     0.087 C 
BRANCH   9  10
HETATM   10  C15 UNL     1      74.257  10.904   8.892  1.00  0.00     0.212 C 
BRANCH  10  11
HETATM   11  O1  UNL     1      72.888  10.572   8.764  1.00  0.00    -0.384 OA
BRANCH  11  12
HETATM   12  C16 UNL     1      72.643   9.243   8.617  1.00  0.00     0.194 C 
BRANCH  12  13
HETATM   13  C17 UNL     1      73.676   8.413   9.294  1.00  0.00     0.193 C 
BRANCH  13  14
HETATM   14  O2  UNL     1      73.926   7.213   8.569  1.00  0.00    -0.387 OA
BRANCH  14  15
HETATM   15  C18 UNL     1      74.375   7.589   7.335  1.00  0.00     0.198 C 
BRANCH  15  16
HETATM   16  C19 UNL     1      75.312   6.620   6.685  1.00  0.00     0.298 C 
BRANCH  16  17
HETATM   17  N4  UNL     1      75.053   6.305   5.345  1.00  0.00     0.094 N 
HETATM   18  C20 UNL     1      76.025   6.554   4.336  1.00  0.00     0.306 C 
HETATM   19  C21 UNL     1      74.964   7.384   3.600  1.00  0.00     0.239 C 
HETATM   20  C22 UNL     1      73.968   6.934   4.664  1.00  0.00     0.306 C 
BRANCH  19  21
HETATM   21  N5  UNL     1      74.658   6.888   2.272  1.00  0.00    -0.072 N 
ATOM     22  H53 UNL     1      73.663   6.988   2.069  1.00  0.00     0.274 HD
ATOM     23  H52 UNL     1      75.041   7.508   1.559  1.00  0.00     0.274 HD
ATOM     24  H51 UNL     1      74.963   5.927   2.115  1.00  0.00     0.274 HD
ENDBRANCH  19  21
ENDBRANCH  16  17
ENDBRANCH  15  16
ENDBRANCH  14  15
ENDBRANCH  13  14
ENDBRANCH  12  13
ENDBRANCH  11  12
ENDBRANCH  10  11
ENDBRANCH   9  10
ENDBRANCH   7   9
ENDBRANCH   6   7
BRANCH   1  25
HETATM   25  C7  UNL     1      72.065  10.064  12.406  1.00  0.00     0.014 C 
HETATM   26  C6  UNL     1      71.253   9.159  12.024  1.00  0.00     0.016 C 
BRANCH  26  27
HETATM   27  C5  UNL     1      71.399   7.733  11.988  1.00  0.00     0.007 A 
HETATM   28  C1  UNL     1      70.547   6.888  11.350  1.00  0.00     0.108 A 
HETATM   29  N2  UNL     1      70.730   5.523  11.343  1.00  0.00    -0.352 N 
HETATM   30  C2  UNL     1      71.779   4.998  11.987  1.00  0.00     0.089 A 
ATOM     31  H2  UNL     1      70.072   4.917  10.853  1.00  0.00     0.166 HD
HETATM   32  C3  UNL     1      72.676   5.780  12.650  1.00  0.00     0.018 A 
HETATM   33  C4  UNL     1      72.493   7.131  12.654  1.00  0.00     0.016 A 
BRANCH  28  34
HETATM   34  N1  UNL     1      69.522   7.269  10.701  1.00  0.00    -0.385 N 
ATOM     35  H12 UNL     1      69.550   7.940   9.935  1.00  0.00     0.157 HD
ATOM     36  H11 UNL     1      68.654   6.834  11.015  1.00  0.00     0.157 HD
ENDBRANCH  28  34
ENDBRANCH  26  27
ENDBRANCH   1  25
TORSDOF 14
ENDMDL
MODEL 4
REMARK VINA RESULT: -6.536157912      3.558      8.927
REMARK  14 active torsions:
REMARK  status: ('A' for Active; 'I' for Inactive)
REMARK    1  A    between atoms: N1_1  and  C1_4 
REMARK    2  A    between atoms: C5_10  and  C6_11 
REMARK    3  A    between atoms: C7_12  and  C8_13 
REMARK    4  A    between atoms: C13_18  and  N3_19 
REMARK    5  A    between atoms: N3_19  and  C14_21 
REMARK    6  A    between atoms: C14_21  and  C15_22 
REMARK    7  A    between atoms: C15_22  and  O1_23 
REMARK    8  A    between atoms: O1_23  and  C16_24 
REMARK    9  A    between atoms: C16_24  and  C17_25 
REMARK   10  A    between atoms: C17_25  and  O2_26 
REMARK   11  A    between atoms: O2_26  and  C18_27 
REMARK   12  A    between atoms: C18_27  and  C19_28 
REMARK   13  A    between atoms: C19_28  and  N4_29 
REMARK   14  A    between atoms: C21_31  and  N5_32 
ROOT
HETATM    1  C8  UNL     1      73.829   9.237   8.611  1.00  0.00    -0.009 A 
HETATM    2  C9  UNL     1      74.982   8.956   7.881  1.00  0.00     0.013 A 
HETATM    3  C10 UNL     1      75.720   9.920   7.237  1.00  0.00     0.001 A 
HETATM    4  C11 UNL     1      75.293  11.216   7.325  1.00  0.00     0.002 A 
HETATM    5  C12 UNL     1      74.135  11.512   8.052  1.00  0.00     0.030 A 
HETATM    6  C13 UNL     1      73.391  10.520   8.700  1.00  0.00     0.042 A 
ENDROOT
BRANCH   6   7
HETATM    7  N3  UNL     1      72.115  10.813   9.232  1.00  0.00    -0.367 N 
ATOM      8  H3  UNL     1      71.372  10.753   8.535  1.00  0.00     0.165 HD
BRANCH   7   9
HETATM    9  C14 UNL     1      71.637  11.169  10.503  1.00  0.00     0.087 C 
BRANCH   9  10
HETATM   10  C15 UNL     1      72.562  11.339  11.656  1.00  0.00     0.212 C 
BRANCH  10  11
HETATM   11  O1  UNL     1      71.963  10.837  12.835  1.00  0.00    -0.384 OA
BRANCH  11  12
HETATM   12  C16 UNL     1      70.661  10.473  12.693  1.00  0.00     0.194 C 
BRANCH  12  13
HETATM   13  C17 UNL     1      69.761  11.292  13.549  1.00  0.00     0.193 C 
BRANCH  13  14
HETATM   14  O2  UNL     1      70.501  12.242  14.310  1.00  0.00    -0.387 OA
BRANCH  14  15
HETATM   15  C18 UNL     1      69.732  13.368  14.384  1.00  0.00     0.198 C 
BRANCH  15  16
HETATM   16  C19 UNL     1      69.987  14.225  15.584  1.00  0.00     0.298 C 
BRANCH  16  17
HETATM   17  N4  UNL     1      68.862  14.613  16.324  1.00  0.00     0.094 N 
HETATM   18  C20 UNL     1      68.168  15.817  16.018  1.00  0.00     0.306 C 
HETATM   19  C21 UNL     1      68.385  16.243  17.477  1.00  0.00     0.239 C 
HETATM   20  C22 UNL     1      68.983  14.861  17.724  1.00  0.00     0.306 C 
BRANCH  19  21
HETATM   21  N5  UNL     1      67.151  16.480  18.202  1.00  0.00    -0.072 N 
ATOM     22  H53 UNL     1      67.245  17.286  18.821  1.00  0.00     0.274 HD
ATOM     23  H52 UNL     1      66.427  16.829  17.575  1.00  0.00     0.274 HD
ATOM     24  H51 UNL     1      66.819  15.665  18.718  1.00  0.00     0.274 HD
ENDBRANCH  19  21
ENDBRANCH  16  17
ENDBRANCH  15  16
ENDBRANCH  14  15
ENDBRANCH  13  14
ENDBRANCH  12  13
ENDBRANCH  11  12
ENDBRANCH  10  11
ENDBRANCH   9  10
ENDBRANCH   7   9
ENDBRANCH   6   7
BRANCH   1  25
HETATM   25  C7  UNL     1      73.163   8.089   9.249  1.00  0.00     0.014 C 
HETATM   26  C6  UNL     1      73.001   7.834  10.488  1.00  0.00     0.016 C 
BRANCH  26  27
HETATM   27  C5  UNL     1      72.352   6.731  11.134  1.00  0.00     0.007 A 
HETATM   28  C1  UNL     1      72.595   6.336  12.411  1.00  0.00     0.108 A 
HETATM   29  N2  UNL     1      71.945   5.268  12.989  1.00  0.00    -0.352 N 
HETATM   30  C2  UNL     1      71.041   4.586  12.277  1.00  0.00     0.089 A 
ATOM     31  H2  UNL     1      72.151   4.999  13.951  1.00  0.00     0.166 HD
HETATM   32  C3  UNL     1      70.743   4.922  10.990  1.00  0.00     0.018 A 
HETATM   33  C4  UNL     1      71.387   5.979  10.421  1.00  0.00     0.016 A 
BRANCH  28  34
HETATM   34  N1  UNL     1      73.426   6.907  13.186  1.00  0.00    -0.385 N 
ATOM     35  H12 UNL     1      73.883   7.794  12.975  1.00  0.00     0.157 HD
ATOM     36  H11 UNL     1      73.595   6.398  14.053  1.00  0.00     0.157 HD
ENDBRANCH  28  34
ENDBRANCH  26  27
ENDBRANCH   1  25
TORSDOF 14
ENDMDL
MODEL 5
REMARK VINA RESULT: -6.518477852      3.999      7.239
REMARK  14 active torsions:
REMARK  status: ('A' for Active; 'I' for Inactive)
REMARK    1  A    between atoms: N1_1  and  C1_4 
REMARK    2  A    between atoms: C5_10  and  C6_11 
REMARK    3  A    between atoms: C7_12  and  C8_13 
REMARK    4  A    between atoms: C13_18  and  N3_19 
REMARK    5  A    between atoms: N3_19  and  C14_21 
REMARK    6  A    between atoms: C14_21  and  C15_22 
REMARK    7  A    between atoms: C15_22  and  O1_23 
REMARK    8  A    between atoms: O1_23  and  C16_24 
REMARK    9  A    between atoms: C16_24  and  C17_25 
REMARK   10  A    between atoms: C17_25  and  O2_26 
REMARK   11  A    between atoms: O2_26  and  C18_27 
REMARK   12  A    between atoms: C18_27  and  C19_28 
REMARK   13  A    between atoms: C19_28  and  N4_29 
REMARK   14  A    between atoms: C21_31  and  N5_32 
ROOT
HETATM    1  C8  UNL     1      70.383  14.600  13.525  1.00  0.00    -0.009 A 
HETATM    2  C9  UNL     1      70.694  15.843  12.979  1.00  0.00     0.013 A 
HETATM    3  C10 UNL     1      70.590  16.125  11.638  1.00  0.00     0.001 A 
HETATM    4  C11 UNL     1      70.158  15.128  10.808  1.00  0.00     0.002 A 
HETATM    5  C12 UNL     1      69.845  13.874  11.342  1.00  0.00     0.030 A 
HETATM    6  C13 UNL     1      69.959  13.599  12.710  1.00  0.00     0.042 A 
ENDROOT
BRANCH   6   7
HETATM    7  N3  UNL     1      69.855  12.272  13.186  1.00  0.00    -0.367 N 
ATOM      8  H3  UNL     1      69.118  12.159  13.882  1.00  0.00     0.165 HD
BRANCH   7   9
HETATM    9  C14 UNL     1      70.537  11.075  12.918  1.00  0.00     0.087 C 
BRANCH   9  10
HETATM   10  C15 UNL     1      72.022  11.036  12.825  1.00  0.00     0.212 C 
BRANCH  10  11
HETATM   11  O1  UNL     1      72.437  11.431  11.532  1.00  0.00    -0.384 OA
BRANCH  11  12
HETATM   12  C16 UNL     1      72.384  10.443  10.599  1.00  0.00     0.194 C 
BRANCH  12  13
HETATM   13  C17 UNL     1      71.239  10.626   9.666  1.00  0.00     0.193 C 
BRANCH  13  14
HETATM   14  O2  UNL     1      70.452   9.442   9.582  1.00  0.00    -0.387 OA
BRANCH  14  15
HETATM   15  C18 UNL     1      71.173   8.449  10.181  1.00  0.00     0.198 C 
BRANCH  15  16
HETATM   16  C19 UNL     1      70.368   7.502  11.013  1.00  0.00     0.298 C 
BRANCH  16  17
HETATM   17  N4  UNL     1      71.018   6.935  12.118  1.00  0.00     0.094 N 
HETATM   18  C20 UNL     1      72.393   7.198  12.369  1.00  0.00     0.306 C 
HETATM   19  C21 UNL     1      72.626   5.681  12.358  1.00  0.00     0.239 C 
HETATM   20  C22 UNL     1      71.114   5.516  12.233  1.00  0.00     0.306 C 
BRANCH  19  21
HETATM   21  N5  UNL     1      73.165   5.168  13.602  1.00  0.00    -0.072 N 
ATOM     22  H53 UNL     1      72.945   5.795  14.376  1.00  0.00     0.274 HD
ATOM     23  H52 UNL     1      72.652   4.339  13.903  1.00  0.00     0.274 HD
ATOM     24  H51 UNL     1      74.166   4.978  13.565  1.00  0.00     0.274 HD
ENDBRANCH  19  21
ENDBRANCH  16  17
ENDBRANCH  15  16
ENDBRANCH  14  15
ENDBRANCH  13  14
ENDBRANCH  12  13
ENDBRANCH  11  12
ENDBRANCH  10  11
ENDBRANCH   9  10
ENDBRANCH   7   9
ENDBRANCH   6   7
BRANCH   1  25
HETATM   25  C7  UNL     1      70.539  14.468  14.984  1.00  0.00     0.014 C 
HETATM   26  C6  UNL     1      70.161  15.256  15.912  1.00  0.00     0.016 C 
BRANCH  26  27
HETATM   27  C5  UNL     1      70.294  15.148  17.335  1.00  0.00     0.007 A 
HETATM   28  C1  UNL     1      69.250  15.109  18.205  1.00  0.00     0.108 A 
HETATM   29  N2  UNL     1      69.428  15.005  19.566  1.00  0.00    -0.352 N 
HETATM   30  C2  UNL     1      70.668  14.940  20.064  1.00  0.00     0.089 A 
ATOM     31  H2  UNL     1      68.621  14.977  20.191  1.00  0.00     0.166 HD
HETATM   32  C3  UNL     1      71.765  14.974  19.256  1.00  0.00     0.018 A 
HETATM   33  C4  UNL     1      71.586  15.077  17.908  1.00  0.00     0.016 A 
BRANCH  28  34
HETATM   34  N1  UNL     1      68.029  15.157  17.852  1.00  0.00    -0.385 N 
ATOM     35  H12 UNL     1      67.607  15.950  17.368  1.00  0.00     0.157 HD
ATOM     36  H11 UNL     1      67.500  14.319  18.092  1.00  0.00     0.157 HD
ENDBRANCH  28  34
ENDBRANCH  26  27
ENDBRANCH   1  25
TORSDOF 14
ENDMDL
