MODEL 1
REMARK VINA RESULT: -7.487729731      0.000      0.000
REMARK  15 active torsions:
REMARK  status: ('A' for Active; 'I' for Inactive)
REMARK    1  A    between atoms: N1_2  and  C2_5 
REMARK    2  A    between atoms: C2_5  and  C3_6 
REMARK    3  A    between atoms: C3_6  and  C4_7 
REMARK    4  A    between atoms: C4_7  and  N2_8 
REMARK    5  A    between atoms: C7_13  and  N4_14 
REMARK    6  A    between atoms: N4_14  and  C8_16 
REMARK    7  A    between atoms: C8_16  and  C9_17 
REMARK    8  A    between atoms: C9_17  and  C10_18 
REMARK    9  A    between atoms: C10_18  and  C11_19 
REMARK   10  A    between atoms: C11_19  and  C12_20 
REMARK   11  A    between atoms: C12_20  and  C13_21 
REMARK   12  A    between atoms: C19_29  and  N6_30 
REMARK   13  A    between atoms: N6_30  and  C20_32 
REMARK   14  A    between atoms: C20_32  and  C21_33 
REMARK   15  A    between atoms: C21_33  and  O1_34 
ROOT
HETATM    1  N2  UNL     1      69.550  15.213  14.488  1.00  0.00    -0.327 N 
HETATM    2  C5  UNL     1      69.778  14.128  15.237  1.00  0.00     0.185 A 
HETATM    3  N3  UNL     1      70.093  13.076  14.445  1.00  0.00    -0.346 N 
ATOM      4  H3  UNL     1      70.311  12.133  14.767  1.00  0.00     0.167 HD
HETATM    5  C6  UNL     1      70.070  13.478  13.180  1.00  0.00     0.123 A 
HETATM    6  C7  UNL     1      70.311  12.826  11.983  1.00  0.00     0.147 A 
HETATM    7  N5  UNL     1      70.198  13.555  10.860  1.00  0.00    -0.175 N 
ATOM      8  H5  UNL     1      70.370  13.105   9.961  1.00  0.00     0.186 HD
HETATM    9  C19 UNL     1      69.863  14.875  10.883  1.00  0.00     0.681 A 
HETATM   10  N7  UNL     1      69.625  15.520  12.062  1.00  0.00    -0.174 N 
ATOM     11  H7  UNL     1      69.373  16.509  12.072  1.00  0.00     0.186 HD
HETATM   12  C22 UNL     1      69.727  14.831  13.204  1.00  0.00     0.155 A 
ENDROOT
BRANCH   6  13
HETATM   13  N4  UNL     1      70.621  11.597  11.989  1.00  0.00    -0.374 N 
ATOM     14  H4  UNL     1      69.859  10.921  11.934  1.00  0.00     0.161 HD
BRANCH  13  15
HETATM   15  C8  UNL     1      71.964  11.078  12.068  1.00  0.00     0.121 C 
BRANCH  15  16
HETATM   16  C9  UNL     1      72.548  10.808  10.698  1.00  0.00     0.020 C 
BRANCH  16  17
HETATM   17  C10 UNL     1      71.544  10.270   9.720  1.00  0.00     0.002 C 
BRANCH  17  18
HETATM   18  C11 UNL     1      71.638   8.793   9.528  1.00  0.00     0.005 C 
BRANCH  18  19
HETATM   19  C12 UNL     1      70.577   8.114  10.398  1.00  0.00     0.038 C 
BRANCH  19  20
HETATM   20  C13 UNL     1      71.198   7.034  11.186  1.00  0.00    -0.058 A 
HETATM   21  C14 UNL     1      70.799   5.711  10.994  1.00  0.00     0.007 A 
HETATM   22  C15 UNL     1      71.407   4.731  11.753  1.00  0.00     0.001 A 
HETATM   23  C16 UNL     1      72.379   5.010  12.681  1.00  0.00     0.000 A 
HETATM   24  C17 UNL     1      72.772   6.307  12.870  1.00  0.00     0.001 A 
HETATM   25  C18 UNL     1      72.172   7.315  12.114  1.00  0.00     0.007 A 
ENDBRANCH  19  20
ENDBRANCH  18  19
ENDBRANCH  17  18
ENDBRANCH  16  17
ENDBRANCH  15  16
ENDBRANCH  13  15
ENDBRANCH   6  13
BRANCH   9  26
HETATM   26  N6  UNL     1      69.749  15.577   9.834  1.00  0.00    -0.224 N 
ATOM     27  H6  UNL     1      70.567  15.619   9.227  1.00  0.00     0.177 HD
BRANCH  26  28
HETATM   28  C20 UNL     1      68.598  16.323   9.405  1.00  0.00     0.164 C 
BRANCH  28  29
HETATM   29  C21 UNL     1      68.490  16.373   7.893  1.00  0.00     0.184 C 
BRANCH  29  30
HETATM   30  O1  UNL     1      67.202  16.073   7.468  1.00  0.00    -0.399 OA
ATOM     31  H1  UNL     1      67.205  15.694   6.597  1.00  0.00     0.209 HD
ENDBRANCH  29  30
ENDBRANCH  28  29
ENDBRANCH  26  28
ENDBRANCH   9  26
BRANCH   1  32
HETATM   32  C4  UNL     1      69.191  16.526  14.990  1.00  0.00     0.133 C 
BRANCH  32  33
HETATM   33  C3  UNL     1      69.003  16.337  16.502  1.00  0.00     0.048 C 
BRANCH  33  34
HETATM   34  C2  UNL     1      67.672  16.842  16.950  1.00  0.00     0.233 C 
BRANCH  34  35
HETATM   35  N1  UNL     1      67.269  16.137  18.146  1.00  0.00    -0.079 N 
HETATM   36  C1  UNL     1      68.258  15.253  18.674  1.00  0.00     0.266 C 
ATOM     37  H12 UNL     1      66.395  15.637  17.985  1.00  0.00     0.276 HD
ATOM     38  H11 UNL     1      66.964  16.797  18.861  1.00  0.00     0.276 HD
ENDBRANCH  34  35
ENDBRANCH  33  34
ENDBRANCH  32  33
ENDBRANCH   1  32
TORSDOF 15
ENDMDL
MODEL 2
REMARK VINA RESULT: -7.386733802      4.087      7.481
REMARK  15 active torsions:
REMARK  status: ('A' for Active; 'I' for Inactive)
REMARK    1  A    between atoms: N1_2  and  C2_5 
REMARK    2  A    between atoms: C2_5  and  C3_6 
REMARK    3  A    between atoms: C3_6  and  C4_7 
REMARK    4  A    between atoms: C4_7  and  N2_8 
REMARK    5  A    between atoms: C7_13  and  N4_14 
REMARK    6  A    between atoms: N4_14  and  C8_16 
REMARK    7  A    between atoms: C8_16  and  C9_17 
REMARK    8  A    between atoms: C9_17  and  C10_18 
REMARK    9  A    between atoms: C10_18  and  C11_19 
REMARK   10  A    between atoms: C11_19  and  C12_20 
REMARK   11  A    between atoms: C12_20  and  C13_21 
REMARK   12  A    between atoms: C19_29  and  N6_30 
REMARK   13  A    between atoms: N6_30  and  C20_32 
REMARK   14  A    between atoms: C20_32  and  C21_33 
REMARK   15  A    between atoms: C21_33  and  O1_34 
ROOT
HETATM    1  N2  UNL     1      71.459   8.113  10.343  1.00  0.00    -0.327 N 
HETATM    2  C5  UNL     1      72.599   7.664   9.802  1.00  0.00     0.185 A 
HETATM    3  N3  UNL     1      73.482   8.682   9.676  1.00  0.00    -0.346 N 
ATOM      4  H3  UNL     1      74.425   8.608   9.292  1.00  0.00     0.167 HD
HETATM    5  C6  UNL     1      72.917   9.793  10.134  1.00  0.00     0.123 A 
HETATM    6  C7  UNL     1      73.363  11.098  10.241  1.00  0.00     0.147 A 
HETATM    7  N5  UNL     1      72.509  11.992  10.767  1.00  0.00    -0.175 N 
ATOM      8  H5  UNL     1      72.806  12.963  10.861  1.00  0.00     0.186 HD
HETATM    9  C19 UNL     1      71.258  11.643  11.180  1.00  0.00     0.681 A 
HETATM   10  N7  UNL     1      70.816  10.356  11.075  1.00  0.00    -0.174 N 
ATOM     11  H7  UNL     1      69.878  10.102  11.386  1.00  0.00     0.186 HD
HETATM   12  C22 UNL     1      71.636   9.435  10.557  1.00  0.00     0.155 A 
ENDROOT
BRANCH   6  13
HETATM   13  N4  UNL     1      74.531  11.397   9.849  1.00  0.00    -0.374 N 
ATOM     14  H4  UNL     1      75.314  10.942  10.319  1.00  0.00     0.161 HD
BRANCH  13  15
HETATM   15  C8  UNL     1      74.842  12.328   8.793  1.00  0.00     0.121 C 
BRANCH  15  16
HETATM   16  C9  UNL     1      74.670  11.707   7.422  1.00  0.00     0.020 C 
BRANCH  16  17
HETATM   17  C10 UNL     1      75.973  11.366   6.758  1.00  0.00     0.002 C 
BRANCH  17  18
HETATM   18  C11 UNL     1      76.016   9.974   6.221  1.00  0.00     0.005 C 
BRANCH  18  19
HETATM   19  C12 UNL     1      76.088   8.994   7.395  1.00  0.00     0.038 C 
BRANCH  19  20
HETATM   20  C13 UNL     1      75.810   7.628   6.919  1.00  0.00    -0.058 A 
HETATM   21  C14 UNL     1      76.753   6.617   7.105  1.00  0.00     0.007 A 
HETATM   22  C15 UNL     1      76.453   5.352   6.643  1.00  0.00     0.001 A 
HETATM   23  C16 UNL     1      75.270   5.056   6.011  1.00  0.00     0.000 A 
HETATM   24  C17 UNL     1      74.343   6.046   5.827  1.00  0.00     0.001 A 
HETATM   25  C18 UNL     1      74.626   7.334   6.287  1.00  0.00     0.007 A 
ENDBRANCH  19  20
ENDBRANCH  18  19
ENDBRANCH  17  18
ENDBRANCH  16  17
ENDBRANCH  15  16
ENDBRANCH  13  15
ENDBRANCH   6  13
BRANCH   9  26
HETATM   26  N6  UNL     1      70.438  12.472  11.676  1.00  0.00    -0.224 N 
ATOM     27  H6  UNL     1      69.714  12.822  11.048  1.00  0.00     0.177 HD
BRANCH  26  28
HETATM   28  C20 UNL     1      70.414  12.976  13.022  1.00  0.00     0.164 C 
BRANCH  28  29
HETATM   29  C21 UNL     1      69.338  12.306  13.855  1.00  0.00     0.184 C 
BRANCH  29  30
HETATM   30  O1  UNL     1      69.379  10.924  13.718  1.00  0.00    -0.399 OA
ATOM     31  H1  UNL     1      68.523  10.573  13.499  1.00  0.00     0.209 HD
ENDBRANCH  29  30
ENDBRANCH  28  29
ENDBRANCH  26  28
ENDBRANCH   9  26
BRANCH   1  32
HETATM   32  C4  UNL     1      70.287   7.307  10.632  1.00  0.00     0.133 C 
BRANCH  32  33
HETATM   33  C3  UNL     1      70.814   5.871  10.764  1.00  0.00     0.048 C 
BRANCH  33  34
HETATM   34  C2  UNL     1      70.681   5.373  12.164  1.00  0.00     0.233 C 
BRANCH  34  35
HETATM   35  N1  UNL     1      71.980   4.970  12.656  1.00  0.00    -0.079 N 
HETATM   36  C1  UNL     1      72.851   6.053  12.984  1.00  0.00     0.266 C 
ATOM     37  H12 UNL     1      72.431   4.341  11.992  1.00  0.00     0.276 HD
ATOM     38  H11 UNL     1      71.880   4.341  13.452  1.00  0.00     0.276 HD
ENDBRANCH  34  35
ENDBRANCH  33  34
ENDBRANCH  32  33
ENDBRANCH   1  32
TORSDOF 15
ENDMDL
MODEL 3
REMARK VINA RESULT: -7.299125061      4.112      7.671
REMARK  15 active torsions:
REMARK  status: ('A' for Active; 'I' for Inactive)
REMARK    1  A    between atoms: N1_2  and  C2_5 
REMARK    2  A    between atoms: C2_5  and  C3_6 
REMARK    3  A    between atoms: C3_6  and  C4_7 
REMARK    4  A    between atoms: C4_7  and  N2_8 
REMARK    5  A    between atoms: C7_13  and  N4_14 
REMARK    6  A    between atoms: N4_14  and  C8_16 
REMARK    7  A    between atoms: C8_16  and  C9_17 
REMARK    8  A    between atoms: C9_17  and  C10_18 
REMARK    9  A    between atoms: C10_18  and  C11_19 
REMARK   10  A    between atoms: C11_19  and  C12_20 
REMARK   11  A    between atoms: C12_20  and  C13_21 
REMARK   12  A    between atoms: C19_29  and  N6_30 
REMARK   13  A    between atoms: N6_30  and  C20_32 
REMARK   14  A    between atoms: C20_32  and  C21_33 
REMARK   15  A    between atoms: C21_33  and  O1_34 
ROOT
HETATM    1  N2  UNL     1      71.479   8.143  10.343  1.00  0.00    -0.327 N 
HETATM    2  C5  UNL     1      72.622   7.699   9.805  1.00  0.00     0.185 A 
HETATM    3  N3  UNL     1      73.503   8.720   9.686  1.00  0.00    -0.346 N 
ATOM      4  H3  UNL     1      74.447   8.650   9.306  1.00  0.00     0.167 HD
HETATM    5  C6  UNL     1      72.933   9.827  10.147  1.00  0.00     0.123 A 
HETATM    6  C7  UNL     1      73.376  11.133  10.261  1.00  0.00     0.147 A 
HETATM    7  N5  UNL     1      72.517  12.023  10.787  1.00  0.00    -0.175 N 
ATOM      8  H5  UNL     1      72.812  12.994  10.886  1.00  0.00     0.186 HD
HETATM    9  C19 UNL     1      71.266  11.670  11.193  1.00  0.00     0.681 A 
HETATM   10  N7  UNL     1      70.827  10.382  11.081  1.00  0.00    -0.174 N 
ATOM     11  H7  UNL     1      69.888  10.124  11.387  1.00  0.00     0.186 HD
HETATM   12  C22 UNL     1      71.651   9.465  10.563  1.00  0.00     0.155 A 
ENDROOT
BRANCH   6  13
HETATM   13  N4  UNL     1      74.545  11.436   9.875  1.00  0.00    -0.374 N 
ATOM     14  H4  UNL     1      75.328  11.019  10.379  1.00  0.00     0.161 HD
BRANCH  13  15
HETATM   15  C8  UNL     1      74.856  12.323   8.782  1.00  0.00     0.121 C 
BRANCH  15  16
HETATM   16  C9  UNL     1      74.567  11.689   7.438  1.00  0.00     0.020 C 
BRANCH  16  17
HETATM   17  C10 UNL     1      75.794  11.501   6.594  1.00  0.00     0.002 C 
BRANCH  17  18
HETATM   18  C11 UNL     1      76.647  10.359   7.037  1.00  0.00     0.005 C 
BRANCH  18  19
HETATM   19  C12 UNL     1      76.974   9.487   5.823  1.00  0.00     0.038 C 
BRANCH  19  20
HETATM   20  C13 UNL     1      75.905   8.491   5.627  1.00  0.00    -0.058 A 
HETATM   21  C14 UNL     1      75.361   7.826   6.726  1.00  0.00     0.007 A 
HETATM   22  C15 UNL     1      74.362   6.900   6.498  1.00  0.00     0.001 A 
HETATM   23  C16 UNL     1      73.892   6.614   5.240  1.00  0.00     0.000 A 
HETATM   24  C17 UNL     1      74.425   7.265   4.161  1.00  0.00     0.001 A 
HETATM   25  C18 UNL     1      75.436   8.206   4.368  1.00  0.00     0.007 A 
ENDBRANCH  19  20
ENDBRANCH  18  19
ENDBRANCH  17  18
ENDBRANCH  16  17
ENDBRANCH  15  16
ENDBRANCH  13  15
ENDBRANCH   6  13
BRANCH   9  26
HETATM   26  N6  UNL     1      70.442  12.494  11.689  1.00  0.00    -0.224 N 
ATOM     27  H6  UNL     1      69.722  12.849  11.058  1.00  0.00     0.177 HD
BRANCH  26  28
HETATM   28  C20 UNL     1      70.406  12.987  13.039  1.00  0.00     0.164 C 
BRANCH  28  29
HETATM   29  C21 UNL     1      69.326  12.307  13.859  1.00  0.00     0.184 C 
BRANCH  29  30
HETATM   30  O1  UNL     1      69.381  10.926  13.721  1.00  0.00    -0.399 OA
ATOM     31  H1  UNL     1      68.522  10.534  13.826  1.00  0.00     0.209 HD
ENDBRANCH  29  30
ENDBRANCH  28  29
ENDBRANCH  26  28
ENDBRANCH   9  26
BRANCH   1  32
HETATM   32  C4  UNL     1      70.308   7.333  10.623  1.00  0.00     0.133 C 
BRANCH  32  33
HETATM   33  C3  UNL     1      70.835   5.896  10.741  1.00  0.00     0.048 C 
BRANCH  33  34
HETATM   34  C2  UNL     1      70.680   5.375  12.131  1.00  0.00     0.233 C 
BRANCH  34  35
HETATM   35  N1  UNL     1      71.969   4.957  12.634  1.00  0.00    -0.079 N 
HETATM   36  C1  UNL     1      72.842   6.030  12.989  1.00  0.00     0.266 C 
ATOM     37  H12 UNL     1      72.425   4.334  11.968  1.00  0.00     0.276 HD
ATOM     38  H11 UNL     1      71.853   4.318  13.420  1.00  0.00     0.276 HD
ENDBRANCH  34  35
ENDBRANCH  33  34
ENDBRANCH  32  33
ENDBRANCH   1  32
TORSDOF 15
ENDMDL
MODEL 4
REMARK VINA RESULT: -7.273906317      4.294     10.318
REMARK  15 active torsions:
REMARK  status: ('A' for Active; 'I' for Inactive)
REMARK    1  A    between atoms: N1_2  and  C2_5 
REMARK    2  A    between atoms: C2_5  and  C3_6 
REMARK    3  A    between atoms: C3_6  and  C4_7 
REMARK    4  A    between atoms: C4_7  and  N2_8 
REMARK    5  A    between atoms: C7_13  and  N4_14 
REMARK    6  A    between atoms: N4_14  and  C8_16 
REMARK    7  A    between atoms: C8_16  and  C9_17 
REMARK    8  A    between atoms: C9_17  and  C10_18 
REMARK    9  A    between atoms: C10_18  and  C11_19 
REMARK   10  A    between atoms: C11_19  and  C12_20 
REMARK   11  A    between atoms: C12_20  and  C13_21 
REMARK   12  A    between atoms: C19_29  and  N6_30 
REMARK   13  A    between atoms: N6_30  and  C20_32 
REMARK   14  A    between atoms: C20_32  and  C21_33 
REMARK   15  A    between atoms: C21_33  and  O1_34 
ROOT
HETATM    1  N2  UNL     1      73.094   8.606   8.764  1.00  0.00    -0.327 N 
HETATM    2  C5  UNL     1      72.982   9.940   8.781  1.00  0.00     0.185 A 
HETATM    3  N3  UNL     1      72.124  10.319   9.756  1.00  0.00    -0.346 N 
ATOM      4  H3  UNL     1      71.863  11.280   9.979  1.00  0.00     0.167 HD
HETATM    5  C6  UNL     1      71.678   9.232  10.374  1.00  0.00     0.123 A 
HETATM    6  C7  UNL     1      70.799   9.044  11.426  1.00  0.00     0.147 A 
HETATM    7  N5  UNL     1      70.570   7.775  11.807  1.00  0.00    -0.175 N 
ATOM      8  H5  UNL     1      69.927   7.601  12.580  1.00  0.00     0.186 HD
HETATM    9  C19 UNL     1      71.167   6.715  11.196  1.00  0.00     0.681 A 
HETATM   10  N7  UNL     1      72.034   6.899  10.158  1.00  0.00    -0.174 N 
ATOM     11  H7  UNL     1      72.479   6.100   9.704  1.00  0.00     0.186 HD
HETATM   12  C22 UNL     1      72.291   8.145   9.748  1.00  0.00     0.155 A 
ENDROOT
BRANCH   6  13
HETATM   13  N4  UNL     1      70.256  10.047  11.978  1.00  0.00    -0.374 N 
ATOM     14  H4  UNL     1      69.294  10.264  11.714  1.00  0.00     0.161 HD
BRANCH  13  15
HETATM   15  C8  UNL     1      70.888  10.908  12.947  1.00  0.00     0.121 C 
BRANCH  15  16
HETATM   16  C9  UNL     1      70.193  12.249  13.052  1.00  0.00     0.020 C 
BRANCH  16  17
HETATM   17  C10 UNL     1      69.176  12.305  14.154  1.00  0.00     0.002 C 
BRANCH  17  18
HETATM   18  C11 UNL     1      68.946  13.685  14.677  1.00  0.00     0.005 C 
BRANCH  18  19
HETATM   19  C12 UNL     1      70.240  14.190  15.319  1.00  0.00     0.038 C 
BRANCH  19  20
HETATM   20  C13 UNL     1      69.977  14.595  16.711  1.00  0.00    -0.058 A 
HETATM   21  C14 UNL     1      71.033  14.972  17.541  1.00  0.00     0.007 A 
HETATM   22  C15 UNL     1      70.741  15.344  18.838  1.00  0.00     0.001 A 
HETATM   23  C16 UNL     1      69.462  15.356  19.335  1.00  0.00     0.000 A 
HETATM   24  C17 UNL     1      68.424  14.987  18.523  1.00  0.00     0.001 A 
HETATM   25  C18 UNL     1      68.695  14.607  17.207  1.00  0.00     0.007 A 
ENDBRANCH  19  20
ENDBRANCH  18  19
ENDBRANCH  17  18
ENDBRANCH  16  17
ENDBRANCH  15  16
ENDBRANCH  13  15
ENDBRANCH   6  13
BRANCH   9  26
HETATM   26  N6  UNL     1      70.961   5.513  11.540  1.00  0.00    -0.224 N 
ATOM     27  H6  UNL     1      70.076   5.103  11.240  1.00  0.00     0.177 HD
BRANCH  26  28
HETATM   28  C20 UNL     1      71.832   4.663  12.303  1.00  0.00     0.164 C 
BRANCH  28  29
HETATM   29  C21 UNL     1      72.815   5.464  13.136  1.00  0.00     0.184 C 
BRANCH  29  30
HETATM   30  O1  UNL     1      73.261   4.735  14.231  1.00  0.00    -0.399 OA
ATOM     31  H1  UNL     1      72.534   4.398  14.741  1.00  0.00     0.209 HD
ENDBRANCH  29  30
ENDBRANCH  28  29
ENDBRANCH  26  28
ENDBRANCH   9  26
BRANCH   1  32
HETATM   32  C4  UNL     1      73.928   7.840   7.856  1.00  0.00     0.133 C 
BRANCH  32  33
HETATM   33  C3  UNL     1      75.352   8.371   8.079  1.00  0.00     0.048 C 
BRANCH  33  34
HETATM   34  C2  UNL     1      76.092   8.492   6.789  1.00  0.00     0.233 C 
BRANCH  34  35
HETATM   35  N1  UNL     1      75.146   8.624   5.703  1.00  0.00    -0.079 N 
HETATM   36  C1  UNL     1      75.653   8.233   4.426  1.00  0.00     0.266 C 
ATOM     37  H12 UNL     1      74.781   9.576   5.664  1.00  0.00     0.276 HD
ATOM     38  H11 UNL     1      74.288   8.116   5.916  1.00  0.00     0.276 HD
ENDBRANCH  34  35
ENDBRANCH  33  34
ENDBRANCH  32  33
ENDBRANCH   1  32
TORSDOF 15
ENDMDL
MODEL 5
REMARK VINA RESULT: -7.235053466      3.738      7.335
REMARK  15 active torsions:
REMARK  status: ('A' for Active; 'I' for Inactive)
REMARK    1  A    between atoms: N1_2  and  C2_5 
REMARK    2  A    between atoms: C2_5  and  C3_6 
REMARK    3  A    between atoms: C3_6  and  C4_7 
REMARK    4  A    between atoms: C4_7  and  N2_8 
REMARK    5  A    between atoms: C7_13  and  N4_14 
REMARK    6  A    between atoms: N4_14  and  C8_16 
REMARK    7  A    between atoms: C8_16  and  C9_17 
REMARK    8  A    between atoms: C9_17  and  C10_18 
REMARK    9  A    between atoms: C10_18  and  C11_19 
REMARK   10  A    between atoms: C11_19  and  C12_20 
REMARK   11  A    between atoms: C12_20  and  C13_21 
REMARK   12  A    between atoms: C19_29  and  N6_30 
REMARK   13  A    between atoms: N6_30  and  C20_32 
REMARK   14  A    between atoms: C20_32  and  C21_33 
REMARK   15  A    between atoms: C21_33  and  O1_34 
ROOT
HETATM    1  N2  UNL     1      71.132   7.991  10.839  1.00  0.00    -0.327 N 
HETATM    2  C5  UNL     1      72.294   7.871  10.185  1.00  0.00     0.185 A 
HETATM    3  N3  UNL     1      73.044   8.982  10.367  1.00  0.00    -0.346 N 
ATOM      4  H3  UNL     1      73.972   9.145   9.975  1.00  0.00     0.167 HD
HETATM    5  C6  UNL     1      72.370   9.826  11.140  1.00  0.00     0.123 A 
HETATM    6  C7  UNL     1      72.662  11.086  11.632  1.00  0.00     0.147 A 
HETATM    7  N5  UNL     1      71.730  11.667  12.406  1.00  0.00    -0.175 N 
ATOM      8  H5  UNL     1      71.914  12.596  12.787  1.00  0.00     0.186 HD
HETATM    9  C19 UNL     1      70.548  11.058  12.699  1.00  0.00     0.681 A 
HETATM   10  N7  UNL     1      70.257   9.815  12.214  1.00  0.00    -0.174 N 
ATOM     11  H7  UNL     1      69.370   9.364  12.437  1.00  0.00     0.186 HD
HETATM   12  C22 UNL     1      71.159   9.201  11.441  1.00  0.00     0.155 A 
ENDROOT
BRANCH   6  13
HETATM   13  N4  UNL     1      73.769  11.632  11.344  1.00  0.00    -0.374 N 
ATOM     14  H4  UNL     1      74.514  11.578  12.040  1.00  0.00     0.161 HD
BRANCH  13  15
HETATM   15  C8  UNL     1      74.061  12.322  10.112  1.00  0.00     0.121 C 
BRANCH  15  16
HETATM   16  C9  UNL     1      75.104  11.597   9.289  1.00  0.00     0.020 C 
BRANCH  16  17
HETATM   17  C10 UNL     1      74.583  11.106   7.970  1.00  0.00     0.002 C 
BRANCH  17  18
HETATM   18  C11 UNL     1      75.502  10.143   7.293  1.00  0.00     0.005 C 
BRANCH  18  19
HETATM   19  C12 UNL     1      75.680   8.917   8.191  1.00  0.00     0.038 C 
BRANCH  19  20
HETATM   20  C13 UNL     1      75.507   7.690   7.394  1.00  0.00    -0.058 A 
HETATM   21  C14 UNL     1      74.304   7.454   6.728  1.00  0.00     0.007 A 
HETATM   22  C15 UNL     1      74.184   6.291   5.993  1.00  0.00     0.001 A 
HETATM   23  C16 UNL     1      75.195   5.368   5.897  1.00  0.00     0.000 A 
HETATM   24  C17 UNL     1      76.376   5.598   6.550  1.00  0.00     0.001 A 
HETATM   25  C18 UNL     1      76.521   6.767   7.299  1.00  0.00     0.007 A 
ENDBRANCH  19  20
ENDBRANCH  18  19
ENDBRANCH  17  18
ENDBRANCH  16  17
ENDBRANCH  15  16
ENDBRANCH  13  15
ENDBRANCH   6  13
BRANCH   9  26
HETATM   26  N6  UNL     1      69.656  11.592  13.424  1.00  0.00    -0.224 N 
ATOM     27  H6  UNL     1      69.051  10.953  13.941  1.00  0.00     0.177 HD
BRANCH  26  28
HETATM   28  C20 UNL     1      69.401  12.995  13.601  1.00  0.00     0.164 C 
BRANCH  28  29
HETATM   29  C21 UNL     1      69.176  13.349  15.058  1.00  0.00     0.184 C 
BRANCH  29  30
HETATM   30  O1  UNL     1      67.824  13.498  15.339  1.00  0.00    -0.399 OA
ATOM     31  H1  UNL     1      67.441  14.204  14.831  1.00  0.00     0.209 HD
ENDBRANCH  29  30
ENDBRANCH  28  29
ENDBRANCH  26  28
ENDBRANCH   9  26
BRANCH   1  32
HETATM   32  C4  UNL     1      70.077   6.995  10.877  1.00  0.00     0.133 C 
BRANCH  32  33
HETATM   33  C3  UNL     1      70.801   5.643  10.800  1.00  0.00     0.048 C 
BRANCH  33  34
HETATM   34  C2  UNL     1      70.835   4.971  12.131  1.00  0.00     0.233 C 
BRANCH  34  35
HETATM   35  N1  UNL     1      72.207   4.706  12.501  1.00  0.00    -0.079 N 
HETATM   36  C1  UNL     1      72.882   5.812  13.102  1.00  0.00     0.266 C 
ATOM     37  H12 UNL     1      72.732   4.364  11.696  1.00  0.00     0.276 HD
ATOM     38  H11 UNL     1      72.260   3.886  13.106  1.00  0.00     0.276 HD
ENDBRANCH  34  35
ENDBRANCH  33  34
ENDBRANCH  32  33
ENDBRANCH   1  32
TORSDOF 15
ENDMDL
