MODEL 1
REMARK VINA RESULT: -7.046354003      0.000      0.000
REMARK  16 active torsions:
REMARK  status: ('A' for Active; 'I' for Inactive)
REMARK    1  A    between atoms: C5_6  and  C6_7 
REMARK    2  A    between atoms: C6_7  and  C7_8 
REMARK    3  A    between atoms: C7_8  and  C8_9 
REMARK    4  A    between atoms: C8_9  and  C9_10 
REMARK    5  A    between atoms: C9_10  and  C10_11 
REMARK    6  A    between atoms: C10_11  and  C11_12 
REMARK    7  A    between atoms: C11_12  and  C12_13 
REMARK    8  A    between atoms: C12_13  and  C13_14 
REMARK    9  A    between atoms: C13_14  and  C14_15 
REMARK   10  A    between atoms: C14_15  and  C15_16 
REMARK   11  A    between atoms: C15_16  and  N1_17 
REMARK   12  A    between atoms: C17_19  and  O2_20 
REMARK   13  A    between atoms: C18_22  and  O3_23 
REMARK   14  A    between atoms: C19_25  and  O4_26 
REMARK   15  A    between atoms: C20_28  and  C21_29 
REMARK   16  A    between atoms: C21_29  and  O5_30 
ROOT
HETATM    1  C14 UNL     1      75.395   7.999   8.112  1.00  0.00     0.030 C 
ENDROOT
BRANCH   1   2
HETATM    2  C13 UNL     1      74.956   9.176   8.943  1.00  0.00     0.002 C 
BRANCH   2   3
HETATM    3  C12 UNL     1      74.669  10.379   8.112  1.00  0.00     0.000 C 
BRANCH   3   4
HETATM    4  C11 UNL     1      73.550  11.242   8.623  1.00  0.00     0.000 C 
BRANCH   4   5
HETATM    5  C10 UNL     1      73.636  11.504  10.100  1.00  0.00     0.000 C 
BRANCH   5   6
HETATM    6  C9  UNL     1      72.363  11.240  10.833  1.00  0.00     0.000 C 
BRANCH   6   7
HETATM    7  C8  UNL     1      71.241  10.761   9.977  1.00  0.00     0.000 C 
BRANCH   7   8
HETATM    8  C7  UNL     1      70.811   9.381  10.356  1.00  0.00     0.005 C 
BRANCH   8   9
HETATM    9  C6  UNL     1      71.608   8.266   9.768  1.00  0.00     0.038 C 
BRANCH   9  10
HETATM   10  C5  UNL     1      71.747   7.145  10.716  1.00  0.00    -0.058 C 
HETATM   11  C4  UNL     1      71.218   5.911  10.428  1.00  0.00     0.007 C 
HETATM   12  C3  UNL     1      70.899   4.862  11.256  1.00  0.00     0.004 C 
HETATM   13  C2  UNL     1      71.557   4.601  12.463  1.00  0.00     0.055 C 
HETATM   14  C1  UNL     1      72.577   5.289  13.100  1.00  0.00     0.171 C 
HETATM   15  O1  UNL     1      73.247   4.694  13.981  1.00  0.00    -0.289 OA
HETATM   16  C23 UNL     1      72.920   6.612  12.832  1.00  0.00     0.055 C 
HETATM   17  C22 UNL     1      72.443   7.472  11.878  1.00  0.00     0.011 C 
ENDBRANCH   9  10
ENDBRANCH   8   9
ENDBRANCH   7   8
ENDBRANCH   6   7
ENDBRANCH   5   6
ENDBRANCH   4   5
ENDBRANCH   3   4
ENDBRANCH   2   3
ENDBRANCH   1   2
BRANCH   1  18
HETATM   18  C15 UNL     1      76.278   8.439   6.998  1.00  0.00     0.273 C 
BRANCH  18  19
HETATM   19  N1  UNL     1      76.704   7.344   6.153  1.00  0.00     0.100 N 
HETATM   20  C16 UNL     1      76.763   7.896   4.807  1.00  0.00     0.307 C 
HETATM   21  C17 UNL     1      75.406   8.345   4.353  1.00  0.00     0.177 C 
HETATM   22  C18 UNL     1      74.338   7.304   4.628  1.00  0.00     0.179 C 
HETATM   23  C19 UNL     1      74.966   5.997   5.011  1.00  0.00     0.184 C 
HETATM   24  C20 UNL     1      75.860   6.187   6.219  1.00  0.00     0.277 C 
BRANCH  21  25
HETATM   25  O2  UNL     1      75.520   8.580   2.969  1.00  0.00    -0.391 OA
ATOM     26  H2  UNL     1      75.533   7.723   2.559  1.00  0.00     0.210 HD
ENDBRANCH  21  25
BRANCH  22  27
HETATM   27  O3  UNL     1      73.559   7.059   3.481  1.00  0.00    -0.390 OA
ATOM     28  H3  UNL     1      73.763   6.214   3.100  1.00  0.00     0.210 HD
ENDBRANCH  22  27
BRANCH  23  29
HETATM   29  O4  UNL     1      75.628   5.454   3.931  1.00  0.00    -0.391 OA
ATOM     30  H4  UNL     1      75.923   4.575   4.137  1.00  0.00     0.210 HD
ENDBRANCH  23  29
BRANCH  24  31
HETATM   31  C21 UNL     1      76.611   4.887   6.439  1.00  0.00     0.202 C 
BRANCH  31  32
HETATM   32  O5  UNL     1      77.431   4.928   7.552  1.00  0.00    -0.399 OA
ATOM     33  H5  UNL     1      78.146   5.546   7.455  1.00  0.00     0.209 HD
ENDBRANCH  31  32
ENDBRANCH  24  31
ENDBRANCH  18  19
ENDBRANCH   1  18
TORSDOF 16
ENDMDL
MODEL 2
REMARK VINA RESULT: -6.968546183      4.319      7.034
REMARK  16 active torsions:
REMARK  status: ('A' for Active; 'I' for Inactive)
REMARK    1  A    between atoms: C5_6  and  C6_7 
REMARK    2  A    between atoms: C6_7  and  C7_8 
REMARK    3  A    between atoms: C7_8  and  C8_9 
REMARK    4  A    between atoms: C8_9  and  C9_10 
REMARK    5  A    between atoms: C9_10  and  C10_11 
REMARK    6  A    between atoms: C10_11  and  C11_12 
REMARK    7  A    between atoms: C11_12  and  C12_13 
REMARK    8  A    between atoms: C12_13  and  C13_14 
REMARK    9  A    between atoms: C13_14  and  C14_15 
REMARK   10  A    between atoms: C14_15  and  C15_16 
REMARK   11  A    between atoms: C15_16  and  N1_17 
REMARK   12  A    between atoms: C17_19  and  O2_20 
REMARK   13  A    between atoms: C18_22  and  O3_23 
REMARK   14  A    between atoms: C19_25  and  O4_26 
REMARK   15  A    between atoms: C20_28  and  C21_29 
REMARK   16  A    between atoms: C21_29  and  O5_30 
ROOT
HETATM    1  C14 UNL     1      73.033   8.421   8.977  1.00  0.00     0.030 C 
ENDROOT
BRANCH   1   2
HETATM    2  C13 UNL     1      72.741   9.881   9.208  1.00  0.00     0.002 C 
BRANCH   2   3
HETATM    3  C12 UNL     1      73.760  10.768   8.577  1.00  0.00     0.000 C 
BRANCH   3   4
HETATM    4  C11 UNL     1      75.066  10.096   8.260  1.00  0.00     0.000 C 
BRANCH   4   5
HETATM    5  C10 UNL     1      76.233  10.707   8.980  1.00  0.00     0.000 C 
BRANCH   5   6
HETATM    6  C9  UNL     1      76.010  12.124   9.395  1.00  0.00     0.000 C 
BRANCH   6   7
HETATM    7  C8  UNL     1      76.528  12.463  10.750  1.00  0.00     0.000 C 
BRANCH   7   8
HETATM    8  C7  UNL     1      75.438  12.946  11.650  1.00  0.00     0.005 C 
BRANCH   8   9
HETATM    9  C6  UNL     1      74.261  13.563  10.974  1.00  0.00     0.038 C 
BRANCH   9  10
HETATM   10  C5  UNL     1      72.999  13.189  11.640  1.00  0.00    -0.058 C 
HETATM   11  C4  UNL     1      71.909  14.023  11.600  1.00  0.00     0.007 C 
HETATM   12  C3  UNL     1      70.800  14.081  12.409  1.00  0.00     0.004 C 
HETATM   13  C2  UNL     1      70.269  12.972  13.075  1.00  0.00     0.055 C 
HETATM   14  C1  UNL     1      70.704  11.657  13.123  1.00  0.00     0.171 C 
HETATM   15  O1  UNL     1      69.895  10.767  13.487  1.00  0.00    -0.289 OA
HETATM   16  C23 UNL     1      71.992  11.242  12.794  1.00  0.00     0.055 C 
HETATM   17  C22 UNL     1      73.046  11.954  12.283  1.00  0.00     0.011 C 
ENDBRANCH   9  10
ENDBRANCH   8   9
ENDBRANCH   7   8
ENDBRANCH   6   7
ENDBRANCH   5   6
ENDBRANCH   4   5
ENDBRANCH   3   4
ENDBRANCH   2   3
ENDBRANCH   1   2
BRANCH   1  18
HETATM   18  C15 UNL     1      73.131   7.690  10.269  1.00  0.00     0.273 C 
BRANCH  18  19
HETATM   19  N1  UNL     1      71.933   7.810  11.073  1.00  0.00     0.100 N 
HETATM   20  C16 UNL     1      72.321   7.376  12.408  1.00  0.00     0.307 C 
HETATM   21  C17 UNL     1      72.745   5.937  12.401  1.00  0.00     0.177 C 
HETATM   22  C18 UNL     1      71.769   5.058  11.643  1.00  0.00     0.179 C 
HETATM   23  C19 UNL     1      70.502   5.807  11.354  1.00  0.00     0.184 C 
HETATM   24  C20 UNL     1      70.813   7.068  10.574  1.00  0.00     0.277 C 
BRANCH  21  25
HETATM   25  O2  UNL     1      72.812   5.548  13.752  1.00  0.00    -0.391 OA
ATOM     26  H2  UNL     1      72.673   4.608  13.759  1.00  0.00     0.210 HD
ENDBRANCH  21  25
BRANCH  22  27
HETATM   27  O3  UNL     1      71.409   3.927  12.400  1.00  0.00    -0.390 OA
ATOM     28  H3  UNL     1      71.415   4.120  13.330  1.00  0.00     0.210 HD
ENDBRANCH  22  27
BRANCH  23  29
HETATM   29  O4  UNL     1      69.820   6.053  12.526  1.00  0.00    -0.391 OA
ATOM     30  H4  UNL     1      68.884   6.052  12.366  1.00  0.00     0.210 HD
ENDBRANCH  23  29
BRANCH  24  31
HETATM   31  C21 UNL     1      69.531   7.874  10.482  1.00  0.00     0.202 C 
BRANCH  31  32
HETATM   32  O5  UNL     1      69.709   9.198  10.837  1.00  0.00    -0.399 OA
ATOM     33  H5  UNL     1      69.580   9.348  11.767  1.00  0.00     0.209 HD
ENDBRANCH  31  32
ENDBRANCH  24  31
ENDBRANCH  18  19
ENDBRANCH   1  18
TORSDOF 16
ENDMDL
MODEL 3
REMARK VINA RESULT: -6.762024158      1.299      2.865
REMARK  16 active torsions:
REMARK  status: ('A' for Active; 'I' for Inactive)
REMARK    1  A    between atoms: C5_6  and  C6_7 
REMARK    2  A    between atoms: C6_7  and  C7_8 
REMARK    3  A    between atoms: C7_8  and  C8_9 
REMARK    4  A    between atoms: C8_9  and  C9_10 
REMARK    5  A    between atoms: C9_10  and  C10_11 
REMARK    6  A    between atoms: C10_11  and  C11_12 
REMARK    7  A    between atoms: C11_12  and  C12_13 
REMARK    8  A    between atoms: C12_13  and  C13_14 
REMARK    9  A    between atoms: C13_14  and  C14_15 
REMARK   10  A    between atoms: C14_15  and  C15_16 
REMARK   11  A    between atoms: C15_16  and  N1_17 
REMARK   12  A    between atoms: C17_19  and  O2_20 
REMARK   13  A    between atoms: C18_22  and  O3_23 
REMARK   14  A    between atoms: C19_25  and  O4_26 
REMARK   15  A    between atoms: C20_28  and  C21_29 
REMARK   16  A    between atoms: C21_29  and  O5_30 
ROOT
HETATM    1  C14 UNL     1      73.920   7.310   8.116  1.00  0.00     0.030 C 
ENDROOT
BRANCH   1   2
HETATM    2  C13 UNL     1      73.283   8.669   8.248  1.00  0.00     0.002 C 
BRANCH   2   3
HETATM    3  C12 UNL     1      74.147   9.628   8.994  1.00  0.00     0.000 C 
BRANCH   3   4
HETATM    4  C11 UNL     1      73.675  11.054   8.959  1.00  0.00     0.000 C 
BRANCH   4   5
HETATM    5  C10 UNL     1      74.008  11.816  10.209  1.00  0.00     0.000 C 
BRANCH   5   6
HETATM    6  C9  UNL     1      72.950  11.743  11.259  1.00  0.00     0.000 C 
BRANCH   6   7
HETATM    7  C8  UNL     1      71.585  11.438  10.745  1.00  0.00     0.000 C 
BRANCH   7   8
HETATM    8  C7  UNL     1      70.993  10.249  11.430  1.00  0.00     0.005 C 
BRANCH   8   9
HETATM    9  C6  UNL     1      70.700   9.075  10.560  1.00  0.00     0.038 C 
BRANCH   9  10
HETATM   10  C5  UNL     1      71.163   7.818  11.178  1.00  0.00    -0.058 C 
HETATM   11  C4  UNL     1      72.019   7.835  12.251  1.00  0.00     0.007 C 
HETATM   12  C3  UNL     1      72.850   6.859  12.746  1.00  0.00     0.004 C 
HETATM   13  C2  UNL     1      72.592   5.490  12.627  1.00  0.00     0.055 C 
HETATM   14  C1  UNL     1      71.551   4.820  12.003  1.00  0.00     0.171 C 
HETATM   15  O1  UNL     1      71.331   3.623  12.315  1.00  0.00    -0.289 OA
HETATM   16  C23 UNL     1      70.718   5.385  11.040  1.00  0.00     0.055 C 
HETATM   17  C22 UNL     1      70.654   6.671  10.572  1.00  0.00     0.011 C 
ENDBRANCH   9  10
ENDBRANCH   8   9
ENDBRANCH   7   8
ENDBRANCH   6   7
ENDBRANCH   5   6
ENDBRANCH   4   5
ENDBRANCH   3   4
ENDBRANCH   2   3
ENDBRANCH   1   2
BRANCH   1  18
HETATM   18  C15 UNL     1      75.051   7.348   7.150  1.00  0.00     0.273 C 
BRANCH  18  19
HETATM   19  N1  UNL     1      74.739   6.700   5.894  1.00  0.00     0.100 N 
HETATM   20  C16 UNL     1      74.947   5.278   6.133  1.00  0.00     0.307 C 
HETATM   21  C17 UNL     1      76.382   4.996   6.467  1.00  0.00     0.177 C 
HETATM   22  C18 UNL     1      77.337   5.686   5.513  1.00  0.00     0.179 C 
HETATM   23  C19 UNL     1      76.596   6.223   4.325  1.00  0.00     0.184 C 
HETATM   24  C20 UNL     1      75.508   7.173   4.781  1.00  0.00     0.277 C 
BRANCH  21  25
HETATM   25  O2  UNL     1      76.529   3.598   6.388  1.00  0.00    -0.391 OA
ATOM     26  H2  UNL     1      77.232   3.376   6.988  1.00  0.00     0.210 HD
ENDBRANCH  21  25
BRANCH  22  27
HETATM   27  O3  UNL     1      78.300   4.786   5.018  1.00  0.00    -0.390 OA
ATOM     28  H3  UNL     1      79.104   4.831   5.522  1.00  0.00     0.210 HD
ENDBRANCH  22  27
BRANCH  23  29
HETATM   29  O4  UNL     1      76.118   5.185   3.556  1.00  0.00    -0.391 OA
ATOM     30  H4  UNL     1      75.681   4.545   4.106  1.00  0.00     0.210 HD
ENDBRANCH  23  29
BRANCH  24  31
HETATM   31  C21 UNL     1      74.675   7.530   3.564  1.00  0.00     0.202 C 
BRANCH  31  32
HETATM   32  O5  UNL     1      73.331   7.253   3.739  1.00  0.00    -0.399 OA
ATOM     33  H5  UNL     1      72.866   7.168   2.915  1.00  0.00     0.209 HD
ENDBRANCH  31  32
ENDBRANCH  24  31
ENDBRANCH  18  19
ENDBRANCH   1  18
TORSDOF 16
ENDMDL
MODEL 4
REMARK VINA RESULT: -6.701881819      2.428      7.426
REMARK  16 active torsions:
REMARK  status: ('A' for Active; 'I' for Inactive)
REMARK    1  A    between atoms: C5_6  and  C6_7 
REMARK    2  A    between atoms: C6_7  and  C7_8 
REMARK    3  A    between atoms: C7_8  and  C8_9 
REMARK    4  A    between atoms: C8_9  and  C9_10 
REMARK    5  A    between atoms: C9_10  and  C10_11 
REMARK    6  A    between atoms: C10_11  and  C11_12 
REMARK    7  A    between atoms: C11_12  and  C12_13 
REMARK    8  A    between atoms: C12_13  and  C13_14 
REMARK    9  A    between atoms: C13_14  and  C14_15 
REMARK   10  A    between atoms: C14_15  and  C15_16 
REMARK   11  A    between atoms: C15_16  and  N1_17 
REMARK   12  A    between atoms: C17_19  and  O2_20 
REMARK   13  A    between atoms: C18_22  and  O3_23 
REMARK   14  A    between atoms: C19_25  and  O4_26 
REMARK   15  A    between atoms: C20_28  and  C21_29 
REMARK   16  A    between atoms: C21_29  and  O5_30 
ROOT
HETATM    1  C14 UNL     1      73.123   8.756   9.099  1.00  0.00     0.030 C 
ENDROOT
BRANCH   1   2
HETATM    2  C13 UNL     1      73.996   8.213   7.998  1.00  0.00     0.002 C 
BRANCH   2   3
HETATM    3  C12 UNL     1      75.447   8.389   8.289  1.00  0.00     0.000 C 
BRANCH   3   4
HETATM    4  C11 UNL     1      75.858   9.802   8.593  1.00  0.00     0.000 C 
BRANCH   4   5
HETATM    5  C10 UNL     1      76.552  10.474   7.443  1.00  0.00     0.000 C 
BRANCH   5   6
HETATM    6  C9  UNL     1      75.634  11.242   6.552  1.00  0.00     0.000 C 
BRANCH   6   7
HETATM    7  C8  UNL     1      76.137  11.437   5.163  1.00  0.00     0.000 C 
BRANCH   7   8
HETATM    8  C7  UNL     1      76.886  10.239   4.677  1.00  0.00     0.005 C 
BRANCH   8   9
HETATM    9  C6  UNL     1      76.139   9.333   3.758  1.00  0.00     0.038 C 
BRANCH   9  10
HETATM   10  C5  UNL     1      75.833   8.043   4.406  1.00  0.00    -0.058 C 
HETATM   11  C4  UNL     1      74.586   7.481   4.296  1.00  0.00     0.007 C 
HETATM   12  C3  UNL     1      73.964   6.530   5.069  1.00  0.00     0.004 C 
HETATM   13  C2  UNL     1      74.651   5.533   5.771  1.00  0.00     0.055 C 
HETATM   14  C1  UNL     1      76.010   5.291   5.892  1.00  0.00     0.171 C 
HETATM   15  O1  UNL     1      76.389   4.155   6.274  1.00  0.00    -0.289 OA
HETATM   16  C23 UNL     1      77.004   6.229   5.619  1.00  0.00     0.055 C 
HETATM   17  C22 UNL     1      76.906   7.495   5.106  1.00  0.00     0.011 C 
ENDBRANCH   9  10
ENDBRANCH   8   9
ENDBRANCH   7   8
ENDBRANCH   6   7
ENDBRANCH   5   6
ENDBRANCH   4   5
ENDBRANCH   3   4
ENDBRANCH   2   3
ENDBRANCH   1   2
BRANCH   1  18
HETATM   18  C15 UNL     1      73.163   7.868  10.292  1.00  0.00     0.273 C 
BRANCH  18  19
HETATM   19  N1  UNL     1      71.963   7.955  11.097  1.00  0.00     0.100 N 
HETATM   20  C16 UNL     1      72.346   7.464  12.413  1.00  0.00     0.307 C 
HETATM   21  C17 UNL     1      72.768   6.027  12.347  1.00  0.00     0.177 C 
HETATM   22  C18 UNL     1      71.794   5.181  11.549  1.00  0.00     0.179 C 
HETATM   23  C19 UNL     1      70.529   5.943  11.289  1.00  0.00     0.184 C 
HETATM   24  C20 UNL     1      70.844   7.235  10.563  1.00  0.00     0.277 C 
BRANCH  21  25
HETATM   25  O2  UNL     1      72.831   5.580  13.681  1.00  0.00    -0.391 OA
ATOM     26  H2  UNL     1      73.195   4.703  13.645  1.00  0.00     0.210 HD
ENDBRANCH  21  25
BRANCH  22  27
HETATM   27  O3  UNL     1      71.431   4.019  12.256  1.00  0.00    -0.390 OA
ATOM     28  H3  UNL     1      72.185   3.625  12.680  1.00  0.00     0.210 HD
ENDBRANCH  22  27
BRANCH  23  29
HETATM   29  O4  UNL     1      69.844   6.139  12.468  1.00  0.00    -0.391 OA
ATOM     30  H4  UNL     1      69.455   7.006  12.479  1.00  0.00     0.210 HD
ENDBRANCH  23  29
BRANCH  24  31
HETATM   31  C21 UNL     1      69.562   8.046  10.501  1.00  0.00     0.202 C 
BRANCH  31  32
HETATM   32  O5  UNL     1      69.780   9.355  10.114  1.00  0.00    -0.399 OA
ATOM     33  H5  UNL     1      69.461   9.983  10.752  1.00  0.00     0.209 HD
ENDBRANCH  31  32
ENDBRANCH  24  31
ENDBRANCH  18  19
ENDBRANCH   1  18
TORSDOF 16
ENDMDL
MODEL 5
REMARK VINA RESULT: -6.687809435      5.662      9.288
REMARK  16 active torsions:
REMARK  status: ('A' for Active; 'I' for Inactive)
REMARK    1  A    between atoms: C5_6  and  C6_7 
REMARK    2  A    between atoms: C6_7  and  C7_8 
REMARK    3  A    between atoms: C7_8  and  C8_9 
REMARK    4  A    between atoms: C8_9  and  C9_10 
REMARK    5  A    between atoms: C9_10  and  C10_11 
REMARK    6  A    between atoms: C10_11  and  C11_12 
REMARK    7  A    between atoms: C11_12  and  C12_13 
REMARK    8  A    between atoms: C12_13  and  C13_14 
REMARK    9  A    between atoms: C13_14  and  C14_15 
REMARK   10  A    between atoms: C14_15  and  C15_16 
REMARK   11  A    between atoms: C15_16  and  N1_17 
REMARK   12  A    between atoms: C17_19  and  O2_20 
REMARK   13  A    between atoms: C18_22  and  O3_23 
REMARK   14  A    between atoms: C19_25  and  O4_26 
REMARK   15  A    between atoms: C20_28  and  C21_29 
REMARK   16  A    between atoms: C21_29  and  O5_30 
ROOT
HETATM    1  C14 UNL     1      70.679  11.374  13.093  1.00  0.00     0.030 C 
ENDROOT
BRANCH   1   2
HETATM    2  C13 UNL     1      72.100  11.690  12.709  1.00  0.00     0.002 C 
BRANCH   2   3
HETATM    3  C12 UNL     1      72.227  12.065  11.272  1.00  0.00     0.000 C 
BRANCH   3   4
HETATM    4  C11 UNL     1      73.561  11.747  10.657  1.00  0.00     0.000 C 
BRANCH   4   5
HETATM    5  C10 UNL     1      73.455  11.245   9.246  1.00  0.00     0.000 C 
BRANCH   5   6
HETATM    6  C9  UNL     1      74.265  10.019   8.980  1.00  0.00     0.000 C 
BRANCH   6   7
HETATM    7  C8  UNL     1      73.569   8.737   9.284  1.00  0.00     0.000 C 
BRANCH   7   8
HETATM    8  C7  UNL     1      72.095   8.845   9.059  1.00  0.00     0.005 C 
BRANCH   8   9
HETATM    9  C6  UNL     1      71.239   8.704  10.271  1.00  0.00     0.038 C 
BRANCH   9  10
HETATM   10  C5  UNL     1      71.518   7.444  10.984  1.00  0.00    -0.058 C 
HETATM   11  C4  UNL     1      71.094   6.241  10.477  1.00  0.00     0.007 C 
HETATM   12  C3  UNL     1      70.906   5.028  11.096  1.00  0.00     0.004 C 
HETATM   13  C2  UNL     1      71.631   4.610  12.216  1.00  0.00     0.055 C 
HETATM   14  C1  UNL     1      72.608   5.262  12.951  1.00  0.00     0.171 C 
HETATM   15  O1  UNL     1      73.364   4.581  13.688  1.00  0.00    -0.289 OA
HETATM   16  C23 UNL     1      72.817   6.640  12.934  1.00  0.00     0.055 C 
HETATM   17  C22 UNL     1      72.227   7.613  12.172  1.00  0.00     0.011 C 
ENDBRANCH   9  10
ENDBRANCH   8   9
ENDBRANCH   7   8
ENDBRANCH   6   7
ENDBRANCH   5   6
ENDBRANCH   4   5
ENDBRANCH   3   4
ENDBRANCH   2   3
ENDBRANCH   1   2
BRANCH   1  18
HETATM   18  C15 UNL     1      69.881  12.621  13.242  1.00  0.00     0.273 C 
BRANCH  18  19
HETATM   19  N1  UNL     1      70.570  13.641  14.004  1.00  0.00     0.100 N 
HETATM   20  C16 UNL     1      70.020  13.553  15.349  1.00  0.00     0.307 C 
HETATM   21  C17 UNL     1      68.554  13.870  15.350  1.00  0.00     0.177 C 
HETATM   22  C18 UNL     1      68.240  15.122  14.554  1.00  0.00     0.179 C 
HETATM   23  C19 UNL     1      69.500  15.865  14.225  1.00  0.00     0.184 C 
HETATM   24  C20 UNL     1      70.448  14.963  13.462  1.00  0.00     0.277 C 
BRANCH  21  25
HETATM   25  O2  UNL     1      68.197  14.042  16.701  1.00  0.00    -0.391 OA
ATOM     26  H2  UNL     1      67.266  14.228  16.703  1.00  0.00     0.210 HD
ENDBRANCH  21  25
BRANCH  22  27
HETATM   27  O3  UNL     1      67.429  16.004  15.293  1.00  0.00    -0.390 OA
ATOM     28  H3  UNL     1      67.617  16.909  15.074  1.00  0.00     0.210 HD
ENDBRANCH  22  27
BRANCH  23  29
HETATM   29  O4  UNL     1      70.057  16.385  15.373  1.00  0.00    -0.391 OA
ATOM     30  H4  UNL     1      70.585  17.146  15.164  1.00  0.00     0.210 HD
ENDBRANCH  23  29
BRANCH  24  31
HETATM   31  C21 UNL     1      71.768  15.698  13.328  1.00  0.00     0.202 C 
BRANCH  31  32
HETATM   32  O5  UNL     1      72.665  15.367  14.327  1.00  0.00    -0.399 OA
ATOM     33  H5  UNL     1      73.394  14.848  14.007  1.00  0.00     0.209 HD
ENDBRANCH  31  32
ENDBRANCH  24  31
ENDBRANCH  18  19
ENDBRANCH   1  18
TORSDOF 16
ENDMDL
