MODEL 1
REMARK VINA RESULT: -6.451367686      0.000      0.000
REMARK  6 active torsions:
REMARK  status: ('A' for Active; 'I' for Inactive)
REMARK    1  A    between atoms: N3_9  and  C4_10 
REMARK    2  A    between atoms: C4_10  and  C5_11 
REMARK    3  A    between atoms: C5_11  and  C6_12 
REMARK    4  A    between atoms: C6_12  and  C7_13 
REMARK    5  A    between atoms: C7_13  and  C8_14 
REMARK    6  A    between atoms: C8_14  and  N4_15 
ROOT
HETATM    1  N1  UNL     1      36.654  40.297  -4.828  1.00  0.00    -0.234 N 
ATOM      2  H11 UNL     1      36.762  40.856  -3.982  1.00  0.00     0.174 HD
ATOM      3  H12 UNL     1      37.053  39.404  -5.119  1.00  0.00     0.174 HD
HETATM    4  C1  UNL     1      35.874  40.799  -5.696  1.00  0.00     0.687 C 
HETATM    5  N2  UNL     1      35.723  40.011  -6.888  1.00  0.00    -0.224 N 
ATOM      6  H2  UNL     1      35.881  39.020  -6.705  1.00  0.00     0.177 HD
HETATM    7  C2  UNL     1      35.409  40.248  -8.270  1.00  0.00     0.159 C 
HETATM    8  C3  UNL     1      34.034  40.792  -8.501  1.00  0.00     0.164 C 
HETATM    9  N3  UNL     1      33.888  42.201  -8.225  1.00  0.00    -0.311 N 
HETATM   10  N5  UNL     1      33.895  42.956  -7.072  1.00  0.00    -0.230 N 
ATOM     11  H5  UNL     1      33.292  43.770  -7.184  1.00  0.00     0.209 HD
HETATM   12  N6  UNL     1      34.421  42.957  -5.903  1.00  0.00    -0.214 N 
ATOM     13  H6  UNL     1      34.149  43.745  -5.315  1.00  0.00     0.210 HD
HETATM   14  N7  UNL     1      35.318  42.044  -5.291  1.00  0.00    -0.117 N 
ATOM     15  H7  UNL     1      35.631  42.344  -4.367  1.00  0.00     0.207 HD
ENDROOT
BRANCH   9  16
HETATM   16  C4  UNL     1      33.727  42.967  -9.417  1.00  0.00     0.144 C 
BRANCH  16  17
HETATM   17  C5  UNL     1      33.550  42.240 -10.695  1.00  0.00     0.021 C 
BRANCH  17  18
HETATM   18  C6  UNL     1      33.506  43.050 -11.941  1.00  0.00     0.003 C 
BRANCH  18  19
HETATM   19  C7  UNL     1      33.728  44.503 -11.568  1.00  0.00     0.027 C 
BRANCH  19  20
HETATM   20  C8  UNL     1      33.280  45.449 -12.635  1.00  0.00     0.229 C 
BRANCH  20  21
HETATM   21  N4  UNL     1      32.211  46.317 -12.241  1.00  0.00    -0.079 N 
ATOM     22  H43 UNL     1      31.969  46.164 -11.262  1.00  0.00     0.274 HD
ATOM     23  H42 UNL     1      32.536  47.282 -12.192  1.00  0.00     0.274 HD
ATOM     24  H41 UNL     1      31.378  46.251 -12.828  1.00  0.00     0.274 HD
ENDBRANCH  20  21
ENDBRANCH  19  20
ENDBRANCH  18  19
ENDBRANCH  17  18
ENDBRANCH  16  17
ENDBRANCH   9  16
TORSDOF 6
ENDMDL
MODEL 2
REMARK VINA RESULT: -6.322953438      0.967      1.111
REMARK  6 active torsions:
REMARK  status: ('A' for Active; 'I' for Inactive)
REMARK    1  A    between atoms: N3_9  and  C4_10 
REMARK    2  A    between atoms: C4_10  and  C5_11 
REMARK    3  A    between atoms: C5_11  and  C6_12 
REMARK    4  A    between atoms: C6_12  and  C7_13 
REMARK    5  A    between atoms: C7_13  and  C8_14 
REMARK    6  A    between atoms: C8_14  and  N4_15 
ROOT
HETATM    1  N1  UNL     1      36.903  41.139  -3.799  1.00  0.00    -0.234 N 
ATOM      2  H11 UNL     1      36.937  42.009  -3.269  1.00  0.00     0.174 HD
ATOM      3  H12 UNL     1      37.356  40.234  -3.667  1.00  0.00     0.174 HD
HETATM    4  C1  UNL     1      36.154  41.173  -4.824  1.00  0.00     0.687 C 
HETATM    5  N2  UNL     1      36.107  39.947  -5.571  1.00  0.00    -0.224 N 
ATOM      6  H2  UNL     1      36.296  39.140  -4.977  1.00  0.00     0.177 HD
HETATM    7  C2  UNL     1      35.864  39.555  -6.931  1.00  0.00     0.159 C 
HETATM    8  C3  UNL     1      34.482  39.860  -7.419  1.00  0.00     0.164 C 
HETATM    9  N3  UNL     1      34.260  41.240  -7.776  1.00  0.00    -0.311 N 
HETATM   10  N5  UNL     1      34.167  42.412  -7.055  1.00  0.00    -0.230 N 
ATOM     11  H5  UNL     1      33.536  43.062  -7.525  1.00  0.00     0.209 HD
HETATM   12  N6  UNL     1      34.623  42.943  -5.981  1.00  0.00    -0.214 N 
ATOM     13  H6  UNL     1      34.283  43.887  -5.795  1.00  0.00     0.210 HD
HETATM   14  N7  UNL     1      35.522  42.435  -5.008  1.00  0.00    -0.117 N 
ATOM     15  H7  UNL     1      35.766  43.117  -4.290  1.00  0.00     0.207 HD
ENDROOT
BRANCH   9  16
HETATM   16  C4  UNL     1      34.136  41.417  -9.186  1.00  0.00     0.144 C 
BRANCH  16  17
HETATM   17  C5  UNL     1      33.977  42.796  -9.703  1.00  0.00     0.021 C 
BRANCH  17  18
HETATM   18  C6  UNL     1      33.541  42.947 -11.118  1.00  0.00     0.003 C 
BRANCH  18  19
HETATM   19  C7  UNL     1      33.632  44.416 -11.485  1.00  0.00     0.027 C 
BRANCH  19  20
HETATM   20  C8  UNL     1      32.295  45.081 -11.537  1.00  0.00     0.229 C 
BRANCH  20  21
HETATM   21  N4  UNL     1      32.292  46.346 -12.210  1.00  0.00    -0.079 N 
ATOM     22  H43 UNL     1      32.057  46.225 -13.195  1.00  0.00     0.274 HD
ATOM     23  H42 UNL     1      31.496  46.908 -11.909  1.00  0.00     0.274 HD
ATOM     24  H41 UNL     1      33.159  46.875 -12.114  1.00  0.00     0.274 HD
ENDBRANCH  20  21
ENDBRANCH  19  20
ENDBRANCH  18  19
ENDBRANCH  17  18
ENDBRANCH  16  17
ENDBRANCH   9  16
TORSDOF 6
ENDMDL
MODEL 3
REMARK VINA RESULT: -5.992675662      1.305      1.513
REMARK  6 active torsions:
REMARK  status: ('A' for Active; 'I' for Inactive)
REMARK    1  A    between atoms: N3_9  and  C4_10 
REMARK    2  A    between atoms: C4_10  and  C5_11 
REMARK    3  A    between atoms: C5_11  and  C6_12 
REMARK    4  A    between atoms: C6_12  and  C7_13 
REMARK    5  A    between atoms: C7_13  and  C8_14 
REMARK    6  A    between atoms: C8_14  and  N4_15 
ROOT
HETATM    1  N1  UNL     1      37.106  40.887  -3.900  1.00  0.00    -0.234 N 
ATOM      2  H11 UNL     1      37.232  41.696  -3.293  1.00  0.00     0.174 HD
ATOM      3  H12 UNL     1      37.526  39.957  -3.903  1.00  0.00     0.174 HD
HETATM    4  C1  UNL     1      36.263  41.054  -4.836  1.00  0.00     0.687 C 
HETATM    5  N2  UNL     1      36.086  39.913  -5.691  1.00  0.00    -0.224 N 
ATOM      6  H2  UNL     1      36.294  39.043  -5.201  1.00  0.00     0.177 HD
HETATM    7  C2  UNL     1      35.695  39.672  -7.051  1.00  0.00     0.159 C 
HETATM    8  C3  UNL     1      34.289  40.076  -7.365  1.00  0.00     0.164 C 
HETATM    9  N3  UNL     1      34.098  41.493  -7.561  1.00  0.00    -0.311 N 
HETATM   10  N5  UNL     1      34.130  42.588  -6.723  1.00  0.00    -0.230 N 
ATOM     11  H5  UNL     1      33.489  43.305  -7.061  1.00  0.00     0.209 HD
HETATM   12  N6  UNL     1      34.713  42.988  -5.653  1.00  0.00    -0.214 N 
ATOM     13  H6  UNL     1      34.438  43.920  -5.343  1.00  0.00     0.210 HD
HETATM   14  N7  UNL     1      35.677  42.350  -4.831  1.00  0.00    -0.117 N 
ATOM     15  H7  UNL     1      36.021  42.946  -4.078  1.00  0.00     0.207 HD
ENDROOT
BRANCH   9  16
HETATM   16  C4  UNL     1      33.847  41.818  -8.927  1.00  0.00     0.144 C 
BRANCH  16  17
HETATM   17  C5  UNL     1      33.197  43.114  -9.226  1.00  0.00     0.021 C 
BRANCH  17  18
HETATM   18  C6  UNL     1      33.572  43.788 -10.499  1.00  0.00     0.003 C 
BRANCH  18  19
HETATM   19  C7  UNL     1      33.388  42.796 -11.630  1.00  0.00     0.027 C 
BRANCH  19  20
HETATM   20  C8  UNL     1      32.019  42.850 -12.228  1.00  0.00     0.229 C 
BRANCH  20  21
HETATM   21  N4  UNL     1      31.310  44.068 -11.968  1.00  0.00    -0.079 N 
ATOM     22  H43 UNL     1      31.777  44.855 -12.418  1.00  0.00     0.274 HD
ATOM     23  H42 UNL     1      30.425  44.079 -12.473  1.00  0.00     0.274 HD
ATOM     24  H41 UNL     1      31.159  44.262 -10.978  1.00  0.00     0.274 HD
ENDBRANCH  20  21
ENDBRANCH  19  20
ENDBRANCH  18  19
ENDBRANCH  17  18
ENDBRANCH  16  17
ENDBRANCH   9  16
TORSDOF 6
ENDMDL
MODEL 4
REMARK VINA RESULT: -5.986901380      0.922      1.121
REMARK  6 active torsions:
REMARK  status: ('A' for Active; 'I' for Inactive)
REMARK    1  A    between atoms: N3_9  and  C4_10 
REMARK    2  A    between atoms: C4_10  and  C5_11 
REMARK    3  A    between atoms: C5_11  and  C6_12 
REMARK    4  A    between atoms: C6_12  and  C7_13 
REMARK    5  A    between atoms: C7_13  and  C8_14 
REMARK    6  A    between atoms: C8_14  and  N4_15 
ROOT
HETATM    1  N1  UNL     1      35.818  41.948  -4.400  1.00  0.00    -0.234 N 
ATOM      2  H11 UNL     1      35.663  42.873  -4.000  1.00  0.00     0.174 HD
ATOM      3  H12 UNL     1      36.348  41.138  -4.076  1.00  0.00     0.174 HD
HETATM    4  C1  UNL     1      35.245  41.752  -5.516  1.00  0.00     0.687 C 
HETATM    5  N2  UNL     1      35.464  40.448  -6.079  1.00  0.00    -0.224 N 
ATOM      6  H2  UNL     1      35.650  39.754  -5.354  1.00  0.00     0.177 HD
HETATM    7  C2  UNL     1      35.491  39.862  -7.390  1.00  0.00     0.159 C 
HETATM    8  C3  UNL     1      34.180  39.910  -8.109  1.00  0.00     0.164 C 
HETATM    9  N3  UNL     1      33.856  41.191  -8.688  1.00  0.00    -0.311 N 
HETATM   10  N5  UNL     1      33.510  42.418  -8.164  1.00  0.00    -0.230 N 
ATOM     11  H5  UNL     1      32.891  42.911  -8.807  1.00  0.00     0.209 HD
HETATM   12  N6  UNL     1      33.722  43.135  -7.122  1.00  0.00    -0.214 N 
ATOM     13  H6  UNL     1      33.247  44.038  -7.124  1.00  0.00     0.210 HD
HETATM   14  N7  UNL     1      34.506  42.881  -5.968  1.00  0.00    -0.117 N 
ATOM     15  H7  UNL     1      34.550  43.674  -5.327  1.00  0.00     0.207 HD
ENDROOT
BRANCH   9  16
HETATM   16  C4  UNL     1      33.940  41.174 -10.112  1.00  0.00     0.144 C 
BRANCH  16  17
HETATM   17  C5  UNL     1      32.983  42.006 -10.876  1.00  0.00     0.021 C 
BRANCH  17  18
HETATM   18  C6  UNL     1      33.545  42.928 -11.900  1.00  0.00     0.003 C 
BRANCH  18  19
HETATM   19  C7  UNL     1      33.506  44.336 -11.339  1.00  0.00     0.027 C 
BRANCH  19  20
HETATM   20  C8  UNL     1      33.467  45.381 -12.407  1.00  0.00     0.229 C 
BRANCH  20  21
HETATM   21  N4  UNL     1      32.400  46.327 -12.268  1.00  0.00    -0.079 N 
ATOM     22  H43 UNL     1      31.588  46.030 -12.810  1.00  0.00     0.274 HD
ATOM     23  H42 UNL     1      32.006  46.284 -11.328  1.00  0.00     0.274 HD
ATOM     24  H41 UNL     1      32.655  47.286 -12.504  1.00  0.00     0.274 HD
ENDBRANCH  20  21
ENDBRANCH  19  20
ENDBRANCH  18  19
ENDBRANCH  17  18
ENDBRANCH  16  17
ENDBRANCH   9  16
TORSDOF 6
ENDMDL
MODEL 5
REMARK VINA RESULT: -5.807349237      5.509      8.068
REMARK  6 active torsions:
REMARK  status: ('A' for Active; 'I' for Inactive)
REMARK    1  A    between atoms: N3_9  and  C4_10 
REMARK    2  A    between atoms: C4_10  and  C5_11 
REMARK    3  A    between atoms: C5_11  and  C6_12 
REMARK    4  A    between atoms: C6_12  and  C7_13 
REMARK    5  A    between atoms: C7_13  and  C8_14 
REMARK    6  A    between atoms: C8_14  and  N4_15 
ROOT
HETATM    1  N1  UNL     1      36.765  38.658  -5.807  1.00  0.00    -0.234 N 
ATOM      2  H11 UNL     1      35.897  38.457  -6.303  1.00  0.00     0.174 HD
ATOM      3  H12 UNL     1      37.612  38.110  -5.654  1.00  0.00     0.174 HD
HETATM    4  C1  UNL     1      36.816  39.810  -5.274  1.00  0.00     0.687 C 
HETATM    5  N2  UNL     1      38.039  40.091  -4.576  1.00  0.00    -0.224 N 
ATOM      6  H2  UNL     1      38.820  39.558  -4.959  1.00  0.00     0.177 HD
HETATM    7  C2  UNL     1      38.456  40.924  -3.482  1.00  0.00     0.159 C 
HETATM    8  C3  UNL     1      38.310  42.391  -3.739  1.00  0.00     0.164 C 
HETATM    9  N3  UNL     1      36.964  42.895  -3.611  1.00  0.00    -0.311 N 
HETATM   10  N5  UNL     1      35.811  42.742  -4.351  1.00  0.00    -0.230 N 
ATOM     11  H5  UNL     1      35.237  43.582  -4.280  1.00  0.00     0.209 HD
HETATM   12  N6  UNL     1      35.232  41.877  -5.099  1.00  0.00    -0.214 N 
ATOM     13  H6  UNL     1      34.333  42.176  -5.478  1.00  0.00     0.210 HD
HETATM   14  N7  UNL     1      35.634  40.573  -5.488  1.00  0.00    -0.117 N 
ATOM     15  H7  UNL     1      34.929  40.080  -6.036  1.00  0.00     0.207 HD
ENDROOT
BRANCH   9  16
HETATM   16  C4  UNL     1      36.802  43.704  -2.448  1.00  0.00     0.144 C 
BRANCH  16  17
HETATM   17  C5  UNL     1      37.967  43.874  -1.550  1.00  0.00     0.021 C 
BRANCH  17  18
HETATM   18  C6  UNL     1      37.838  43.358  -0.161  1.00  0.00     0.003 C 
BRANCH  18  19
HETATM   19  C7  UNL     1      36.600  42.486  -0.093  1.00  0.00     0.027 C 
BRANCH  19  20
HETATM   20  C8  UNL     1      36.923  41.027  -0.047  1.00  0.00     0.229 C 
BRANCH  20  21
HETATM   21  N4  UNL     1      36.211  40.235  -1.005  1.00  0.00    -0.079 N 
ATOM     22  H43 UNL     1      35.317  39.928  -0.620  1.00  0.00     0.274 HD
ATOM     23  H42 UNL     1      35.878  40.818  -1.772  1.00  0.00     0.274 HD
ATOM     24  H41 UNL     1      36.736  39.437  -1.365  1.00  0.00     0.274 HD
ENDBRANCH  20  21
ENDBRANCH  19  20
ENDBRANCH  18  19
ENDBRANCH  17  18
ENDBRANCH  16  17
ENDBRANCH   9  16
TORSDOF 6
ENDMDL
