MODEL 1
REMARK VINA RESULT: -5.829494044      0.000      0.000
REMARK  7 active torsions:
REMARK  status: ('A' for Active; 'I' for Inactive)
REMARK    1  A    between atoms: N1_1  and  C1_4 
REMARK    2  A    between atoms: C3_9  and  C4_10 
REMARK    3  A    between atoms: C4_10  and  O1_11 
REMARK    4  A    between atoms: O1_11  and  C5_12 
REMARK    5  A    between atoms: C5_12  and  C6_13 
REMARK    6  A    between atoms: C6_13  and  C7_14 
REMARK    7  A    between atoms: C7_14  and  N4_15 
ROOT
HETATM    1  C1  UNL     1      35.050  42.267  -6.306  1.00  0.00     0.678 A 
HETATM    2  N2  UNL     1      34.056  43.007  -6.788  1.00  0.00    -0.178 N 
ATOM      3  H2  UNL     1      33.707  43.767  -6.204  1.00  0.00     0.185 HD
HETATM    4  C2  UNL     1      33.484  42.830  -7.977  1.00  0.00     0.144 A 
HETATM    5  N3  UNL     1      32.422  43.637  -8.467  1.00  0.00    -0.081 NA
HETATM    6  C3  UNL     1      33.937  41.798  -8.806  1.00  0.00     0.051 A 
HETATM    7  C8  UNL     1      34.953  41.030  -8.336  1.00  0.00     0.126 A 
HETATM    8  N5  UNL     1      35.523  40.098  -9.003  1.00  0.00    -0.384 N 
ATOM      9  H51 UNL     1      36.287  39.521  -8.649  1.00  0.00     0.157 HD
ATOM     10  H52 UNL     1      35.124  39.915  -9.924  1.00  0.00     0.157 HD
HETATM   11  N6  UNL     1      35.490  41.276  -7.099  1.00  0.00    -0.177 N 
ATOM     12  H6  UNL     1      36.252  40.685  -6.767  1.00  0.00     0.186 HD
ENDROOT
BRANCH   6  13
HETATM   13  C4  UNL     1      33.336  41.691 -10.138  1.00  0.00     0.213 C 
BRANCH  13  14
HETATM   14  O1  UNL     1      34.002  42.118 -11.222  1.00  0.00    -0.386 OA
BRANCH  14  15
HETATM   15  C5  UNL     1      33.266  42.910 -12.082  1.00  0.00     0.169 C 
BRANCH  15  16
HETATM   16  C6  UNL     1      33.575  44.372 -11.746  1.00  0.00     0.053 C 
BRANCH  16  17
HETATM   17  C7  UNL     1      32.253  45.135 -11.717  1.00  0.00     0.231 C 
BRANCH  17  18
HETATM   18  N4  UNL     1      32.403  46.459 -12.270  1.00  0.00    -0.079 N 
ATOM     19  H43 UNL     1      33.263  46.905 -11.949  1.00  0.00     0.274 HD
ATOM     20  H42 UNL     1      32.606  46.426 -13.269  1.00  0.00     0.274 HD
ATOM     21  H41 UNL     1      31.585  47.035 -12.072  1.00  0.00     0.274 HD
ENDBRANCH  17  18
ENDBRANCH  16  17
ENDBRANCH  15  16
ENDBRANCH  14  15
ENDBRANCH  13  14
ENDBRANCH   6  13
BRANCH   1  22
HETATM   22  N1  UNL     1      35.587  42.468  -5.136  1.00  0.00    -0.234 N 
ATOM     23  H12 UNL     1      35.347  43.297  -4.590  1.00  0.00     0.174 HD
ATOM     24  H11 UNL     1      36.258  41.828  -4.711  1.00  0.00     0.174 HD
ENDBRANCH   1  22
TORSDOF 7
ENDMDL
MODEL 2
REMARK VINA RESULT: -5.773665486      1.428      2.718
REMARK  7 active torsions:
REMARK  status: ('A' for Active; 'I' for Inactive)
REMARK    1  A    between atoms: N1_1  and  C1_4 
REMARK    2  A    between atoms: C3_9  and  C4_10 
REMARK    3  A    between atoms: C4_10  and  O1_11 
REMARK    4  A    between atoms: O1_11  and  C5_12 
REMARK    5  A    between atoms: C5_12  and  C6_13 
REMARK    6  A    between atoms: C6_13  and  C7_14 
REMARK    7  A    between atoms: C7_14  and  N4_15 
ROOT
HETATM    1  C1  UNL     1      35.479  41.594  -4.902  1.00  0.00     0.678 A 
HETATM    2  N2  UNL     1      35.808  40.517  -5.608  1.00  0.00    -0.178 N 
ATOM      3  H2  UNL     1      36.375  39.805  -5.147  1.00  0.00     0.185 HD
HETATM    4  C2  UNL     1      35.452  40.299  -6.872  1.00  0.00     0.144 A 
HETATM    5  N3  UNL     1      35.818  39.137  -7.604  1.00  0.00    -0.081 NA
HETATM    6  C3  UNL     1      34.674  41.253  -7.537  1.00  0.00     0.051 A 
HETATM    7  C8  UNL     1      34.324  42.362  -6.834  1.00  0.00     0.126 A 
HETATM    8  N5  UNL     1      33.557  43.287  -7.278  1.00  0.00    -0.384 N 
ATOM      9  H51 UNL     1      33.295  44.119  -6.749  1.00  0.00     0.157 HD
ATOM     10  H52 UNL     1      33.254  43.174  -8.245  1.00  0.00     0.157 HD
HETATM   11  N6  UNL     1      34.731  42.513  -5.534  1.00  0.00    -0.177 N 
ATOM     12  H6  UNL     1      34.456  43.354  -5.028  1.00  0.00     0.186 HD
ENDROOT
BRANCH   6  13
HETATM   13  C4  UNL     1      34.235  40.936  -8.898  1.00  0.00     0.213 C 
BRANCH  13  14
HETATM   14  O1  UNL     1      34.300  41.861  -9.868  1.00  0.00    -0.386 OA
BRANCH  14  15
HETATM   15  C5  UNL     1      33.482  41.622 -10.955  1.00  0.00     0.169 C 
BRANCH  15  16
HETATM   16  C6  UNL     1      33.501  42.877 -11.834  1.00  0.00     0.053 C 
BRANCH  16  17
HETATM   17  C7  UNL     1      33.547  44.093 -10.912  1.00  0.00     0.231 C 
BRANCH  17  18
HETATM   18  N4  UNL     1      32.283  44.289 -10.245  1.00  0.00    -0.079 N 
ATOM     19  H43 UNL     1      31.510  44.331 -10.910  1.00  0.00     0.274 HD
ATOM     20  H42 UNL     1      31.999  43.457  -9.728  1.00  0.00     0.274 HD
ATOM     21  H41 UNL     1      32.306  45.113  -9.646  1.00  0.00     0.274 HD
ENDBRANCH  17  18
ENDBRANCH  16  17
ENDBRANCH  15  16
ENDBRANCH  14  15
ENDBRANCH  13  14
ENDBRANCH   6  13
BRANCH   1  22
HETATM   22  N1  UNL     1      35.846  41.775  -3.664  1.00  0.00    -0.234 N 
ATOM     23  H12 UNL     1      36.802  42.056  -3.443  1.00  0.00     0.174 HD
ATOM     24  H11 UNL     1      35.217  41.652  -2.871  1.00  0.00     0.174 HD
ENDBRANCH   1  22
TORSDOF 7
ENDMDL
MODEL 3
REMARK VINA RESULT: -5.742984277      5.305      7.893
REMARK  7 active torsions:
REMARK  status: ('A' for Active; 'I' for Inactive)
REMARK    1  A    between atoms: N1_1  and  C1_4 
REMARK    2  A    between atoms: C3_9  and  C4_10 
REMARK    3  A    between atoms: C4_10  and  O1_11 
REMARK    4  A    between atoms: O1_11  and  C5_12 
REMARK    5  A    between atoms: C5_12  and  C6_13 
REMARK    6  A    between atoms: C6_13  and  C7_14 
REMARK    7  A    between atoms: C7_14  and  N4_15 
ROOT
HETATM    1  C1  UNL     1      37.933  42.654   1.021  1.00  0.00     0.678 A 
HETATM    2  N2  UNL     1      38.272  43.660   0.222  1.00  0.00    -0.178 N 
ATOM      3  H2  UNL     1      38.875  44.387   0.607  1.00  0.00     0.185 HD
HETATM    4  C2  UNL     1      37.884  43.788  -1.045  1.00  0.00     0.144 A 
HETATM    5  N3  UNL     1      38.263  44.875  -1.878  1.00  0.00    -0.081 NA
HETATM    6  C3  UNL     1      37.056  42.811  -1.609  1.00  0.00     0.051 A 
HETATM    7  C8  UNL     1      36.698  41.771  -0.810  1.00  0.00     0.126 A 
HETATM    8  N5  UNL     1      36.007  40.766  -1.200  1.00  0.00    -0.384 N 
ATOM      9  H51 UNL     1      35.738  39.986  -0.600  1.00  0.00     0.157 HD
ATOM     10  H52 UNL     1      35.679  40.810  -2.164  1.00  0.00     0.157 HD
HETATM   11  N6  UNL     1      37.139  41.711   0.486  1.00  0.00    -0.177 N 
ATOM     12  H6  UNL     1      36.856  40.922   1.066  1.00  0.00     0.186 HD
ENDROOT
BRANCH   6  13
HETATM   13  C4  UNL     1      36.720  42.948  -3.028  1.00  0.00     0.213 C 
BRANCH  13  14
HETATM   14  O1  UNL     1      36.097  41.954  -3.679  1.00  0.00    -0.386 OA
BRANCH  14  15
HETATM   15  C5  UNL     1      36.839  41.360  -4.681  1.00  0.00     0.169 C 
BRANCH  15  16
HETATM   16  C6  UNL     1      35.858  40.816  -5.724  1.00  0.00     0.053 C 
BRANCH  16  17
HETATM   17  C7  UNL     1      35.479  41.965  -6.655  1.00  0.00     0.231 C 
BRANCH  17  18
HETATM   18  N4  UNL     1      34.375  42.725  -6.121  1.00  0.00    -0.079 N 
ATOM     19  H43 UNL     1      33.484  42.254  -6.278  1.00  0.00     0.274 HD
ATOM     20  H42 UNL     1      34.377  42.723  -5.101  1.00  0.00     0.274 HD
ATOM     21  H41 UNL     1      34.368  43.675  -6.494  1.00  0.00     0.274 HD
ENDBRANCH  17  18
ENDBRANCH  16  17
ENDBRANCH  15  16
ENDBRANCH  14  15
ENDBRANCH  13  14
ENDBRANCH   6  13
BRANCH   1  22
HETATM   22  N1  UNL     1      38.331  42.560   2.259  1.00  0.00    -0.234 N 
ATOM     23  H12 UNL     1      38.567  43.397   2.793  1.00  0.00     0.174 HD
ATOM     24  H11 UNL     1      38.426  41.671   2.750  1.00  0.00     0.174 HD
ENDBRANCH   1  22
TORSDOF 7
ENDMDL
MODEL 4
REMARK VINA RESULT: -5.660423602      2.067      3.564
REMARK  7 active torsions:
REMARK  status: ('A' for Active; 'I' for Inactive)
REMARK    1  A    between atoms: N1_1  and  C1_4 
REMARK    2  A    between atoms: C3_9  and  C4_10 
REMARK    3  A    between atoms: C4_10  and  O1_11 
REMARK    4  A    between atoms: O1_11  and  C5_12 
REMARK    5  A    between atoms: C5_12  and  C6_13 
REMARK    6  A    between atoms: C6_13  and  C7_14 
REMARK    7  A    between atoms: C7_14  and  N4_15 
ROOT
HETATM    1  C1  UNL     1      36.796  41.764  -4.413  1.00  0.00     0.678 A 
HETATM    2  N2  UNL     1      36.830  40.525  -4.893  1.00  0.00    -0.178 N 
ATOM      3  H2  UNL     1      37.506  39.879  -4.485  1.00  0.00     0.185 HD
HETATM    4  C2  UNL     1      36.048  40.065  -5.867  1.00  0.00     0.144 A 
HETATM    5  N3  UNL     1      36.106  38.734  -6.360  1.00  0.00    -0.081 NA
HETATM    6  C3  UNL     1      35.108  40.922  -6.451  1.00  0.00     0.051 A 
HETATM    7  C8  UNL     1      35.053  42.193  -5.975  1.00  0.00     0.126 A 
HETATM    8  N5  UNL     1      34.201  43.071  -6.355  1.00  0.00    -0.384 N 
ATOM      9  H51 UNL     1      34.161  44.025  -5.997  1.00  0.00     0.157 HD
ATOM     10  H52 UNL     1      33.575  42.774  -7.103  1.00  0.00     0.157 HD
HETATM   11  N6  UNL     1      35.895  42.592  -4.969  1.00  0.00    -0.177 N 
ATOM     12  H6  UNL     1      35.835  43.551  -4.629  1.00  0.00     0.186 HD
ENDROOT
BRANCH   6  13
HETATM   13  C4  UNL     1      34.212  40.352  -7.460  1.00  0.00     0.213 C 
BRANCH  13  14
HETATM   14  O1  UNL     1      33.702  41.125  -8.432  1.00  0.00    -0.386 OA
BRANCH  14  15
HETATM   15  C5  UNL     1      34.240  40.911  -9.686  1.00  0.00     0.169 C 
BRANCH  15  16
HETATM   16  C6  UNL     1      33.617  41.937 -10.638  1.00  0.00     0.053 C 
BRANCH  16  17
HETATM   17  C7  UNL     1      33.726  43.311  -9.982  1.00  0.00     0.231 C 
BRANCH  17  18
HETATM   18  N4  UNL     1      32.444  43.759  -9.494  1.00  0.00    -0.079 N 
ATOM     19  H43 UNL     1      31.724  43.048  -9.623  1.00  0.00     0.274 HD
ATOM     20  H42 UNL     1      32.429  43.816  -8.476  1.00  0.00     0.274 HD
ATOM     21  H41 UNL     1      32.177  44.645  -9.923  1.00  0.00     0.274 HD
ENDBRANCH  17  18
ENDBRANCH  16  17
ENDBRANCH  15  16
ENDBRANCH  14  15
ENDBRANCH  13  14
ENDBRANCH   6  13
BRANCH   1  22
HETATM   22  N1  UNL     1      37.578  42.182  -3.458  1.00  0.00    -0.234 N 
ATOM     23  H12 UNL     1      38.155  41.523  -2.934  1.00  0.00     0.174 HD
ATOM     24  H11 UNL     1      37.657  43.163  -3.189  1.00  0.00     0.174 HD
ENDBRANCH   1  22
TORSDOF 7
ENDMDL
MODEL 5
REMARK VINA RESULT: -5.635497808      4.637      7.288
REMARK  7 active torsions:
REMARK  status: ('A' for Active; 'I' for Inactive)
REMARK    1  A    between atoms: N1_1  and  C1_4 
REMARK    2  A    between atoms: C3_9  and  C4_10 
REMARK    3  A    between atoms: C4_10  and  O1_11 
REMARK    4  A    between atoms: O1_11  and  C5_12 
REMARK    5  A    between atoms: C5_12  and  C6_13 
REMARK    6  A    between atoms: C6_13  and  C7_14 
REMARK    7  A    between atoms: C7_14  and  N4_15 
ROOT
HETATM    1  C1  UNL     1      34.945  39.884  -6.747  1.00  0.00     0.678 A 
HETATM    2  N2  UNL     1      36.051  39.502  -6.115  1.00  0.00    -0.178 N 
ATOM      3  H2  UNL     1      36.327  38.524  -6.195  1.00  0.00     0.185 HD
HETATM    4  C2  UNL     1      36.824  40.303  -5.385  1.00  0.00     0.144 A 
HETATM    5  N3  UNL     1      38.001  39.869  -4.720  1.00  0.00    -0.081 NA
HETATM    6  C3  UNL     1      36.477  41.653  -5.252  1.00  0.00     0.051 A 
HETATM    7  C8  UNL     1      35.352  42.066  -5.892  1.00  0.00     0.126 A 
HETATM    8  N5  UNL     1      34.944  43.279  -5.926  1.00  0.00    -0.384 N 
ATOM      9  H51 UNL     1      34.099  43.589  -6.406  1.00  0.00     0.157 HD
ATOM     10  H52 UNL     1      35.497  43.940  -5.381  1.00  0.00     0.157 HD
HETATM   11  N6  UNL     1      34.607  41.178  -6.625  1.00  0.00    -0.177 N 
ATOM     12  H6  UNL     1      33.767  41.512  -7.095  1.00  0.00     0.186 HD
ENDROOT
BRANCH   6  13
HETATM   13  C4  UNL     1      37.398  42.516  -4.510  1.00  0.00     0.213 C 
BRANCH  13  14
HETATM   14  O1  UNL     1      36.933  43.388  -3.602  1.00  0.00    -0.386 OA
BRANCH  14  15
HETATM   15  C5  UNL     1      37.603  43.384  -2.395  1.00  0.00     0.169 C 
BRANCH  15  16
HETATM   16  C6  UNL     1      36.572  43.634  -1.291  1.00  0.00     0.053 C 
BRANCH  16  17
HETATM   17  C7  UNL     1      35.978  42.285  -0.891  1.00  0.00     0.231 C 
BRANCH  17  18
HETATM   18  N4  UNL     1      35.142  41.752  -1.938  1.00  0.00    -0.079 N 
ATOM     19  H43 UNL     1      35.446  42.070  -2.859  1.00  0.00     0.274 HD
ATOM     20  H42 UNL     1      35.289  40.750  -2.062  1.00  0.00     0.274 HD
ATOM     21  H41 UNL     1      34.160  41.970  -1.772  1.00  0.00     0.274 HD
ENDBRANCH  17  18
ENDBRANCH  16  17
ENDBRANCH  15  16
ENDBRANCH  14  15
ENDBRANCH  13  14
ENDBRANCH   6  13
BRANCH   1  22
HETATM   22  N1  UNL     1      34.210  39.071  -7.453  1.00  0.00    -0.234 N 
ATOM     23  H12 UNL     1      34.613  38.222  -7.853  1.00  0.00     0.174 HD
ATOM     24  H11 UNL     1      33.221  39.233  -7.641  1.00  0.00     0.174 HD
ENDBRANCH   1  22
TORSDOF 7
ENDMDL
