MODEL 1
REMARK VINA RESULT: -6.203080968      0.000      0.000
REMARK  8 active torsions:
REMARK  status: ('A' for Active; 'I' for Inactive)
REMARK    1  A    between atoms: N1_1  and  C1_4 
REMARK    2  A    between atoms: C3_6  and  C4_7 
REMARK    3  A    between atoms: C4_7  and  C5_8 
REMARK    4  A    between atoms: C5_8  and  O1_9 
REMARK    5  A    between atoms: O1_9  and  N2_10 
REMARK    6  A    between atoms: C6_12  and  C7_13 
REMARK    7  A    between atoms: C7_13  and  N3_14 
REMARK    8  A    between atoms: C8_20  and  N5_21 
ROOT
HETATM    1  C1  UNL     1      32.860  45.669 -12.404  1.00  0.00     0.116 A 
HETATM    2  C2  UNL     1      33.542  44.706 -11.687  1.00  0.00     0.074 A 
HETATM    3  C3  UNL     1      32.949  43.498 -11.365  1.00  0.00     0.032 A 
HETATM    4  N4  UNL     1      31.684  43.317 -11.786  1.00  0.00    -0.196 N 
ATOM      5  H4  UNL     1      31.211  42.440 -11.569  1.00  0.00     0.184 HD
HETATM    6  C8  UNL     1      31.019  44.267 -12.490  1.00  0.00     0.677 A 
HETATM    7  N6  UNL     1      31.595  45.450 -12.807  1.00  0.00    -0.177 N 
ATOM      8  H6  UNL     1      31.084  46.155 -13.337  1.00  0.00     0.185 HD
ENDROOT
BRANCH   3   9
HETATM    9  C4  UNL     1      33.658  42.446 -10.596  1.00  0.00     0.086 C 
BRANCH   9  10
HETATM   10  C5  UNL     1      33.692  42.735  -9.118  1.00  0.00     0.207 C 
BRANCH  10  11
HETATM   11  O1  UNL     1      35.064  43.007  -8.799  1.00  0.00    -0.281 OA
BRANCH  11  12
HETATM   12  N2  UNL     1      35.724  42.334  -7.800  1.00  0.00    -0.280 N 
HETATM   13  C6  UNL     1      35.207  42.171  -6.634  1.00  0.00     0.114 C 
ATOM     14  H2  UNL     1      36.651  41.952  -7.988  1.00  0.00     0.193 HD
BRANCH  13  15
HETATM   15  C7  UNL     1      35.929  41.437  -5.547  1.00  0.00     0.276 C 
BRANCH  15  16
HETATM   16  N3  UNL     1      35.601  42.072  -4.287  1.00  0.00    -0.075 N 
ATOM     17  H33 UNL     1      35.003  42.891  -4.401  1.00  0.00     0.274 HD
ATOM     18  H32 UNL     1      34.962  41.516  -3.718  1.00  0.00     0.274 HD
ATOM     19  H31 UNL     1      36.475  42.284  -3.806  1.00  0.00     0.274 HD
ENDBRANCH  15  16
ENDBRANCH  13  15
ENDBRANCH  11  12
ENDBRANCH  10  11
ENDBRANCH   9  10
ENDBRANCH   3   9
BRANCH   1  20
HETATM   20  N1  UNL     1      33.399  46.792 -12.708  1.00  0.00    -0.385 N 
ATOM     21  H12 UNL     1      33.017  47.634 -12.278  1.00  0.00     0.157 HD
ATOM     22  H11 UNL     1      34.183  46.852 -13.357  1.00  0.00     0.157 HD
ENDBRANCH   1  20
BRANCH   6  23
HETATM   23  N5  UNL     1      29.802  44.098 -12.898  1.00  0.00    -0.234 N 
ATOM     24  H52 UNL     1      29.614  44.348 -13.869  1.00  0.00     0.174 HD
ATOM     25  H51 UNL     1      29.069  43.737 -12.287  1.00  0.00     0.174 HD
ENDBRANCH   6  23
TORSDOF 8
ENDMDL
MODEL 2
REMARK VINA RESULT: -5.917710596      1.643      7.658
REMARK  8 active torsions:
REMARK  status: ('A' for Active; 'I' for Inactive)
REMARK    1  A    between atoms: N1_1  and  C1_4 
REMARK    2  A    between atoms: C3_6  and  C4_7 
REMARK    3  A    between atoms: C4_7  and  C5_8 
REMARK    4  A    between atoms: C5_8  and  O1_9 
REMARK    5  A    between atoms: O1_9  and  N2_10 
REMARK    6  A    between atoms: C6_12  and  C7_13 
REMARK    7  A    between atoms: C7_13  and  N3_14 
REMARK    8  A    between atoms: C8_20  and  N5_21 
ROOT
HETATM    1  C1  UNL     1      36.120  40.177  -5.763  1.00  0.00     0.116 A 
HETATM    2  C2  UNL     1      35.276  40.736  -6.702  1.00  0.00     0.074 A 
HETATM    3  C3  UNL     1      34.824  42.038  -6.573  1.00  0.00     0.032 A 
HETATM    4  N4  UNL     1      35.250  42.720  -5.494  1.00  0.00    -0.196 N 
ATOM      5  H4  UNL     1      34.940  43.682  -5.362  1.00  0.00     0.184 HD
HETATM    6  C8  UNL     1      36.080  42.164  -4.575  1.00  0.00     0.677 A 
HETATM    7  N6  UNL     1      36.523  40.891  -4.697  1.00  0.00    -0.177 N 
ATOM      8  H6  UNL     1      37.146  40.485  -4.000  1.00  0.00     0.185 HD
ENDROOT
BRANCH   3   9
HETATM    9  C4  UNL     1      33.917  42.665  -7.565  1.00  0.00     0.086 C 
BRANCH   9  10
HETATM   10  C5  UNL     1      34.202  42.214  -8.974  1.00  0.00     0.207 C 
BRANCH  10  11
HETATM   11  O1  UNL     1      34.530  43.399  -9.711  1.00  0.00    -0.281 OA
BRANCH  11  12
HETATM   12  N2  UNL     1      33.825  43.778 -10.828  1.00  0.00    -0.280 N 
HETATM   13  C6  UNL     1      32.748  44.475 -10.747  1.00  0.00     0.114 C 
ATOM     14  H2  UNL     1      34.166  43.497 -11.747  1.00  0.00     0.193 HD
BRANCH  13  15
HETATM   15  C7  UNL     1      31.981  44.886 -11.966  1.00  0.00     0.276 C 
BRANCH  15  16
HETATM   16  N3  UNL     1      32.190  46.305 -12.166  1.00  0.00    -0.075 N 
ATOM     17  H33 UNL     1      31.427  46.747 -12.679  1.00  0.00     0.274 HD
ATOM     18  H32 UNL     1      32.103  46.843 -11.304  1.00  0.00     0.274 HD
ATOM     19  H31 UNL     1      33.094  46.428 -12.620  1.00  0.00     0.274 HD
ENDBRANCH  15  16
ENDBRANCH  13  15
ENDBRANCH  11  12
ENDBRANCH  10  11
ENDBRANCH   9  10
ENDBRANCH   3   9
BRANCH   1  20
HETATM   20  N1  UNL     1      36.544  38.972  -5.872  1.00  0.00    -0.385 N 
ATOM     21  H12 UNL     1      36.382  38.488  -6.754  1.00  0.00     0.157 HD
ATOM     22  H11 UNL     1      37.030  38.504  -5.107  1.00  0.00     0.157 HD
ENDBRANCH   1  20
BRANCH   6  23
HETATM   23  N5  UNL     1      36.493  42.814  -3.535  1.00  0.00    -0.234 N 
ATOM     24  H52 UNL     1      36.179  42.463  -2.631  1.00  0.00     0.174 HD
ATOM     25  H51 UNL     1      37.097  43.632  -3.611  1.00  0.00     0.174 HD
ENDBRANCH   6  23
TORSDOF 8
ENDMDL
MODEL 3
REMARK VINA RESULT: -5.693775371      3.155      9.360
REMARK  8 active torsions:
REMARK  status: ('A' for Active; 'I' for Inactive)
REMARK    1  A    between atoms: N1_1  and  C1_4 
REMARK    2  A    between atoms: C3_6  and  C4_7 
REMARK    3  A    between atoms: C4_7  and  C5_8 
REMARK    4  A    between atoms: C5_8  and  O1_9 
REMARK    5  A    between atoms: O1_9  and  N2_10 
REMARK    6  A    between atoms: C6_12  and  C7_13 
REMARK    7  A    between atoms: C7_13  and  N3_14 
REMARK    8  A    between atoms: C8_20  and  N5_21 
ROOT
HETATM    1  C1  UNL     1      37.409  43.527  -1.238  1.00  0.00     0.116 A 
HETATM    2  C2  UNL     1      37.400  43.610  -2.616  1.00  0.00     0.074 A 
HETATM    3  C3  UNL     1      37.073  42.516  -3.398  1.00  0.00     0.032 A 
HETATM    4  N4  UNL     1      36.767  41.379  -2.746  1.00  0.00    -0.196 N 
ATOM      5  H4  UNL     1      36.520  40.550  -3.285  1.00  0.00     0.184 HD
HETATM    6  C8  UNL     1      36.778  41.305  -1.391  1.00  0.00     0.677 A 
HETATM    7  N6  UNL     1      37.098  42.372  -0.623  1.00  0.00    -0.177 N 
ATOM      8  H6  UNL     1      37.103  42.302   0.394  1.00  0.00     0.185 HD
ENDROOT
BRANCH   3   9
HETATM    9  C4  UNL     1      37.055  42.576  -4.880  1.00  0.00     0.086 C 
BRANCH   9  10
HETATM   10  C5  UNL     1      35.753  42.090  -5.462  1.00  0.00     0.207 C 
BRANCH  10  11
HETATM   11  O1  UNL     1      35.245  43.172  -6.256  1.00  0.00    -0.281 OA
BRANCH  11  12
HETATM   12  N2  UNL     1      34.064  43.070  -6.950  1.00  0.00    -0.280 N 
HETATM   13  C6  UNL     1      34.026  42.658  -8.167  1.00  0.00     0.114 C 
ATOM     14  H2  UNL     1      33.193  43.329  -6.487  1.00  0.00     0.193 HD
BRANCH  13  15
HETATM   15  C7  UNL     1      32.737  42.548  -8.922  1.00  0.00     0.276 C 
BRANCH  15  16
HETATM   16  N3  UNL     1      32.445  43.846  -9.496  1.00  0.00    -0.075 N 
ATOM     17  H33 UNL     1      33.286  44.356  -9.766  1.00  0.00     0.274 HD
ATOM     18  H32 UNL     1      32.021  43.782 -10.422  1.00  0.00     0.274 HD
ATOM     19  H31 UNL     1      31.867  44.359  -8.831  1.00  0.00     0.274 HD
ENDBRANCH  15  16
ENDBRANCH  13  15
ENDBRANCH  11  12
ENDBRANCH  10  11
ENDBRANCH   9  10
ENDBRANCH   3   9
BRANCH   1  20
HETATM   20  N1  UNL     1      37.711  44.534  -0.504  1.00  0.00    -0.385 N 
ATOM     21  H12 UNL     1      38.543  45.070  -0.750  1.00  0.00     0.157 HD
ATOM     22  H11 UNL     1      37.145  44.799   0.302  1.00  0.00     0.157 HD
ENDBRANCH   1  20
BRANCH   6  23
HETATM   23  N5  UNL     1      36.485  40.214  -0.758  1.00  0.00    -0.234 N 
ATOM     24  H52 UNL     1      36.147  39.440  -1.329  1.00  0.00     0.174 HD
ATOM     25  H51 UNL     1      36.585  40.129   0.254  1.00  0.00     0.174 HD
ENDBRANCH   6  23
TORSDOF 8
ENDMDL
MODEL 4
REMARK VINA RESULT: -5.682144371      3.659      9.804
REMARK  8 active torsions:
REMARK  status: ('A' for Active; 'I' for Inactive)
REMARK    1  A    between atoms: N1_1  and  C1_4 
REMARK    2  A    between atoms: C3_6  and  C4_7 
REMARK    3  A    between atoms: C4_7  and  C5_8 
REMARK    4  A    between atoms: C5_8  and  O1_9 
REMARK    5  A    between atoms: O1_9  and  N2_10 
REMARK    6  A    between atoms: C6_12  and  C7_13 
REMARK    7  A    between atoms: C7_13  and  N3_14 
REMARK    8  A    between atoms: C8_20  and  N5_21 
ROOT
HETATM    1  C1  UNL     1      37.150  42.221  -0.558  1.00  0.00     0.116 A 
HETATM    2  C2  UNL     1      37.207  41.850  -1.887  1.00  0.00     0.074 A 
HETATM    3  C3  UNL     1      37.452  42.782  -2.881  1.00  0.00     0.032 A 
HETATM    4  N4  UNL     1      37.630  44.055  -2.482  1.00  0.00    -0.196 N 
ATOM      5  H4  UNL     1      37.813  44.772  -3.184  1.00  0.00     0.184 HD
HETATM    6  C8  UNL     1      37.572  44.412  -1.174  1.00  0.00     0.677 A 
HETATM    7  N6  UNL     1      37.333  43.504  -0.200  1.00  0.00    -0.177 N 
ATOM      8  H6  UNL     1      37.292  43.786   0.779  1.00  0.00     0.185 HD
ENDROOT
BRANCH   3   9
HETATM    9  C4  UNL     1      37.519  42.413  -4.316  1.00  0.00     0.086 C 
BRANCH   9  10
HETATM   10  C5  UNL     1      36.175  42.027  -4.877  1.00  0.00     0.207 C 
BRANCH  10  11
HETATM   11  O1  UNL     1      35.770  43.115  -5.720  1.00  0.00    -0.281 OA
BRANCH  11  12
HETATM   12  N2  UNL     1      34.564  43.113  -6.378  1.00  0.00    -0.280 N 
HETATM   13  C6  UNL     1      34.455  42.710  -7.594  1.00  0.00     0.114 C 
ATOM     14  H2  UNL     1      33.732  43.441  -5.888  1.00  0.00     0.193 HD
BRANCH  13  15
HETATM   15  C7  UNL     1      33.139  42.710  -8.309  1.00  0.00     0.276 C 
BRANCH  15  16
HETATM   16  N3  UNL     1      33.304  43.444  -9.546  1.00  0.00    -0.075 N 
ATOM     17  H33 UNL     1      33.098  44.438  -9.446  1.00  0.00     0.274 HD
ATOM     18  H32 UNL     1      34.282  43.535  -9.824  1.00  0.00     0.274 HD
ATOM     19  H31 UNL     1      32.732  42.991 -10.258  1.00  0.00     0.274 HD
ENDBRANCH  15  16
ENDBRANCH  13  15
ENDBRANCH  11  12
ENDBRANCH  10  11
ENDBRANCH   9  10
ENDBRANCH   3   9
BRANCH   1  20
HETATM   20  N1  UNL     1      36.923  41.367   0.370  1.00  0.00    -0.385 N 
ATOM     21  H12 UNL     1      37.396  41.499   1.264  1.00  0.00     0.157 HD
ATOM     22  H11 UNL     1      36.292  40.578   0.231  1.00  0.00     0.157 HD
ENDBRANCH   1  20
BRANCH   6  23
HETATM   23  N5  UNL     1      37.743  45.635  -0.785  1.00  0.00    -0.234 N 
ATOM     24  H52 UNL     1      38.530  46.133  -1.199  1.00  0.00     0.174 HD
ATOM     25  H51 UNL     1      37.128  46.079  -0.104  1.00  0.00     0.174 HD
ENDBRANCH   6  23
TORSDOF 8
ENDMDL
MODEL 5
REMARK VINA RESULT: -5.568637950      2.026      8.423
REMARK  8 active torsions:
REMARK  status: ('A' for Active; 'I' for Inactive)
REMARK    1  A    between atoms: N1_1  and  C1_4 
REMARK    2  A    between atoms: C3_6  and  C4_7 
REMARK    3  A    between atoms: C4_7  and  C5_8 
REMARK    4  A    between atoms: C5_8  and  O1_9 
REMARK    5  A    between atoms: O1_9  and  N2_10 
REMARK    6  A    between atoms: C6_12  and  C7_13 
REMARK    7  A    between atoms: C7_13  and  N3_14 
REMARK    8  A    between atoms: C8_20  and  N5_21 
ROOT
HETATM    1  C1  UNL     1      38.113  40.866  -3.793  1.00  0.00     0.116 A 
HETATM    2  C2  UNL     1      37.242  40.644  -4.842  1.00  0.00     0.074 A 
HETATM    3  C3  UNL     1      36.192  41.510  -5.096  1.00  0.00     0.032 A 
HETATM    4  N4  UNL     1      36.070  42.567  -4.272  1.00  0.00    -0.196 N 
ATOM      5  H4  UNL     1      35.310  43.229  -4.426  1.00  0.00     0.184 HD
HETATM    6  C8  UNL     1      36.929  42.778  -3.243  1.00  0.00     0.677 A 
HETATM    7  N6  UNL     1      37.956  41.935  -2.991  1.00  0.00    -0.177 N 
ATOM      8  H6  UNL     1      38.595  42.105  -2.215  1.00  0.00     0.185 HD
ENDROOT
BRANCH   3   9
HETATM    9  C4  UNL     1      35.242  41.298  -6.215  1.00  0.00     0.086 C 
BRANCH   9  10
HETATM   10  C5  UNL     1      34.691  42.590  -6.757  1.00  0.00     0.207 C 
BRANCH  10  11
HETATM   11  O1  UNL     1      35.373  42.823  -7.997  1.00  0.00    -0.281 OA
BRANCH  11  12
HETATM   12  N2  UNL     1      34.696  42.956  -9.185  1.00  0.00    -0.280 N 
HETATM   13  C6  UNL     1      33.417  43.077  -9.227  1.00  0.00     0.114 C 
ATOM     14  H2  UNL     1      35.223  42.960 -10.058  1.00  0.00     0.193 HD
BRANCH  13  15
HETATM   15  C7  UNL     1      32.680  43.222 -10.523  1.00  0.00     0.276 C 
BRANCH  15  16
HETATM   16  N3  UNL     1      32.028  44.515 -10.523  1.00  0.00    -0.075 N 
ATOM     17  H33 UNL     1      31.149  44.514 -11.041  1.00  0.00     0.274 HD
ATOM     18  H32 UNL     1      31.647  44.765  -9.610  1.00  0.00     0.274 HD
ATOM     19  H31 UNL     1      32.694  45.202 -10.875  1.00  0.00     0.274 HD
ENDBRANCH  15  16
ENDBRANCH  13  15
ENDBRANCH  11  12
ENDBRANCH  10  11
ENDBRANCH   9  10
ENDBRANCH   3   9
BRANCH   1  20
HETATM   20  N1  UNL     1      39.088  40.071  -3.547  1.00  0.00    -0.385 N 
ATOM     21  H12 UNL     1      39.191  39.247  -4.139  1.00  0.00     0.157 HD
ATOM     22  H11 UNL     1      39.745  40.247  -2.788  1.00  0.00     0.157 HD
ENDBRANCH   1  20
BRANCH   6  23
HETATM   23  N5  UNL     1      36.816  43.793  -2.448  1.00  0.00    -0.234 N 
ATOM     24  H52 UNL     1      37.394  43.772  -1.608  1.00  0.00     0.174 HD
ATOM     25  H51 UNL     1      36.187  44.571  -2.645  1.00  0.00     0.174 HD
ENDBRANCH   6  23
TORSDOF 8
ENDMDL
