MODEL 1
REMARK VINA RESULT: -6.014960800      0.000      0.000
REMARK  6 active torsions:
REMARK  status: ('A' for Active; 'I' for Inactive)
REMARK    1  A    between atoms: N1_1  and  C1_4 
REMARK    2  A    between atoms: N3_9  and  C4_10 
REMARK    3  A    between atoms: C4_10  and  C5_11 
REMARK    4  A    between atoms: C5_11  and  C6_12 
REMARK    5  A    between atoms: C6_12  and  N4_13 
REMARK    6  A    between atoms: N4_13  and  C7_15 
ROOT
HETATM    1  C5  UNL     1      37.390  41.736  -4.363  1.00  0.00     0.040 C 
ENDROOT
BRANCH   1   2
HETATM    2  C4  UNL     1      37.064  43.013  -3.662  1.00  0.00     0.148 C 
BRANCH   2   3
HETATM    3  N3  UNL     1      37.031  42.955  -2.240  1.00  0.00    -0.192 N 
HETATM    4  C1  UNL     1      36.122  42.380  -1.405  1.00  0.00     0.677 A 
HETATM    5  N2  UNL     1      36.514  42.583  -0.137  1.00  0.00    -0.201 N 
HETATM    6  C2  UNL     1      37.657  43.277  -0.109  1.00  0.00     0.124 A 
ATOM      7  H2  UNL     1      36.011  42.255   0.688  1.00  0.00     0.183 HD
HETATM    8  C3  UNL     1      37.969  43.502  -1.437  1.00  0.00     0.126 A 
BRANCH   4   9
HETATM    9  N1  UNL     1      35.088  41.765  -1.843  1.00  0.00    -0.234 N 
ATOM     10  H12 UNL     1      34.984  40.753  -1.764  1.00  0.00     0.174 HD
ATOM     11  H11 UNL     1      34.261  42.143  -2.305  1.00  0.00     0.174 HD
ENDBRANCH   4   9
ENDBRANCH   2   3
ENDBRANCH   1   2
BRANCH   1  12
HETATM   12  C6  UNL     1      36.188  41.328  -5.186  1.00  0.00     0.124 C 
BRANCH  12  13
HETATM   13  N4  UNL     1      35.326  42.428  -5.499  1.00  0.00    -0.362 N 
ATOM     14  H4  UNL     1      35.107  43.109  -4.772  1.00  0.00     0.162 HD
BRANCH  13  15
HETATM   15  C7  UNL     1      34.763  42.597  -6.805  1.00  0.00     0.171 C 
HETATM   16  N5  UNL     1      33.552  43.039  -6.958  1.00  0.00    -0.361 N 
HETATM   17  C8  UNL     1      33.186  43.133  -8.344  1.00  0.00     0.142 C 
ATOM     18  H5  UNL     1      32.934  43.289  -6.187  1.00  0.00     0.162 HD
HETATM   19  C9  UNL     1      34.330  42.532  -9.099  1.00  0.00     0.142 C 
HETATM   20  N6  UNL     1      35.354  42.343  -8.067  1.00  0.00    -0.361 N 
ATOM     21  H6  UNL     1      36.324  42.075  -8.231  1.00  0.00     0.162 HD
ENDBRANCH  13  15
ENDBRANCH  12  13
ENDBRANCH   1  12
TORSDOF 6
ENDMDL
MODEL 2
REMARK VINA RESULT: -5.872035172      0.879      1.313
REMARK  6 active torsions:
REMARK  status: ('A' for Active; 'I' for Inactive)
REMARK    1  A    between atoms: N1_1  and  C1_4 
REMARK    2  A    between atoms: N3_9  and  C4_10 
REMARK    3  A    between atoms: C4_10  and  C5_11 
REMARK    4  A    between atoms: C5_11  and  C6_12 
REMARK    5  A    between atoms: C6_12  and  N4_13 
REMARK    6  A    between atoms: N4_13  and  C7_15 
ROOT
HETATM    1  C5  UNL     1      37.195  42.400  -5.164  1.00  0.00     0.040 C 
ENDROOT
BRANCH   1   2
HETATM    2  C4  UNL     1      37.613  41.956  -3.801  1.00  0.00     0.148 C 
BRANCH   2   3
HETATM    3  N3  UNL     1      37.090  42.709  -2.712  1.00  0.00    -0.192 N 
HETATM    4  C1  UNL     1      36.071  42.423  -1.855  1.00  0.00     0.677 A 
HETATM    5  N2  UNL     1      35.942  43.439  -0.986  1.00  0.00    -0.201 N 
HETATM    6  C2  UNL     1      36.847  44.390  -1.244  1.00  0.00     0.124 A 
ATOM      7  H2  UNL     1      35.252  43.480  -0.236  1.00  0.00     0.183 HD
HETATM    8  C3  UNL     1      37.560  43.916  -2.330  1.00  0.00     0.126 A 
BRANCH   4   9
HETATM    9  N1  UNL     1      35.397  41.338  -1.936  1.00  0.00    -0.234 N 
ATOM     10  H12 UNL     1      34.476  41.238  -1.510  1.00  0.00     0.174 HD
ATOM     11  H11 UNL     1      35.640  40.462  -2.399  1.00  0.00     0.174 HD
ENDBRANCH   4   9
ENDBRANCH   2   3
ENDBRANCH   1   2
BRANCH   1  12
HETATM   12  C6  UNL     1      35.875  41.740  -5.492  1.00  0.00     0.124 C 
BRANCH  12  13
HETATM   13  N4  UNL     1      34.858  42.679  -5.862  1.00  0.00    -0.362 N 
ATOM     14  H4  UNL     1      34.513  43.337  -5.164  1.00  0.00     0.162 HD
BRANCH  13  15
HETATM   15  C7  UNL     1      34.313  42.717  -7.186  1.00  0.00     0.171 C 
HETATM   16  N5  UNL     1      34.930  42.155  -8.180  1.00  0.00    -0.361 N 
HETATM   17  C8  UNL     1      34.214  42.310  -9.415  1.00  0.00     0.142 C 
ATOM     18  H5  UNL     1      35.818  41.662  -8.093  1.00  0.00     0.162 HD
HETATM   19  C9  UNL     1      33.063  43.212  -9.096  1.00  0.00     0.142 C 
HETATM   20  N6  UNL     1      33.109  43.316  -7.635  1.00  0.00    -0.361 N 
ATOM     21  H6  UNL     1      32.398  43.745  -7.043  1.00  0.00     0.162 HD
ENDBRANCH  13  15
ENDBRANCH  12  13
ENDBRANCH   1  12
TORSDOF 6
ENDMDL
MODEL 3
REMARK VINA RESULT: -5.825988892      0.892      1.165
REMARK  6 active torsions:
REMARK  status: ('A' for Active; 'I' for Inactive)
REMARK    1  A    between atoms: N1_1  and  C1_4 
REMARK    2  A    between atoms: N3_9  and  C4_10 
REMARK    3  A    between atoms: C4_10  and  C5_11 
REMARK    4  A    between atoms: C5_11  and  C6_12 
REMARK    5  A    between atoms: C6_12  and  N4_13 
REMARK    6  A    between atoms: N4_13  and  C7_15 
ROOT
HETATM    1  C5  UNL     1      37.130  41.813  -4.106  1.00  0.00     0.040 C 
ENDROOT
BRANCH   1   2
HETATM    2  C4  UNL     1      36.483  41.869  -2.761  1.00  0.00     0.148 C 
BRANCH   2   3
HETATM    3  N3  UNL     1      37.002  42.841  -1.859  1.00  0.00    -0.192 N 
HETATM    4  C1  UNL     1      37.212  42.769  -0.515  1.00  0.00     0.677 A 
HETATM    5  N2  UNL     1      37.719  43.940  -0.096  1.00  0.00    -0.201 N 
HETATM    6  C2  UNL     1      37.849  44.786  -1.124  1.00  0.00     0.124 A 
ATOM      7  H2  UNL     1      37.969  44.154   0.870  1.00  0.00     0.183 HD
HETATM    8  C3  UNL     1      37.394  44.080  -2.224  1.00  0.00     0.126 A 
BRANCH   4   9
HETATM    9  N1  UNL     1      36.943  41.716   0.161  1.00  0.00    -0.234 N 
ATOM     10  H12 UNL     1      36.749  41.748   1.162  1.00  0.00     0.174 HD
ATOM     11  H11 UNL     1      36.880  40.748  -0.153  1.00  0.00     0.174 HD
ENDBRANCH   4   9
ENDBRANCH   2   3
ENDBRANCH   1   2
BRANCH   1  12
HETATM   12  C6  UNL     1      36.075  41.439  -5.122  1.00  0.00     0.124 C 
BRANCH  12  13
HETATM   13  N4  UNL     1      35.243  42.543  -5.497  1.00  0.00    -0.362 N 
ATOM     14  H4  UNL     1      35.015  43.251  -4.799  1.00  0.00     0.162 HD
BRANCH  13  15
HETATM   15  C7  UNL     1      34.722  42.679  -6.824  1.00  0.00     0.171 C 
HETATM   16  N5  UNL     1      33.489  43.029  -7.025  1.00  0.00    -0.361 N 
HETATM   17  C8  UNL     1      33.173  43.106  -8.424  1.00  0.00     0.142 C 
ATOM     18  H5  UNL     1      32.823  43.226  -6.278  1.00  0.00     0.162 HD
HETATM   19  C9  UNL     1      34.389  42.599  -9.134  1.00  0.00     0.142 C 
HETATM   20  N6  UNL     1      35.381  42.480  -8.062  1.00  0.00    -0.361 N 
ATOM     21  H6  UNL     1      36.375  42.286  -8.186  1.00  0.00     0.162 HD
ENDBRANCH  13  15
ENDBRANCH  12  13
ENDBRANCH   1  12
TORSDOF 6
ENDMDL
MODEL 4
REMARK VINA RESULT: -5.798293098      0.866      1.403
REMARK  6 active torsions:
REMARK  status: ('A' for Active; 'I' for Inactive)
REMARK    1  A    between atoms: N1_1  and  C1_4 
REMARK    2  A    between atoms: N3_9  and  C4_10 
REMARK    3  A    between atoms: C4_10  and  C5_11 
REMARK    4  A    between atoms: C5_11  and  C6_12 
REMARK    5  A    between atoms: C6_12  and  N4_13 
REMARK    6  A    between atoms: N4_13  and  C7_15 
ROOT
HETATM    1  C5  UNL     1      37.386  41.852  -4.208  1.00  0.00     0.040 C 
ENDROOT
BRANCH   1   2
HETATM    2  C4  UNL     1      36.962  42.990  -3.339  1.00  0.00     0.148 C 
BRANCH   2   3
HETATM    3  N3  UNL     1      37.040  42.766  -1.935  1.00  0.00    -0.192 N 
HETATM    4  C1  UNL     1      37.373  43.618  -0.927  1.00  0.00     0.677 A 
HETATM    5  N2  UNL     1      37.306  42.953   0.238  1.00  0.00    -0.201 N 
HETATM    6  C2  UNL     1      36.940  41.683   0.028  1.00  0.00     0.124 A 
ATOM      7  H2  UNL     1      37.507  43.358   1.152  1.00  0.00     0.183 HD
HETATM    8  C3  UNL     1      36.776  41.582  -1.341  1.00  0.00     0.126 A 
BRANCH   4   9
HETATM    9  N1  UNL     1      37.685  44.841  -1.143  1.00  0.00    -0.234 N 
ATOM     10  H12 UNL     1      38.348  45.112  -1.869  1.00  0.00     0.174 HD
ATOM     11  H11 UNL     1      37.356  45.682  -0.670  1.00  0.00     0.174 HD
ENDBRANCH   4   9
ENDBRANCH   2   3
ENDBRANCH   1   2
BRANCH   1  12
HETATM   12  C6  UNL     1      36.201  41.431  -5.047  1.00  0.00     0.124 C 
BRANCH  12  13
HETATM   13  N4  UNL     1      35.361  42.530  -5.420  1.00  0.00    -0.362 N 
ATOM     14  H4  UNL     1      35.146  43.246  -4.727  1.00  0.00     0.162 HD
BRANCH  13  15
HETATM   15  C7  UNL     1      34.816  42.649  -6.739  1.00  0.00     0.171 C 
HETATM   16  N5  UNL     1      33.579  43.000  -6.921  1.00  0.00    -0.361 N 
HETATM   17  C8  UNL     1      33.238  43.059  -8.315  1.00  0.00     0.142 C 
ATOM     18  H5  UNL     1      32.928  43.208  -6.165  1.00  0.00     0.162 HD
HETATM   19  C9  UNL     1      34.439  42.539  -9.041  1.00  0.00     0.142 C 
HETATM   20  N6  UNL     1      35.451  42.432  -7.986  1.00  0.00    -0.361 N 
ATOM     21  H6  UNL     1      36.442  42.234  -8.126  1.00  0.00     0.162 HD
ENDBRANCH  13  15
ENDBRANCH  12  13
ENDBRANCH   1  12
TORSDOF 6
ENDMDL
MODEL 5
REMARK VINA RESULT: -5.747456999      1.548      2.699
REMARK  6 active torsions:
REMARK  status: ('A' for Active; 'I' for Inactive)
REMARK    1  A    between atoms: N1_1  and  C1_4 
REMARK    2  A    between atoms: N3_9  and  C4_10 
REMARK    3  A    between atoms: C4_10  and  C5_11 
REMARK    4  A    between atoms: C5_11  and  C6_12 
REMARK    5  A    between atoms: C6_12  and  N4_13 
REMARK    6  A    between atoms: N4_13  and  C7_15 
ROOT
HETATM    1  C5  UNL     1      35.841  41.451  -1.851  1.00  0.00     0.040 C 
ENDROOT
BRANCH   1   2
HETATM    2  C4  UNL     1      35.796  42.691  -1.021  1.00  0.00     0.148 C 
BRANCH   2   3
HETATM    3  N3  UNL     1      36.903  42.899  -0.150  1.00  0.00    -0.192 N 
HETATM    4  C1  UNL     1      37.887  43.839  -0.189  1.00  0.00     0.677 A 
HETATM    5  N2  UNL     1      38.716  43.638   0.849  1.00  0.00    -0.201 N 
HETATM    6  C2  UNL     1      38.308  42.590   1.573  1.00  0.00     0.124 A 
ATOM      7  H2  UNL     1      39.539  44.203   1.054  1.00  0.00     0.183 HD
HETATM    8  C3  UNL     1      37.169  42.137   0.934  1.00  0.00     0.126 A 
BRANCH   4   9
HETATM    9  N1  UNL     1      37.939  44.734  -1.103  1.00  0.00    -0.234 N 
ATOM     10  H12 UNL     1      38.655  45.460  -1.112  1.00  0.00     0.174 HD
ATOM     11  H11 UNL     1      37.329  44.866  -1.909  1.00  0.00     0.174 HD
ENDBRANCH   4   9
ENDBRANCH   2   3
ENDBRANCH   1   2
BRANCH   1  12
HETATM   12  C6  UNL     1      36.817  41.676  -2.985  1.00  0.00     0.124 C 
BRANCH  12  13
HETATM   13  N4  UNL     1      36.322  42.586  -3.974  1.00  0.00    -0.362 N 
ATOM     14  H4  UNL     1      36.513  43.583  -3.870  1.00  0.00     0.162 HD
BRANCH  13  15
HETATM   15  C7  UNL     1      35.568  42.135  -5.105  1.00  0.00     0.171 C 
HETATM   16  N5  UNL     1      35.559  40.882  -5.445  1.00  0.00    -0.361 N 
HETATM   17  C8  UNL     1      34.742  40.646  -6.603  1.00  0.00     0.142 C 
ATOM     18  H5  UNL     1      36.071  40.153  -4.949  1.00  0.00     0.162 HD
HETATM   19  C9  UNL     1      34.315  42.001  -7.071  1.00  0.00     0.142 C 
HETATM   20  N6  UNL     1      34.760  42.888  -5.992  1.00  0.00    -0.361 N 
ATOM     21  H6  UNL     1      34.527  43.876  -5.896  1.00  0.00     0.162 HD
ENDBRANCH  13  15
ENDBRANCH  12  13
ENDBRANCH   1  12
TORSDOF 6
ENDMDL
