MODEL 1
REMARK VINA RESULT: -7.644089484      0.000      0.000
REMARK  7 active torsions:
REMARK  status: ('A' for Active; 'I' for Inactive)
REMARK    1  A    between atoms: O1_1  and  N1_3 
REMARK    2  A    between atoms: C1_5  and  C2_6 
REMARK    3  A    between atoms: N2_9  and  C5_10 
REMARK    4  A    between atoms: C6_11  and  O2_12 
REMARK    5  A    between atoms: C7_14  and  O3_15 
REMARK    6  A    between atoms: C8_17  and  O4_18 
REMARK    7  A    between atoms: C9_20  and  O5_21 
ROOT
HETATM    1  C5  UNL     1      74.429  58.903  36.594  1.00  0.00     0.151 C 
HETATM    2  C6  UNL     1      75.860  58.596  36.219  1.00  0.00     0.175 C 
HETATM    3  C7  UNL     1      76.647  58.756  37.501  1.00  0.00     0.180 C 
HETATM    4  C8  UNL     1      75.681  58.681  38.633  1.00  0.00     0.180 C 
HETATM    5  C9  UNL     1      74.289  58.543  38.052  1.00  0.00     0.175 C 
ENDROOT
BRANCH   1   6
HETATM    6  N2  UNL     1      73.472  58.123  35.842  1.00  0.00    -0.356 N 
HETATM    7  C4  UNL     1      72.822  58.625  34.762  1.00  0.00     0.092 A 
HETATM    8  C3  UNL     1      71.983  57.664  34.255  1.00  0.00     0.031 A 
HETATM    9  C2  UNL     1      72.158  56.550  35.080  1.00  0.00    -0.002 A 
HETATM   10  C10 UNL     1      73.088  56.861  36.059  1.00  0.00     0.104 A 
BRANCH   9  11
HETATM   11  C1  UNL     1      71.490  55.285  34.948  1.00  0.00     0.126 C 
HETATM   12  N1  UNL     1      72.113  54.169  35.087  1.00  0.00    -0.280 N 
ATOM     13  H1  UNL     1      73.110  54.196  35.297  1.00  0.00     0.193 HD
BRANCH  12  14
HETATM   14  O1  UNL     1      71.507  52.948  34.968  1.00  0.00    -0.290 OA
ATOM     15  H1  UNL     1      71.940  52.128  35.173  1.00  0.00     0.244 HD
ENDBRANCH  12  14
ENDBRANCH   9  11
ENDBRANCH   1   6
BRANCH   2  16
HETATM   16  O2  UNL     1      76.035  57.285  35.795  1.00  0.00    -0.391 OA
ATOM     17  H2  UNL     1      76.774  56.859  36.212  1.00  0.00     0.210 HD
ENDBRANCH   2  16
BRANCH   5  18
HETATM   18  O5  UNL     1      73.387  59.383  38.711  1.00  0.00    -0.391 OA
ATOM     19  H5  UNL     1      73.810  59.888  39.397  1.00  0.00     0.210 HD
ENDBRANCH   5  18
BRANCH   3  20
HETATM   20  O3  UNL     1      77.583  57.734  37.657  1.00  0.00    -0.390 OA
ATOM     21  H3  UNL     1      78.154  57.895  38.399  1.00  0.00     0.210 HD
ENDBRANCH   3  20
BRANCH   4  22
HETATM   22  O4  UNL     1      75.775  59.795  39.476  1.00  0.00    -0.390 OA
ATOM     23  H4  UNL     1      76.392  59.654  40.184  1.00  0.00     0.210 HD
ENDBRANCH   4  22
TORSDOF 7
ENDMDL
MODEL 2
REMARK VINA RESULT: -7.428844577      2.002      2.394
REMARK  7 active torsions:
REMARK  status: ('A' for Active; 'I' for Inactive)
REMARK    1  A    between atoms: O1_1  and  N1_3 
REMARK    2  A    between atoms: C1_5  and  C2_6 
REMARK    3  A    between atoms: N2_9  and  C5_10 
REMARK    4  A    between atoms: C6_11  and  O2_12 
REMARK    5  A    between atoms: C7_14  and  O3_15 
REMARK    6  A    between atoms: C8_17  and  O4_18 
REMARK    7  A    between atoms: C9_20  and  O5_21 
ROOT
HETATM    1  C5  UNL     1      74.415  58.881  36.565  1.00  0.00     0.151 C 
HETATM    2  C6  UNL     1      75.823  58.493  36.178  1.00  0.00     0.175 C 
HETATM    3  C7  UNL     1      76.622  58.582  37.460  1.00  0.00     0.180 C 
HETATM    4  C8  UNL     1      75.657  58.546  38.595  1.00  0.00     0.180 C 
HETATM    5  C9  UNL     1      74.257  58.504  38.016  1.00  0.00     0.175 C 
ENDROOT
BRANCH   1   6
HETATM    6  N2  UNL     1      73.410  58.175  35.802  1.00  0.00    -0.356 N 
HETATM    7  C4  UNL     1      72.955  56.950  36.168  1.00  0.00     0.092 A 
HETATM    8  C3  UNL     1      72.012  56.531  35.263  1.00  0.00     0.031 A 
HETATM    9  C2  UNL     1      71.915  57.564  34.327  1.00  0.00    -0.002 A 
HETATM   10  C10 UNL     1      72.794  58.575  34.685  1.00  0.00     0.104 A 
BRANCH   9  11
HETATM   11  C1  UNL     1      71.052  57.590  33.179  1.00  0.00     0.126 C 
HETATM   12  N1  UNL     1      70.369  58.633  32.865  1.00  0.00    -0.280 N 
ATOM     13  H1  UNL     1      70.451  59.460  33.455  1.00  0.00     0.193 HD
BRANCH  12  14
HETATM   14  O1  UNL     1      69.538  58.690  31.779  1.00  0.00    -0.290 OA
ATOM     15  H1  UNL     1      68.881  59.366  31.659  1.00  0.00     0.244 HD
ENDBRANCH  12  14
ENDBRANCH   9  11
ENDBRANCH   1   6
BRANCH   2  16
HETATM   16  O2  UNL     1      75.916  57.181  35.730  1.00  0.00    -0.391 OA
ATOM     17  H2  UNL     1      76.710  56.749  36.022  1.00  0.00     0.210 HD
ENDBRANCH   2  16
BRANCH   5  18
HETATM   18  O5  UNL     1      73.410  59.386  38.693  1.00  0.00    -0.391 OA
ATOM     19  H5  UNL     1      73.767  59.642  39.536  1.00  0.00     0.210 HD
ENDBRANCH   5  18
BRANCH   3  20
HETATM   20  O3  UNL     1      77.494  57.502  37.594  1.00  0.00    -0.390 OA
ATOM     21  H3  UNL     1      78.348  57.696  37.227  1.00  0.00     0.210 HD
ENDBRANCH   3  20
BRANCH   4  22
HETATM   22  O4  UNL     1      75.821  59.637  39.456  1.00  0.00    -0.390 OA
ATOM     23  H4  UNL     1      75.536  60.451  39.058  1.00  0.00     0.210 HD
ENDBRANCH   4  22
TORSDOF 7
ENDMDL
MODEL 3
REMARK VINA RESULT: -7.114336167      2.350      4.025
REMARK  7 active torsions:
REMARK  status: ('A' for Active; 'I' for Inactive)
REMARK    1  A    between atoms: O1_1  and  N1_3 
REMARK    2  A    between atoms: C1_5  and  C2_6 
REMARK    3  A    between atoms: N2_9  and  C5_10 
REMARK    4  A    between atoms: C6_11  and  O2_12 
REMARK    5  A    between atoms: C7_14  and  O3_15 
REMARK    6  A    between atoms: C8_17  and  O4_18 
REMARK    7  A    between atoms: C9_20  and  O5_21 
ROOT
HETATM    1  C5  UNL     1      74.511  58.142  36.566  1.00  0.00     0.151 C 
HETATM    2  C6  UNL     1      74.271  58.348  38.044  1.00  0.00     0.175 C 
HETATM    3  C7  UNL     1      75.633  58.660  38.625  1.00  0.00     0.180 C 
HETATM    4  C8  UNL     1      76.513  59.087  37.501  1.00  0.00     0.180 C 
HETATM    5  C9  UNL     1      75.719  58.974  36.216  1.00  0.00     0.175 C 
ENDROOT
BRANCH   1   6
HETATM    6  N2  UNL     1      73.404  58.586  35.751  1.00  0.00    -0.356 N 
HETATM    7  C4  UNL     1      72.422  57.742  35.344  1.00  0.00     0.092 A 
HETATM    8  C3  UNL     1      71.512  58.440  34.590  1.00  0.00     0.031 A 
HETATM    9  C2  UNL     1      71.987  59.753  34.561  1.00  0.00    -0.002 A 
HETATM   10  C10 UNL     1      73.165  59.819  35.289  1.00  0.00     0.104 A 
BRANCH   9  11
HETATM   11  C1  UNL     1      71.370  60.863  33.889  1.00  0.00     0.126 C 
HETATM   12  N1  UNL     1      70.093  61.001  33.836  1.00  0.00    -0.280 N 
ATOM     13  H1  UNL     1      69.511  60.295  34.287  1.00  0.00     0.193 HD
BRANCH  12  14
HETATM   14  O1  UNL     1      69.473  62.045  33.205  1.00  0.00    -0.290 OA
ATOM     15  H1  UNL     1      69.184  62.830  33.655  1.00  0.00     0.244 HD
ENDBRANCH  12  14
ENDBRANCH   9  11
ENDBRANCH   1   6
BRANCH   2  16
HETATM   16  O2  UNL     1      73.454  59.439  38.309  1.00  0.00    -0.391 OA
ATOM     17  H2  UNL     1      73.378  59.624  39.238  1.00  0.00     0.210 HD
ENDBRANCH   2  16
BRANCH   5  18
HETATM   18  O5  UNL     1      76.483  58.382  35.207  1.00  0.00    -0.391 OA
ATOM     19  H5  UNL     1      76.841  59.028  34.608  1.00  0.00     0.210 HD
ENDBRANCH   5  18
BRANCH   3  20
HETATM   20  O3  UNL     1      75.566  59.704  39.548  1.00  0.00    -0.390 OA
ATOM     21  H3  UNL     1      76.410  59.863  39.954  1.00  0.00     0.210 HD
ENDBRANCH   3  20
BRANCH   4  22
HETATM   22  O4  UNL     1      77.690  58.333  37.442  1.00  0.00    -0.390 OA
ATOM     23  H4  UNL     1      78.298  58.672  36.796  1.00  0.00     0.210 HD
ENDBRANCH   4  22
TORSDOF 7
ENDMDL
MODEL 4
REMARK VINA RESULT: -7.090951474      2.288      3.338
REMARK  7 active torsions:
REMARK  status: ('A' for Active; 'I' for Inactive)
REMARK    1  A    between atoms: O1_1  and  N1_3 
REMARK    2  A    between atoms: C1_5  and  C2_6 
REMARK    3  A    between atoms: N2_9  and  C5_10 
REMARK    4  A    between atoms: C6_11  and  O2_12 
REMARK    5  A    between atoms: C7_14  and  O3_15 
REMARK    6  A    between atoms: C8_17  and  O4_18 
REMARK    7  A    between atoms: C9_20  and  O5_21 
ROOT
HETATM    1  C5  UNL     1      74.586  58.208  36.586  1.00  0.00     0.151 C 
HETATM    2  C6  UNL     1      74.301  58.404  38.057  1.00  0.00     0.175 C 
HETATM    3  C7  UNL     1      75.654  58.629  38.694  1.00  0.00     0.180 C 
HETATM    4  C8  UNL     1      76.600  59.022  37.612  1.00  0.00     0.180 C 
HETATM    5  C9  UNL     1      75.851  58.975  36.297  1.00  0.00     0.175 C 
ENDROOT
BRANCH   1   6
HETATM    6  N2  UNL     1      73.537  58.727  35.738  1.00  0.00    -0.356 N 
HETATM    7  C4  UNL     1      73.501  60.026  35.348  1.00  0.00     0.092 A 
HETATM    8  C3  UNL     1      72.401  60.228  34.553  1.00  0.00     0.031 A 
HETATM    9  C2  UNL     1      71.768  58.985  34.478  1.00  0.00    -0.002 A 
HETATM   10  C10 UNL     1      72.493  58.068  35.224  1.00  0.00     0.104 A 
BRANCH   9  11
HETATM   11  C1  UNL     1      70.563  58.689  33.754  1.00  0.00     0.126 C 
HETATM   12  N1  UNL     1      70.479  58.848  32.481  1.00  0.00    -0.280 N 
ATOM     13  H1  UNL     1      71.297  59.195  31.982  1.00  0.00     0.193 HD
BRANCH  12  14
HETATM   14  O1  UNL     1      69.347  58.577  31.761  1.00  0.00    -0.290 OA
ATOM     15  H1  UNL     1      68.566  58.192  32.140  1.00  0.00     0.244 HD
ENDBRANCH  12  14
ENDBRANCH   9  11
ENDBRANCH   1   6
BRANCH   2  16
HETATM   16  O2  UNL     1      73.537  59.536  38.311  1.00  0.00    -0.391 OA
ATOM     17  H2  UNL     1      72.884  59.696  37.640  1.00  0.00     0.210 HD
ENDBRANCH   2  16
BRANCH   5  18
HETATM   18  O5  UNL     1      76.619  58.356  35.306  1.00  0.00    -0.391 OA
ATOM     19  H5  UNL     1      76.142  58.273  34.488  1.00  0.00     0.210 HD
ENDBRANCH   5  18
BRANCH   3  20
HETATM   20  O3  UNL     1      75.611  59.660  39.633  1.00  0.00    -0.390 OA
ATOM     21  H3  UNL     1      76.468  59.822  40.011  1.00  0.00     0.210 HD
ENDBRANCH   3  20
BRANCH   4  22
HETATM   22  O4  UNL     1      77.734  58.203  37.585  1.00  0.00    -0.390 OA
ATOM     23  H4  UNL     1      78.216  58.235  38.403  1.00  0.00     0.210 HD
ENDBRANCH   4  22
TORSDOF 7
ENDMDL
MODEL 5
REMARK VINA RESULT: -7.057974919      2.401      3.316
REMARK  7 active torsions:
REMARK  status: ('A' for Active; 'I' for Inactive)
REMARK    1  A    between atoms: O1_1  and  N1_3 
REMARK    2  A    between atoms: C1_5  and  C2_6 
REMARK    3  A    between atoms: N2_9  and  C5_10 
REMARK    4  A    between atoms: C6_11  and  O2_12 
REMARK    5  A    between atoms: C7_14  and  O3_15 
REMARK    6  A    between atoms: C8_17  and  O4_18 
REMARK    7  A    between atoms: C9_20  and  O5_21 
ROOT
HETATM    1  C5  UNL     1      74.877  59.555  36.460  1.00  0.00     0.151 C 
HETATM    2  C6  UNL     1      76.288  59.044  36.281  1.00  0.00     0.175 C 
HETATM    3  C7  UNL     1      76.763  58.701  37.675  1.00  0.00     0.180 C 
HETATM    4  C8  UNL     1      75.557  58.560  38.539  1.00  0.00     0.180 C 
HETATM    5  C9  UNL     1      74.339  58.883  37.697  1.00  0.00     0.175 C 
ENDROOT
BRANCH   1   6
HETATM    6  N2  UNL     1      74.014  59.220  35.350  1.00  0.00    -0.356 N 
HETATM    7  C4  UNL     1      73.019  58.304  35.461  1.00  0.00     0.092 A 
HETATM    8  C3  UNL     1      72.371  58.194  34.256  1.00  0.00     0.031 A 
HETATM    9  C2  UNL     1      73.021  59.092  33.406  1.00  0.00    -0.002 A 
HETATM   10  C10 UNL     1      74.039  59.717  34.109  1.00  0.00     0.104 A 
BRANCH   9  11
HETATM   11  C1  UNL     1      72.700  59.337  32.027  1.00  0.00     0.126 C 
HETATM   12  N1  UNL     1      73.472  60.021  31.260  1.00  0.00    -0.280 N 
ATOM     13  H1  UNL     1      74.335  60.396  31.653  1.00  0.00     0.193 HD
BRANCH  12  14
HETATM   14  O1  UNL     1      73.197  60.273  29.944  1.00  0.00    -0.290 OA
ATOM     15  H1  UNL     1      73.429  61.084  29.507  1.00  0.00     0.244 HD
ENDBRANCH  12  14
ENDBRANCH   9  11
ENDBRANCH   1   6
BRANCH   2  16
HETATM   16  O2  UNL     1      76.345  57.876  35.532  1.00  0.00    -0.391 OA
ATOM     17  H2  UNL     1      77.235  57.600  35.348  1.00  0.00     0.210 HD
ENDBRANCH   2  16
BRANCH   5  18
HETATM   18  O5  UNL     1      73.454  59.709  38.395  1.00  0.00    -0.391 OA
ATOM     19  H5  UNL     1      73.643  59.723  39.327  1.00  0.00     0.210 HD
ENDBRANCH   5  18
BRANCH   3  20
HETATM   20  O3  UNL     1      77.458  57.492  37.695  1.00  0.00    -0.390 OA
ATOM     21  H3  UNL     1      77.288  57.006  38.493  1.00  0.00     0.210 HD
ENDBRANCH   3  20
BRANCH   4  22
HETATM   22  O4  UNL     1      75.626  59.378  39.672  1.00  0.00    -0.390 OA
ATOM     23  H4  UNL     1      75.754  58.875  40.467  1.00  0.00     0.210 HD
ENDBRANCH   4  22
TORSDOF 7
ENDMDL
