MODEL 1
REMARK VINA RESULT: -5.825262154      0.000      0.000
REMARK  5 active torsions:
REMARK  status: ('A' for Active; 'I' for Inactive)
REMARK    1  A    between atoms: C1_2  and  C2_4 
REMARK    2  A    between atoms: C3_5  and  O3_6 
REMARK    3  A    between atoms: C4_8  and  O4_9 
REMARK    4  A    between atoms: C5_12  and  S1_13 
REMARK    5  A    between atoms: C6_15  and  O6_16 
ROOT
HETATM    1  C2  UNL     1      73.310  54.779  35.163  1.00  0.00     0.152 C 
HETATM    2  C3  UNL     1      73.230  54.545  33.690  1.00  0.00     0.190 C 
HETATM    3  C4  UNL     1      73.645  55.657  32.826  1.00  0.00     0.288 C 
HETATM    4  O5  UNL     1      74.345  56.678  33.348  1.00  0.00    -0.340 OA
HETATM    5  C5  UNL     1      74.246  56.933  34.673  1.00  0.00     0.227 C 
HETATM    6  C6  UNL     1      74.525  55.651  35.439  1.00  0.00     0.175 C 
ENDROOT
BRANCH   1   7
HETATM    7  C1  UNL     1      72.054  55.425  35.622  1.00  0.00     0.182 C 
HETATM    8  O1  UNL     1      71.878  55.774  36.818  1.00  0.00    -0.648 OA
HETATM    9  O2  UNL     1      71.024  55.661  34.723  1.00  0.00    -0.648 OA
ENDBRANCH   1   7
BRANCH   2  10
HETATM   10  O3  UNL     1      73.993  53.383  33.418  1.00  0.00    -0.390 OA
ATOM     11  H3  UNL     1      73.395  52.743  33.051  1.00  0.00     0.210 HD
ENDBRANCH   2  10
BRANCH   6  12
HETATM   12  O6  UNL     1      74.743  55.863  36.778  1.00  0.00    -0.391 OA
ATOM     13  H6  UNL     1      74.391  56.689  37.087  1.00  0.00     0.210 HD
ENDBRANCH   6  12
BRANCH   3  14
HETATM   14  O4  UNL     1      72.493  56.187  32.196  1.00  0.00    -0.369 OA
ATOM     15  H4  UNL     1      72.347  57.066  32.526  1.00  0.00     0.212 HD
ENDBRANCH   3  14
BRANCH   5  16
HETATM   16  S1  UNL     1      75.485  58.210  35.098  1.00  0.00    -0.050 SA
HETATM   17  S2  UNL     1      77.446  57.424  34.993  1.00  0.00    -0.011 SA
ENDBRANCH   5  16
TORSDOF 5
ENDMDL
MODEL 2
REMARK VINA RESULT: -5.782385122      3.784      5.484
REMARK  5 active torsions:
REMARK  status: ('A' for Active; 'I' for Inactive)
REMARK    1  A    between atoms: C1_2  and  C2_4 
REMARK    2  A    between atoms: C3_5  and  O3_6 
REMARK    3  A    between atoms: C4_8  and  O4_9 
REMARK    4  A    between atoms: C5_12  and  S1_13 
REMARK    5  A    between atoms: C6_15  and  O6_16 
ROOT
HETATM    1  C2  UNL     1      76.181  57.911  37.757  1.00  0.00     0.152 C 
HETATM    2  C3  UNL     1      75.911  59.318  38.176  1.00  0.00     0.190 C 
HETATM    3  C4  UNL     1      74.817  60.011  37.485  1.00  0.00     0.288 C 
HETATM    4  O5  UNL     1      73.932  59.301  36.764  1.00  0.00    -0.340 OA
HETATM    5  C5  UNL     1      74.300  58.093  36.277  1.00  0.00     0.227 C 
HETATM    6  C6  UNL     1      74.851  57.255  37.418  1.00  0.00     0.175 C 
ENDROOT
BRANCH   1   7
HETATM    7  C1  UNL     1      77.102  57.918  36.592  1.00  0.00     0.182 C 
HETATM    8  O1  UNL     1      77.657  58.971  36.182  1.00  0.00    -0.648 OA
HETATM    9  O2  UNL     1      77.377  56.739  35.915  1.00  0.00    -0.648 OA
ENDBRANCH   1   7
BRANCH   2  10
HETATM   10  O3  UNL     1      75.689  59.294  39.574  1.00  0.00    -0.390 OA
ATOM     11  H3  UNL     1      75.127  60.032  39.776  1.00  0.00     0.210 HD
ENDBRANCH   2  10
BRANCH   6  12
HETATM   12  O6  UNL     1      74.973  55.925  37.096  1.00  0.00    -0.391 OA
ATOM     13  H6  UNL     1      75.423  55.421  37.764  1.00  0.00     0.210 HD
ENDBRANCH   6  12
BRANCH   3  14
HETATM   14  O4  UNL     1      75.375  61.005  36.645  1.00  0.00    -0.369 OA
ATOM     15  H4  UNL     1      75.714  60.583  35.865  1.00  0.00     0.212 HD
ENDBRANCH   3  14
BRANCH   5  16
HETATM   16  S1  UNL     1      72.818  57.296  35.560  1.00  0.00    -0.050 SA
HETATM   17  S2  UNL     1      73.314  56.215  33.812  1.00  0.00    -0.011 SA
ENDBRANCH   5  16
TORSDOF 5
ENDMDL
MODEL 3
REMARK VINA RESULT: -5.666218645      2.365      3.723
REMARK  5 active torsions:
REMARK  status: ('A' for Active; 'I' for Inactive)
REMARK    1  A    between atoms: C1_2  and  C2_4 
REMARK    2  A    between atoms: C3_5  and  O3_6 
REMARK    3  A    between atoms: C4_8  and  O4_9 
REMARK    4  A    between atoms: C5_12  and  S1_13 
REMARK    5  A    between atoms: C6_15  and  O6_16 
ROOT
HETATM    1  C2  UNL     1      74.041  55.378  33.697  1.00  0.00     0.152 C 
HETATM    2  C3  UNL     1      73.203  54.468  34.533  1.00  0.00     0.190 C 
HETATM    3  C4  UNL     1      71.908  54.994  34.979  1.00  0.00     0.288 C 
HETATM    4  O5  UNL     1      71.399  56.092  34.394  1.00  0.00    -0.340 OA
HETATM    5  C5  UNL     1      72.240  56.961  33.786  1.00  0.00     0.227 C 
HETATM    6  C6  UNL     1      73.113  56.193  32.810  1.00  0.00     0.175 C 
ENDROOT
BRANCH   1   7
HETATM    7  C1  UNL     1      74.854  56.247  34.587  1.00  0.00     0.182 C 
HETATM    8  O1  UNL     1      74.878  56.092  35.836  1.00  0.00    -0.648 OA
HETATM    9  O2  UNL     1      75.619  57.271  34.049  1.00  0.00    -0.648 OA
ENDBRANCH   1   7
BRANCH   2  10
HETATM   10  O3  UNL     1      73.035  53.272  33.794  1.00  0.00    -0.390 OA
ATOM     11  H3  UNL     1      72.362  53.442  33.146  1.00  0.00     0.210 HD
ENDBRANCH   2  10
BRANCH   6  12
HETATM   12  O6  UNL     1      73.786  57.010  31.934  1.00  0.00    -0.391 OA
ATOM     13  H6  UNL     1      73.585  56.827  31.024  1.00  0.00     0.210 HD
ENDBRANCH   6  12
BRANCH   3  14
HETATM   14  O4  UNL     1      71.976  55.228  36.374  1.00  0.00    -0.369 OA
ATOM     15  H4  UNL     1      71.390  54.621  36.810  1.00  0.00     0.212 HD
ENDBRANCH   3  14
BRANCH   5  16
HETATM   16  S1  UNL     1      71.229  58.199  32.898  1.00  0.00    -0.050 SA
HETATM   17  S2  UNL     1      71.311  60.078  33.866  1.00  0.00    -0.011 SA
ENDBRANCH   5  16
TORSDOF 5
ENDMDL
MODEL 4
REMARK VINA RESULT: -5.662603796      0.883      1.562
REMARK  5 active torsions:
REMARK  status: ('A' for Active; 'I' for Inactive)
REMARK    1  A    between atoms: C1_2  and  C2_4 
REMARK    2  A    between atoms: C3_5  and  O3_6 
REMARK    3  A    between atoms: C4_8  and  O4_9 
REMARK    4  A    between atoms: C5_12  and  S1_13 
REMARK    5  A    between atoms: C6_15  and  O6_16 
ROOT
HETATM    1  C2  UNL     1      73.397  54.973  35.008  1.00  0.00     0.152 C 
HETATM    2  C3  UNL     1      73.351  54.826  33.523  1.00  0.00     0.190 C 
HETATM    3  C4  UNL     1      73.538  56.051  32.736  1.00  0.00     0.288 C 
HETATM    4  O5  UNL     1      74.035  57.151  33.328  1.00  0.00    -0.340 OA
HETATM    5  C5  UNL     1      73.900  57.295  34.666  1.00  0.00     0.227 C 
HETATM    6  C6  UNL     1      74.424  56.042  35.346  1.00  0.00     0.175 C 
ENDROOT
BRANCH   1   7
HETATM    7  C1  UNL     1      72.044  55.336  35.503  1.00  0.00     0.182 C 
HETATM    8  O1  UNL     1      71.050  55.421  34.736  1.00  0.00    -0.648 OA
HETATM    9  O2  UNL     1      71.843  55.595  36.851  1.00  0.00    -0.648 OA
ENDBRANCH   1   7
BRANCH   2  10
HETATM   10  O3  UNL     1      74.319  53.852  33.178  1.00  0.00    -0.390 OA
ATOM     11  H3  UNL     1      74.147  53.090  33.718  1.00  0.00     0.210 HD
ENDBRANCH   2  10
BRANCH   6  12
HETATM   12  O6  UNL     1      74.609  56.203  36.698  1.00  0.00    -0.391 OA
ATOM     13  H6  UNL     1      74.549  57.109  36.976  1.00  0.00     0.210 HD
ENDBRANCH   6  12
BRANCH   3  14
HETATM   14  O4  UNL     1      72.301  56.392  32.137  1.00  0.00    -0.369 OA
ATOM     15  H4  UNL     1      72.432  57.158  31.592  1.00  0.00     0.212 HD
ENDBRANCH   3  14
BRANCH   5  16
HETATM   16  S1  UNL     1      74.875  58.754  35.180  1.00  0.00    -0.050 SA
HETATM   17  S2  UNL     1      73.883  59.825  36.711  1.00  0.00    -0.011 SA
ENDBRANCH   5  16
TORSDOF 5
ENDMDL
MODEL 5
REMARK VINA RESULT: -5.612578097      3.185      4.378
REMARK  5 active torsions:
REMARK  status: ('A' for Active; 'I' for Inactive)
REMARK    1  A    between atoms: C1_2  and  C2_4 
REMARK    2  A    between atoms: C3_5  and  O3_6 
REMARK    3  A    between atoms: C4_8  and  O4_9 
REMARK    4  A    between atoms: C5_12  and  S1_13 
REMARK    5  A    between atoms: C6_15  and  O6_16 
ROOT
HETATM    1  C2  UNL     1      75.248  57.371  37.520  1.00  0.00     0.152 C 
HETATM    2  C3  UNL     1      76.505  57.413  36.717  1.00  0.00     0.190 C 
HETATM    3  C4  UNL     1      76.620  58.496  35.734  1.00  0.00     0.288 C 
HETATM    4  O5  UNL     1      75.783  59.546  35.801  1.00  0.00    -0.340 OA
HETATM    5  C5  UNL     1      74.584  59.392  36.410  1.00  0.00     0.227 C 
HETATM    6  C6  UNL     1      74.810  58.802  37.791  1.00  0.00     0.175 C 
ENDROOT
BRANCH   1   7
HETATM    7  C1  UNL     1      74.214  56.614  36.768  1.00  0.00     0.182 C 
HETATM    8  O1  UNL     1      73.014  56.564  37.143  1.00  0.00    -0.648 OA
HETATM    9  O2  UNL     1      74.558  55.929  35.611  1.00  0.00    -0.648 OA
ENDBRANCH   1   7
BRANCH   2  10
HETATM   10  O3  UNL     1      77.579  57.452  37.639  1.00  0.00    -0.390 OA
ATOM     11  H3  UNL     1      78.377  57.342  37.135  1.00  0.00     0.210 HD
ENDBRANCH   2  10
BRANCH   6  12
HETATM   12  O6  UNL     1      73.702  58.883  38.597  1.00  0.00    -0.391 OA
ATOM     13  H6  UNL     1      73.868  59.341  39.413  1.00  0.00     0.210 HD
ENDBRANCH   6  12
BRANCH   3  14
HETATM   14  O4  UNL     1      76.522  57.937  34.436  1.00  0.00    -0.369 OA
ATOM     15  H4  UNL     1      76.374  57.003  34.523  1.00  0.00     0.212 HD
ENDBRANCH   3  14
BRANCH   5  16
HETATM   16  S1  UNL     1      73.800  61.039  36.543  1.00  0.00    -0.050 SA
HETATM   17  S2  UNL     1      75.061  62.396  37.563  1.00  0.00    -0.011 SA
ENDBRANCH   5  16
TORSDOF 5
ENDMDL
