MODEL 1
REMARK VINA RESULT: -5.456010450      0.000      0.000
REMARK  4 active torsions:
REMARK  status: ('A' for Active; 'I' for Inactive)
REMARK    1  A    between atoms: C2_2  and  N1_4 
REMARK    2  A    between atoms: N1_4  and  C4_6 
REMARK    3  A    between atoms: C4_6  and  C5_7 
REMARK    4  A    between atoms: C9_11  and  N2_12 
ROOT
HETATM    1  C5  UNL     1     -21.922  15.430  10.139  1.00  0.00     0.025 C 
HETATM    2  C6  UNL     1     -21.274  14.315   9.407  1.00  0.00     0.010 C 
HETATM    3  C7  UNL     1     -22.034  13.123   9.050  1.00  0.00     0.003 C 
HETATM    4  C8  UNL     1     -23.307  12.834   9.736  1.00  0.00     0.033 C 
HETATM    5  C9  UNL     1     -23.829  13.855  10.667  1.00  0.00     0.184 C 
HETATM    6  C10 UNL     1     -23.356  15.242  10.492  1.00  0.00     0.042 C 
ENDROOT
BRANCH   1   7
HETATM    7  C4  UNL     1     -21.862  16.751   9.354  1.00  0.00     0.060 C 
BRANCH   7   8
HETATM    8  N1  UNL     1     -20.784  16.904   8.499  1.00  0.00    -0.398 N 
ATOM      9  H1  UNL     1     -19.855  16.644   8.831  1.00  0.00     0.159 HD
BRANCH   8  10
HETATM   10  C2  UNL     1     -20.918  17.400   7.199  1.00  0.00     0.072 C 
HETATM   11  C1  UNL     1     -21.499  18.793   7.073  1.00  0.00     0.031 C 
HETATM   12  C3  UNL     1     -21.912  16.475   6.475  1.00  0.00     0.031 C 
ENDBRANCH   8  10
ENDBRANCH   7   8
ENDBRANCH   1   7
BRANCH   5  13
HETATM   13  N2  UNL     1     -25.302  13.919  10.565  1.00  0.00    -0.075 N 
ATOM     14  H23 UNL     1     -25.636  13.635   9.644  1.00  0.00     0.274 HD
ATOM     15  H22 UNL     1     -25.756  13.191  11.117  1.00  0.00     0.274 HD
ATOM     16  H21 UNL     1     -25.625  14.852  10.820  1.00  0.00     0.274 HD
ENDBRANCH   5  13
TORSDOF 4
ENDMDL
MODEL 2
REMARK VINA RESULT: -5.228521475      1.078      1.318
REMARK  4 active torsions:
REMARK  status: ('A' for Active; 'I' for Inactive)
REMARK    1  A    between atoms: C2_2  and  N1_4 
REMARK    2  A    between atoms: N1_4  and  C4_6 
REMARK    3  A    between atoms: C4_6  and  C5_7 
REMARK    4  A    between atoms: C9_11  and  N2_12 
ROOT
HETATM    1  C5  UNL     1     -22.368  15.677  10.345  1.00  0.00     0.025 C 
HETATM    2  C6  UNL     1     -22.533  14.389   9.628  1.00  0.00     0.010 C 
HETATM    3  C7  UNL     1     -23.806  13.679   9.665  1.00  0.00     0.003 C 
HETATM    4  C8  UNL     1     -24.796  14.006  10.708  1.00  0.00     0.033 C 
HETATM    5  C9  UNL     1     -24.504  15.152  11.592  1.00  0.00     0.184 C 
HETATM    6  C10 UNL     1     -23.553  16.167  11.100  1.00  0.00     0.042 C 
ENDROOT
BRANCH   1   7
HETATM    7  C4  UNL     1     -21.983  16.824   9.396  1.00  0.00     0.060 C 
BRANCH   7   8
HETATM    8  N1  UNL     1     -20.947  16.564   8.514  1.00  0.00    -0.398 N 
ATOM      9  H1  UNL     1     -20.167  15.988   8.832  1.00  0.00     0.159 HD
BRANCH   8  10
HETATM   10  C2  UNL     1     -20.926  17.061   7.208  1.00  0.00     0.072 C 
HETATM   11  C1  UNL     1     -21.321  18.513   7.040  1.00  0.00     0.031 C 
HETATM   12  C3  UNL     1     -21.973  16.258   6.416  1.00  0.00     0.031 C 
ENDBRANCH   8  10
ENDBRANCH   7   8
ENDBRANCH   1   7
BRANCH   5  13
HETATM   13  N2  UNL     1     -25.752  15.885  11.891  1.00  0.00    -0.075 N 
ATOM     14  H23 UNL     1     -25.991  16.551  11.157  1.00  0.00     0.274 HD
ATOM     15  H22 UNL     1     -26.575  15.286  11.820  1.00  0.00     0.274 HD
ATOM     16  H21 UNL     1     -25.680  16.331  12.806  1.00  0.00     0.274 HD
ENDBRANCH   5  13
TORSDOF 4
ENDMDL
MODEL 3
REMARK VINA RESULT: -5.203181905      2.000      5.345
REMARK  4 active torsions:
REMARK  status: ('A' for Active; 'I' for Inactive)
REMARK    1  A    between atoms: C2_2  and  N1_4 
REMARK    2  A    between atoms: N1_4  and  C4_6 
REMARK    3  A    between atoms: C4_6  and  C5_7 
REMARK    4  A    between atoms: C9_11  and  N2_12 
ROOT
HETATM    1  C5  UNL     1     -21.888  16.764   7.256  1.00  0.00     0.025 C 
HETATM    2  C6  UNL     1     -22.244  16.429   5.856  1.00  0.00     0.010 C 
HETATM    3  C7  UNL     1     -21.561  17.078   4.743  1.00  0.00     0.003 C 
HETATM    4  C8  UNL     1     -20.813  18.329   4.972  1.00  0.00     0.033 C 
HETATM    5  C9  UNL     1     -20.673  18.795   6.366  1.00  0.00     0.184 C 
HETATM    6  C10 UNL     1     -20.830  17.793   7.439  1.00  0.00     0.042 C 
ENDROOT
BRANCH   1   7
HETATM    7  C4  UNL     1     -21.404  15.533   8.040  1.00  0.00     0.060 C 
BRANCH   7   8
HETATM    8  N1  UNL     1     -22.280  15.028   8.986  1.00  0.00    -0.398 N 
ATOM      9  H1  UNL     1     -22.998  14.367   8.685  1.00  0.00     0.159 HD
BRANCH   8  10
HETATM   10  C2  UNL     1     -22.222  15.386  10.335  1.00  0.00     0.072 C 
HETATM   11  C1  UNL     1     -23.010  16.617  10.734  1.00  0.00     0.031 C 
HETATM   12  C3  UNL     1     -20.752  15.728  10.636  1.00  0.00     0.031 C 
ENDBRANCH   8  10
ENDBRANCH   7   8
ENDBRANCH   1   7
BRANCH   5  13
HETATM   13  N2  UNL     1     -19.333  19.387   6.564  1.00  0.00    -0.075 N 
ATOM     14  H23 UNL     1     -18.600  18.833   6.122  1.00  0.00     0.274 HD
ATOM     15  H22 UNL     1     -19.211  20.247   6.030  1.00  0.00     0.274 HD
ATOM     16  H21 UNL     1     -19.161  19.526   7.560  1.00  0.00     0.274 HD
ENDBRANCH   5  13
TORSDOF 4
ENDMDL
MODEL 4
REMARK VINA RESULT: -5.149529876      2.029      2.788
REMARK  4 active torsions:
REMARK  status: ('A' for Active; 'I' for Inactive)
REMARK    1  A    between atoms: C2_2  and  N1_4 
REMARK    2  A    between atoms: N1_4  and  C4_6 
REMARK    3  A    between atoms: C4_6  and  C5_7 
REMARK    4  A    between atoms: C9_11  and  N2_12 
ROOT
HETATM    1  C5  UNL     1     -21.239  16.885   8.409  1.00  0.00     0.025 C 
HETATM    2  C6  UNL     1     -21.725  15.500   8.190  1.00  0.00     0.010 C 
HETATM    3  C7  UNL     1     -22.803  14.956   9.008  1.00  0.00     0.003 C 
HETATM    4  C8  UNL     1     -23.145  15.601  10.290  1.00  0.00     0.033 C 
HETATM    5  C9  UNL     1     -22.465  16.868  10.621  1.00  0.00     0.184 C 
HETATM    6  C10 UNL     1     -21.896  17.648   9.505  1.00  0.00     0.042 C 
ENDROOT
BRANCH   1   7
HETATM    7  C4  UNL     1     -21.390  17.757   7.152  1.00  0.00     0.060 C 
BRANCH   7   8
HETATM    8  N1  UNL     1     -20.565  17.441   6.086  1.00  0.00    -0.398 N 
ATOM      9  H1  UNL     1     -19.555  17.527   6.207  1.00  0.00     0.159 HD
BRANCH   8  10
HETATM   10  C2  UNL     1     -21.059  17.009   4.852  1.00  0.00     0.072 C 
HETATM   11  C1  UNL     1     -20.773  17.909   3.668  1.00  0.00     0.031 C 
HETATM   12  C3  UNL     1     -22.592  16.976   4.980  1.00  0.00     0.031 C 
ENDBRANCH   8  10
ENDBRANCH   7   8
ENDBRANCH   1   7
BRANCH   5  13
HETATM   13  N2  UNL     1     -23.406  17.778  11.306  1.00  0.00    -0.075 N 
ATOM     14  H23 UNL     1     -23.232  18.756  11.075  1.00  0.00     0.274 HD
ATOM     15  H22 UNL     1     -24.352  17.705  10.932  1.00  0.00     0.274 HD
ATOM     16  H21 UNL     1     -23.378  17.611  12.312  1.00  0.00     0.274 HD
ENDBRANCH   5  13
TORSDOF 4
ENDMDL
MODEL 5
REMARK VINA RESULT: -5.139317406      1.469      2.663
REMARK  4 active torsions:
REMARK  status: ('A' for Active; 'I' for Inactive)
REMARK    1  A    between atoms: C2_2  and  N1_4 
REMARK    2  A    between atoms: N1_4  and  C4_6 
REMARK    3  A    between atoms: C4_6  and  C5_7 
REMARK    4  A    between atoms: C9_11  and  N2_12 
ROOT
HETATM    1  C5  UNL     1     -22.700  16.388   9.975  1.00  0.00     0.025 C 
HETATM    2  C6  UNL     1     -23.190  17.528  10.788  1.00  0.00     0.010 C 
HETATM    3  C7  UNL     1     -24.158  17.312  11.858  1.00  0.00     0.003 C 
HETATM    4  C8  UNL     1     -24.946  16.066  11.892  1.00  0.00     0.033 C 
HETATM    5  C9  UNL     1     -24.613  15.020  10.905  1.00  0.00     0.184 C 
HETATM    6  C10 UNL     1     -23.264  15.051  10.307  1.00  0.00     0.042 C 
ENDROOT
BRANCH   1   7
HETATM    7  C4  UNL     1     -21.174  16.225  10.069  1.00  0.00     0.060 C 
BRANCH   7   8
HETATM    8  N1  UNL     1     -20.448  16.627   8.961  1.00  0.00    -0.398 N 
ATOM      9  H1  UNL     1     -19.429  16.621   9.015  1.00  0.00     0.159 HD
BRANCH   8  10
HETATM   10  C2  UNL     1     -21.053  17.043   7.773  1.00  0.00     0.072 C 
HETATM   11  C1  UNL     1     -21.250  15.976   6.716  1.00  0.00     0.031 C 
HETATM   12  C3  UNL     1     -20.110  18.079   7.138  1.00  0.00     0.031 C 
ENDBRANCH   8  10
ENDBRANCH   7   8
ENDBRANCH   1   7
BRANCH   5  13
HETATM   13  N2  UNL     1     -24.745  13.685  11.526  1.00  0.00    -0.075 N 
ATOM     14  H23 UNL     1     -23.901  13.124  11.413  1.00  0.00     0.274 HD
ATOM     15  H22 UNL     1     -24.752  13.735  12.545  1.00  0.00     0.274 HD
ATOM     16  H21 UNL     1     -25.571  13.214  11.159  1.00  0.00     0.274 HD
ENDBRANCH   5  13
TORSDOF 4
ENDMDL
