MODEL 1
REMARK VINA RESULT: -4.959596265      0.000      0.000
REMARK  4 active torsions:
REMARK  status: ('A' for Active; 'I' for Inactive)
REMARK    1  A    between atoms: C2_2  and  C3_3 
REMARK    2  A    between atoms: C2_2  and  C8_10 
REMARK    3  A    between atoms: C3_3  and  N1_4 
REMARK    4  A    between atoms: N1_4  and  C4_6 
ROOT
HETATM    1  C1  UNL     1     -22.151  16.731   9.857  1.00  0.00     0.014 C 
HETATM    2  C2  UNL     1     -20.952  16.334   8.985  1.00  0.00     0.029 C 
ENDROOT
BRANCH   2   3
HETATM    3  C3  UNL     1     -20.919  17.317   7.815  1.00  0.00     0.120 C 
BRANCH   3   4
HETATM    4  N1  UNL     1     -21.115  16.557   6.625  1.00  0.00    -0.413 N 
ATOM      5  H1  UNL     1     -20.820  15.584   6.549  1.00  0.00     0.153 HD
BRANCH   4   6
HETATM    6  C4  UNL     1     -21.752  17.244   5.539  1.00  0.00     0.014 C 
HETATM    7  C5  UNL     1     -20.823  17.352   4.349  1.00  0.00     0.037 C 
HETATM    8  C6  UNL     1     -22.067  18.650   6.001  1.00  0.00     0.037 C 
HETATM    9  C7  UNL     1     -23.059  16.586   5.136  1.00  0.00     0.037 C 
ENDBRANCH   4   6
ENDBRANCH   3   4
ENDBRANCH   2   3
BRANCH   2  10
HETATM   10  C8  UNL     1     -21.259  14.940   8.511  1.00  0.00     0.192 C 
HETATM   11  C9  UNL     1     -22.460  14.404   9.298  1.00  0.00     0.061 C 
HETATM   12  C10 UNL     1     -21.749  13.074   9.000  1.00  0.00     0.235 C 
HETATM   13  N2  UNL     1     -20.505  13.860   9.061  1.00  0.00    -0.070 N 
ATOM     14  H22 UNL     1     -19.646  13.532   8.620  1.00  0.00     0.277 HD
ATOM     15  H21 UNL     1     -19.982  13.963   9.931  1.00  0.00     0.277 HD
ENDBRANCH   2  10
TORSDOF 4
ENDMDL
MODEL 2
REMARK VINA RESULT: -4.956304641      0.050      1.232
REMARK  4 active torsions:
REMARK  status: ('A' for Active; 'I' for Inactive)
REMARK    1  A    between atoms: C2_2  and  C3_3 
REMARK    2  A    between atoms: C2_2  and  C8_10 
REMARK    3  A    between atoms: C3_3  and  N1_4 
REMARK    4  A    between atoms: N1_4  and  C4_6 
ROOT
HETATM    1  C1  UNL     1     -22.114  16.692   9.863  1.00  0.00     0.014 C 
HETATM    2  C2  UNL     1     -20.924  16.295   8.980  1.00  0.00     0.029 C 
ENDROOT
BRANCH   2   3
HETATM    3  C3  UNL     1     -20.887  17.293   7.821  1.00  0.00     0.120 C 
BRANCH   3   4
HETATM    4  N1  UNL     1     -21.134  16.555   6.626  1.00  0.00    -0.413 N 
ATOM      5  H1  UNL     1     -20.906  15.565   6.545  1.00  0.00     0.153 HD
BRANCH   4   6
HETATM    6  C4  UNL     1     -21.722  17.291   5.545  1.00  0.00     0.014 C 
HETATM    7  C5  UNL     1     -22.093  18.691   5.984  1.00  0.00     0.037 C 
HETATM    8  C6  UNL     1     -23.000  16.584   5.145  1.00  0.00     0.037 C 
HETATM    9  C7  UNL     1     -20.818  17.337   4.327  1.00  0.00     0.037 C 
ENDBRANCH   4   6
ENDBRANCH   3   4
ENDBRANCH   2   3
BRANCH   2  10
HETATM   10  C8  UNL     1     -21.247  14.910   8.490  1.00  0.00     0.192 C 
HETATM   11  C9  UNL     1     -22.431  14.365   9.295  1.00  0.00     0.061 C 
HETATM   12  C10 UNL     1     -21.733  13.038   8.958  1.00  0.00     0.235 C 
HETATM   13  N2  UNL     1     -20.484  13.818   9.004  1.00  0.00    -0.070 N 
ATOM     14  H22 UNL     1     -19.637  13.495   8.538  1.00  0.00     0.277 HD
ATOM     15  H21 UNL     1     -19.941  13.905   9.863  1.00  0.00     0.277 HD
ENDBRANCH   2  10
TORSDOF 4
ENDMDL
MODEL 3
REMARK VINA RESULT: -4.949851266      0.047      1.230
REMARK  4 active torsions:
REMARK  status: ('A' for Active; 'I' for Inactive)
REMARK    1  A    between atoms: C2_2  and  C3_3 
REMARK    2  A    between atoms: C2_2  and  C8_10 
REMARK    3  A    between atoms: C3_3  and  N1_4 
REMARK    4  A    between atoms: N1_4  and  C4_6 
ROOT
HETATM    1  C1  UNL     1     -22.099  16.738   9.885  1.00  0.00     0.014 C 
HETATM    2  C2  UNL     1     -20.921  16.319   8.995  1.00  0.00     0.029 C 
ENDROOT
BRANCH   2   3
HETATM    3  C3  UNL     1     -20.879  17.311   7.831  1.00  0.00     0.120 C 
BRANCH   3   4
HETATM    4  N1  UNL     1     -21.135  16.568   6.641  1.00  0.00    -0.413 N 
ATOM      5  H1  UNL     1     -20.874  15.587   6.549  1.00  0.00     0.153 HD
BRANCH   4   6
HETATM    6  C4  UNL     1     -21.780  17.285   5.580  1.00  0.00     0.014 C 
HETATM    7  C5  UNL     1     -23.036  16.570   5.131  1.00  0.00     0.037 C 
HETATM    8  C6  UNL     1     -20.830  17.323   4.401  1.00  0.00     0.037 C 
HETATM    9  C7  UNL     1     -22.093  18.719   5.967  1.00  0.00     0.037 C 
ENDBRANCH   4   6
ENDBRANCH   3   4
ENDBRANCH   2   3
BRANCH   2  10
HETATM   10  C8  UNL     1     -21.266  14.937   8.515  1.00  0.00     0.192 C 
HETATM   11  C9  UNL     1     -22.473  14.425   9.307  1.00  0.00     0.061 C 
HETATM   12  C10 UNL     1     -21.798  13.080   8.996  1.00  0.00     0.235 C 
HETATM   13  N2  UNL     1     -20.534  13.835   9.053  1.00  0.00    -0.070 N 
ATOM     14  H22 UNL     1     -19.687  13.488   8.604  1.00  0.00     0.277 HD
ATOM     15  H21 UNL     1     -20.003  13.920   9.920  1.00  0.00     0.277 HD
ENDBRANCH   2  10
TORSDOF 4
ENDMDL
MODEL 4
REMARK VINA RESULT: -4.935593617      2.911      4.590
REMARK  4 active torsions:
REMARK  status: ('A' for Active; 'I' for Inactive)
REMARK    1  A    between atoms: C2_2  and  C3_3 
REMARK    2  A    between atoms: C2_2  and  C8_10 
REMARK    3  A    between atoms: C3_3  and  N1_4 
REMARK    4  A    between atoms: N1_4  and  C4_6 
ROOT
HETATM    1  C1  UNL     1     -22.085  17.094   9.990  1.00  0.00     0.014 C 
HETATM    2  C2  UNL     1     -21.085  16.111   9.367  1.00  0.00     0.029 C 
ENDROOT
BRANCH   2   3
HETATM    3  C3  UNL     1     -21.912  14.996   8.725  1.00  0.00     0.120 C 
BRANCH   3   4
HETATM    4  N1  UNL     1     -23.206  15.039   9.322  1.00  0.00    -0.413 N 
ATOM      5  H1  UNL     1     -23.776  15.885   9.318  1.00  0.00     0.153 HD
BRANCH   4   6
HETATM    6  C4  UNL     1     -23.659  13.821   9.927  1.00  0.00     0.014 C 
HETATM    7  C5  UNL     1     -22.723  12.676   9.603  1.00  0.00     0.037 C 
HETATM    8  C6  UNL     1     -25.012  13.485   9.337  1.00  0.00     0.037 C 
HETATM    9  C7  UNL     1     -23.831  13.959  11.429  1.00  0.00     0.037 C 
ENDBRANCH   4   6
ENDBRANCH   3   4
ENDBRANCH   2   3
BRANCH   2  10
HETATM   10  C8  UNL     1     -20.278  15.589  10.522  1.00  0.00     0.192 C 
HETATM   11  C9  UNL     1     -19.374  16.712  11.042  1.00  0.00     0.061 C 
HETATM   12  C10 UNL     1     -18.507  15.503  11.426  1.00  0.00     0.235 C 
HETATM   13  N2  UNL     1     -19.086  14.857  10.235  1.00  0.00    -0.070 N 
ATOM     14  H22 UNL     1     -19.096  13.843  10.132  1.00  0.00     0.277 HD
ATOM     15  H21 UNL     1     -18.631  14.914   9.324  1.00  0.00     0.277 HD
ENDBRANCH   2  10
TORSDOF 4
ENDMDL
MODEL 5
REMARK VINA RESULT: -4.815126121      1.719      4.779
REMARK  4 active torsions:
REMARK  status: ('A' for Active; 'I' for Inactive)
REMARK    1  A    between atoms: C2_2  and  C3_3 
REMARK    2  A    between atoms: C2_2  and  C8_10 
REMARK    3  A    between atoms: C3_3  and  N1_4 
REMARK    4  A    between atoms: N1_4  and  C4_6 
ROOT
HETATM    1  C1  UNL     1     -22.492  16.396   5.900  1.00  0.00     0.014 C 
HETATM    2  C2  UNL     1     -21.156  16.323   6.650  1.00  0.00     0.029 C 
ENDROOT
BRANCH   2   3
HETATM    3  C3  UNL     1     -21.375  15.393   7.843  1.00  0.00     0.120 C 
BRANCH   3   4
HETATM    4  N1  UNL     1     -22.502  15.891   8.560  1.00  0.00    -0.413 N 
ATOM      5  H1  UNL     1     -23.356  16.188   8.088  1.00  0.00     0.153 HD
BRANCH   4   6
HETATM    6  C4  UNL     1     -22.364  15.951   9.986  1.00  0.00     0.014 C 
HETATM    7  C5  UNL     1     -23.455  15.153  10.668  1.00  0.00     0.037 C 
HETATM    8  C6  UNL     1     -22.522  17.396  10.408  1.00  0.00     0.037 C 
HETATM    9  C7  UNL     1     -20.995  15.482  10.446  1.00  0.00     0.037 C 
ENDBRANCH   4   6
ENDBRANCH   3   4
ENDBRANCH   2   3
BRANCH   2  10
HETATM   10  C8  UNL     1     -20.885  17.731   7.104  1.00  0.00     0.192 C 
HETATM   11  C9  UNL     1     -21.133  18.685   5.931  1.00  0.00     0.061 C 
HETATM   12  C10 UNL     1     -20.071  19.499   6.688  1.00  0.00     0.235 C 
HETATM   13  N2  UNL     1     -19.534  18.191   7.103  1.00  0.00    -0.070 N 
ATOM     14  H22 UNL     1     -18.939  18.097   7.926  1.00  0.00     0.277 HD
ATOM     15  H21 UNL     1     -18.809  17.717   6.563  1.00  0.00     0.277 HD
ENDBRANCH   2  10
TORSDOF 4
ENDMDL
