MODEL 1
REMARK VINA RESULT: -5.269472791      0.000      0.000
REMARK  4 active torsions:
REMARK  status: ('A' for Active; 'I' for Inactive)
REMARK    1  A    between atoms: O1_2  and  C2_3 
REMARK    2  A    between atoms: C2_3  and  C3_4 
REMARK    3  A    between atoms: C5_6  and  N1_7 
REMARK    4  A    between atoms: N1_7  and  C6_10 
ROOT
HETATM    1  N1  UNL     1     -20.967  15.220   8.265  1.00  0.00    -0.066 N 
ATOM      2  H11 UNL     1     -20.094  15.725   8.419  1.00  0.00     0.278 HD
ATOM      3  H12 UNL     1     -20.597  14.375   7.829  1.00  0.00     0.278 HD
ENDROOT
BRANCH   1   4
HETATM    4  C5  UNL     1     -21.812  15.932   7.357  1.00  0.00     0.193 A 
HETATM    5  C3  UNL     1     -21.384  16.393   6.035  1.00  0.00     0.042 A 
HETATM    6  C4  UNL     1     -21.422  17.392   7.184  1.00  0.00     0.042 A 
BRANCH   5   7
HETATM    7  C2  UNL     1     -22.398  16.711   4.968  1.00  0.00     0.173 C 
BRANCH   7   8
HETATM    8  O1  UNL     1     -23.232  15.671   4.641  1.00  0.00    -0.396 OA
HETATM    9  C1  UNL     1     -23.992  15.836   3.514  1.00  0.00     0.201 C 
ENDBRANCH   7   8
ENDBRANCH   5   7
ENDBRANCH   1   4
BRANCH   1  10
HETATM   10  C6  UNL     1     -21.610  14.910   9.520  1.00  0.00     0.186 C 
HETATM   11  C7  UNL     1     -21.473  16.004  10.537  1.00  0.00     0.033 C 
HETATM   12  C8  UNL     1     -22.887  16.530  10.719  1.00  0.00     0.002 C 
HETATM   13  C9  UNL     1     -23.693  15.241  10.589  1.00  0.00     0.002 C 
HETATM   14  C10 UNL     1     -23.073  14.655   9.315  1.00  0.00     0.033 C 
ENDBRANCH   1  10
TORSDOF 4
ENDMDL
MODEL 2
REMARK VINA RESULT: -5.259697145      2.996      4.462
REMARK  4 active torsions:
REMARK  status: ('A' for Active; 'I' for Inactive)
REMARK    1  A    between atoms: O1_2  and  C2_3 
REMARK    2  A    between atoms: C2_3  and  C3_4 
REMARK    3  A    between atoms: C5_6  and  N1_7 
REMARK    4  A    between atoms: N1_7  and  C6_10 
ROOT
HETATM    1  N1  UNL     1     -20.662  13.818   9.318  1.00  0.00    -0.066 N 
ATOM      2  H11 UNL     1     -20.004  13.397   8.661  1.00  0.00     0.278 HD
ATOM      3  H12 UNL     1     -20.379  13.337  10.172  1.00  0.00     0.278 HD
ENDROOT
BRANCH   1   4
HETATM    4  C5  UNL     1     -22.008  13.487   8.970  1.00  0.00     0.193 A 
HETATM    5  C3  UNL     1     -23.067  13.238   9.951  1.00  0.00     0.042 A 
HETATM    6  C4  UNL     1     -22.380  12.048   9.293  1.00  0.00     0.042 A 
BRANCH   5   7
HETATM    7  C2  UNL     1     -24.517  13.350   9.560  1.00  0.00     0.173 C 
BRANCH   7   8
HETATM    8  O1  UNL     1     -25.290  14.083  10.425  1.00  0.00    -0.396 OA
HETATM    9  C1  UNL     1     -24.617  14.899  11.295  1.00  0.00     0.201 C 
ENDBRANCH   7   8
ENDBRANCH   5   7
ENDBRANCH   1   4
BRANCH   1  10
HETATM   10  C6  UNL     1     -20.434  15.240   9.430  1.00  0.00     0.186 C 
HETATM   11  C7  UNL     1     -21.140  16.035   8.373  1.00  0.00     0.033 C 
HETATM   12  C8  UNL     1     -22.189  16.829   9.134  1.00  0.00     0.002 C 
HETATM   13  C9  UNL     1     -21.437  17.136  10.425  1.00  0.00     0.002 C 
HETATM   14  C10 UNL     1     -20.892  15.744  10.766  1.00  0.00     0.033 C 
ENDBRANCH   1  10
TORSDOF 4
ENDMDL
MODEL 3
REMARK VINA RESULT: -5.104444284      0.903      1.407
REMARK  4 active torsions:
REMARK  status: ('A' for Active; 'I' for Inactive)
REMARK    1  A    between atoms: O1_2  and  C2_3 
REMARK    2  A    between atoms: C2_3  and  C3_4 
REMARK    3  A    between atoms: C5_6  and  N1_7 
REMARK    4  A    between atoms: N1_7  and  C6_10 
ROOT
HETATM    1  N1  UNL     1     -20.889  15.159   8.381  1.00  0.00    -0.066 N 
ATOM      2  H11 UNL     1     -20.167  15.768   8.767  1.00  0.00     0.278 HD
ATOM      3  H12 UNL     1     -20.304  14.542   7.817  1.00  0.00     0.278 HD
ENDROOT
BRANCH   1   4
HETATM    4  C5  UNL     1     -21.790  15.899   7.555  1.00  0.00     0.193 A 
HETATM    5  C3  UNL     1     -21.484  16.325   6.189  1.00  0.00     0.042 A 
HETATM    6  C4  UNL     1     -21.353  17.337   7.318  1.00  0.00     0.042 A 
BRANCH   5   7
HETATM    7  C2  UNL     1     -22.589  16.679   5.229  1.00  0.00     0.173 C 
BRANCH   7   8
HETATM    8  O1  UNL     1     -23.283  15.604   4.730  1.00  0.00    -0.396 OA
HETATM    9  C1  UNL     1     -24.061  15.843   3.630  1.00  0.00     0.201 C 
ENDBRANCH   7   8
ENDBRANCH   5   7
ENDBRANCH   1   4
BRANCH   1  10
HETATM   10  C6  UNL     1     -21.550  14.419   9.430  1.00  0.00     0.186 C 
HETATM   11  C7  UNL     1     -22.827  15.059   9.887  1.00  0.00     0.033 C 
HETATM   12  C8  UNL     1     -23.914  14.092   9.448  1.00  0.00     0.002 C 
HETATM   13  C9  UNL     1     -23.214  12.753   9.665  1.00  0.00     0.002 C 
HETATM   14  C10 UNL     1     -21.874  13.028   8.971  1.00  0.00     0.033 C 
ENDBRANCH   1  10
TORSDOF 4
ENDMDL
MODEL 4
REMARK VINA RESULT: -5.028380153      2.265      4.761
REMARK  4 active torsions:
REMARK  status: ('A' for Active; 'I' for Inactive)
REMARK    1  A    between atoms: O1_2  and  C2_3 
REMARK    2  A    between atoms: C2_3  and  C3_4 
REMARK    3  A    between atoms: C5_6  and  N1_7 
REMARK    4  A    between atoms: N1_7  and  C6_10 
ROOT
HETATM    1  N1  UNL     1     -21.670  16.579   8.406  1.00  0.00    -0.066 N 
ATOM      2  H11 UNL     1     -21.281  17.001   9.250  1.00  0.00     0.278 HD
ATOM      3  H12 UNL     1     -22.645  16.858   8.513  1.00  0.00     0.278 HD
ENDROOT
BRANCH   1   4
HETATM    4  C5  UNL     1     -21.542  15.156   8.445  1.00  0.00     0.193 A 
HETATM    5  C3  UNL     1     -22.165  14.307   9.463  1.00  0.00     0.042 A 
HETATM    6  C4  UNL     1     -20.689  14.655   9.601  1.00  0.00     0.042 A 
BRANCH   5   7
HETATM    7  C2  UNL     1     -22.385  12.840   9.209  1.00  0.00     0.173 C 
BRANCH   7   8
HETATM    8  O1  UNL     1     -23.700  12.445   9.227  1.00  0.00    -0.396 OA
HETATM    9  C1  UNL     1     -24.603  13.369   9.677  1.00  0.00     0.201 C 
ENDBRANCH   7   8
ENDBRANCH   5   7
ENDBRANCH   1   4
BRANCH   1  10
HETATM   10  C6  UNL     1     -21.093  17.172   7.223  1.00  0.00     0.186 C 
HETATM   11  C7  UNL     1     -21.500  16.479   5.958  1.00  0.00     0.033 C 
HETATM   12  C8  UNL     1     -22.358  17.498   5.227  1.00  0.00     0.002 C 
HETATM   13  C9  UNL     1     -21.639  18.794   5.590  1.00  0.00     0.002 C 
HETATM   14  C10 UNL     1     -21.494  18.613   7.106  1.00  0.00     0.033 C 
ENDBRANCH   1  10
TORSDOF 4
ENDMDL
MODEL 5
REMARK VINA RESULT: -4.990816421      2.615      5.430
REMARK  4 active torsions:
REMARK  status: ('A' for Active; 'I' for Inactive)
REMARK    1  A    between atoms: O1_2  and  C2_3 
REMARK    2  A    between atoms: C2_3  and  C3_4 
REMARK    3  A    between atoms: C5_6  and  N1_7 
REMARK    4  A    between atoms: N1_7  and  C6_10 
ROOT
HETATM    1  N1  UNL     1     -20.282  17.933   6.676  1.00  0.00    -0.066 N 
ATOM      2  H11 UNL     1     -19.626  17.182   6.459  1.00  0.00     0.278 HD
ATOM      3  H12 UNL     1     -19.636  18.607   7.087  1.00  0.00     0.278 HD
ENDROOT
BRANCH   1   4
HETATM    4  C5  UNL     1     -21.246  17.501   7.640  1.00  0.00     0.193 A 
HETATM    5  C3  UNL     1     -20.908  16.773   8.864  1.00  0.00     0.042 A 
HETATM    6  C4  UNL     1     -21.439  15.992   7.670  1.00  0.00     0.042 A 
BRANCH   5   7
HETATM    7  C2  UNL     1     -21.859  16.751  10.031  1.00  0.00     0.173 C 
BRANCH   7   8
HETATM    8  O1  UNL     1     -21.906  17.915  10.757  1.00  0.00    -0.396 OA
HETATM    9  C1  UNL     1     -23.148  18.337  11.146  1.00  0.00     0.201 C 
ENDBRANCH   7   8
ENDBRANCH   5   7
ENDBRANCH   1   4
BRANCH   1  10
HETATM   10  C6  UNL     1     -20.875  18.461   5.471  1.00  0.00     0.186 C 
HETATM   11  C7  UNL     1     -20.978  17.446   4.372  1.00  0.00     0.033 C 
HETATM   12  C8  UNL     1     -22.472  17.223   4.201  1.00  0.00     0.002 C 
HETATM   13  C9  UNL     1     -23.004  18.630   4.454  1.00  0.00     0.002 C 
HETATM   14  C10 UNL     1     -22.256  18.980   5.745  1.00  0.00     0.033 C 
ENDBRANCH   1  10
TORSDOF 4
ENDMDL
