MODEL 1
REMARK VINA RESULT: -5.771812318      0.000      0.000
REMARK  3 active torsions:
REMARK  status: ('A' for Active; 'I' for Inactive)
REMARK    1  A    between atoms: C4_7  and  C5_8 
REMARK    2  A    between atoms: C5_8  and  N2_9 
REMARK    3  A    between atoms: N2_9  and  C6_12 
ROOT
HETATM    1  C1  UNL     1     -24.670  15.032  11.161  1.00  0.00     0.002 C 
HETATM    2  C2  UNL     1     -23.949  13.735  11.299  1.00  0.00     0.027 C 
HETATM    3  C3  UNL     1     -23.648  13.225   9.913  1.00  0.00     0.233 C 
HETATM    4  N1  UNL     1     -22.945  14.316   9.210  1.00  0.00    -0.069 N 
ATOM      5  H11 UNL     1     -23.601  14.985   8.806  1.00  0.00     0.277 HD
ATOM      6  H12 UNL     1     -22.507  13.987   8.349  1.00  0.00     0.277 HD
HETATM    7  C4  UNL     1     -22.008  14.954  10.060  1.00  0.00     0.211 C 
HETATM    8  C9  UNL     1     -22.473  16.210  10.722  1.00  0.00     0.034 C 
HETATM    9  C10 UNL     1     -23.880  16.267  11.141  1.00  0.00     0.002 C 
ENDROOT
BRANCH   7  10
HETATM   10  C5  UNL     1     -20.743  15.299   9.296  1.00  0.00     0.265 C 
BRANCH  10  11
HETATM   11  N2  UNL     1     -19.537  15.067  10.042  1.00  0.00    -0.069 N 
ATOM     12  H22 UNL     1     -19.650  14.346  10.754  1.00  0.00     0.277 HD
ATOM     13  H21 UNL     1     -18.818  14.605   9.486  1.00  0.00     0.277 HD
BRANCH  11  14
HETATM   14  C6  UNL     1     -19.080  16.336  10.602  1.00  0.00     0.186 A 
HETATM   15  C7  UNL     1     -17.632  16.559  10.601  1.00  0.00     0.035 A 
HETATM   16  C8  UNL     1     -18.283  16.164  11.892  1.00  0.00     0.035 A 
ENDBRANCH  11  14
ENDBRANCH  10  11
ENDBRANCH   7  10
TORSDOF 3
ENDMDL
MODEL 2
REMARK VINA RESULT: -5.584469409      1.171      1.719
REMARK  3 active torsions:
REMARK  status: ('A' for Active; 'I' for Inactive)
REMARK    1  A    between atoms: C4_7  and  C5_8 
REMARK    2  A    between atoms: C5_8  and  N2_9 
REMARK    3  A    between atoms: N2_9  and  C6_12 
ROOT
HETATM    1  C1  UNL     1     -23.900  13.175   9.463  1.00  0.00     0.002 C 
HETATM    2  C2  UNL     1     -22.553  12.579   9.687  1.00  0.00     0.027 C 
HETATM    3  C3  UNL     1     -21.605  13.192   8.687  1.00  0.00     0.233 C 
HETATM    4  N1  UNL     1     -21.729  14.654   8.836  1.00  0.00    -0.069 N 
ATOM      5  H11 UNL     1     -22.514  15.021   8.297  1.00  0.00     0.277 HD
ATOM      6  H12 UNL     1     -20.971  15.145   8.363  1.00  0.00     0.277 HD
HETATM    7  C4  UNL     1     -21.818  15.025  10.201  1.00  0.00     0.211 C 
HETATM    8  C9  UNL     1     -23.196  15.249  10.732  1.00  0.00     0.034 C 
HETATM    9  C10 UNL     1     -24.262  14.377  10.221  1.00  0.00     0.002 C 
ENDROOT
BRANCH   7  10
HETATM   10  C5  UNL     1     -21.033  16.297  10.460  1.00  0.00     0.265 C 
BRANCH  10  11
HETATM   11  N2  UNL     1     -19.752  16.329   9.808  1.00  0.00    -0.069 N 
ATOM     12  H22 UNL     1     -19.744  15.798   8.937  1.00  0.00     0.277 HD
ATOM     13  H21 UNL     1     -19.537  17.246   9.416  1.00  0.00     0.277 HD
BRANCH  11  14
HETATM   14  C6  UNL     1     -18.734  15.872  10.750  1.00  0.00     0.186 A 
HETATM   15  C7  UNL     1     -18.459  16.757  11.884  1.00  0.00     0.035 A 
HETATM   16  C8  UNL     1     -17.484  16.749  10.745  1.00  0.00     0.035 A 
ENDBRANCH  11  14
ENDBRANCH  10  11
ENDBRANCH   7  10
TORSDOF 3
ENDMDL
MODEL 3
REMARK VINA RESULT: -5.524508232      1.337      2.298
REMARK  3 active torsions:
REMARK  status: ('A' for Active; 'I' for Inactive)
REMARK    1  A    between atoms: C4_7  and  C5_8 
REMARK    2  A    between atoms: C5_8  and  N2_9 
REMARK    3  A    between atoms: N2_9  and  C6_12 
ROOT
HETATM    1  C1  UNL     1     -22.884  12.450   9.526  1.00  0.00     0.002 C 
HETATM    2  C2  UNL     1     -23.975  13.466   9.551  1.00  0.00     0.027 C 
HETATM    3  C3  UNL     1     -23.799  14.301  10.794  1.00  0.00     0.233 C 
HETATM    4  N1  UNL     1     -22.411  14.801  10.768  1.00  0.00    -0.069 N 
ATOM      5  H11 UNL     1     -21.759  14.116  11.152  1.00  0.00     0.277 HD
ATOM      6  H12 UNL     1     -22.270  15.549  11.447  1.00  0.00     0.277 HD
HETATM    7  C4  UNL     1     -22.035  15.203   9.463  1.00  0.00     0.211 C 
HETATM    8  C9  UNL     1     -21.271  14.199   8.662  1.00  0.00     0.034 C 
HETATM    9  C10 UNL     1     -21.638  12.786   8.831  1.00  0.00     0.002 C 
ENDROOT
BRANCH   7  10
HETATM   10  C5  UNL     1     -21.189  16.462   9.515  1.00  0.00     0.265 C 
BRANCH  10  11
HETATM   11  N2  UNL     1     -20.595  16.706  10.802  1.00  0.00    -0.069 N 
ATOM     12  H22 UNL     1     -20.771  17.652  11.140  1.00  0.00     0.277 HD
ATOM     13  H21 UNL     1     -21.067  16.199  11.551  1.00  0.00     0.277 HD
BRANCH  11  14
HETATM   14  C6  UNL     1     -19.171  16.395  10.728  1.00  0.00     0.186 A 
HETATM   15  C7  UNL     1     -18.646  15.512  11.773  1.00  0.00     0.035 A 
HETATM   16  C8  UNL     1     -18.374  16.981  11.891  1.00  0.00     0.035 A 
ENDBRANCH  11  14
ENDBRANCH  10  11
ENDBRANCH   7  10
TORSDOF 3
ENDMDL
MODEL 4
REMARK VINA RESULT: -5.486451562      2.339      3.751
REMARK  3 active torsions:
REMARK  status: ('A' for Active; 'I' for Inactive)
REMARK    1  A    between atoms: C4_7  and  C5_8 
REMARK    2  A    between atoms: C5_8  and  N2_9 
REMARK    3  A    between atoms: N2_9  and  C6_12 
ROOT
HETATM    1  C1  UNL     1     -22.545  12.315   9.329  1.00  0.00     0.002 C 
HETATM    2  C2  UNL     1     -23.809  13.043   9.634  1.00  0.00     0.027 C 
HETATM    3  C3  UNL     1     -23.619  13.766  10.944  1.00  0.00     0.233 C 
HETATM    4  N1  UNL     1     -22.392  14.572  10.802  1.00  0.00    -0.069 N 
ATOM      5  H11 UNL     1     -21.556  14.022  11.000  1.00  0.00     0.277 HD
ATOM      6  H12 UNL     1     -22.308  15.261  11.550  1.00  0.00     0.277 HD
HETATM    7  C4  UNL     1     -22.323  15.181   9.525  1.00  0.00     0.211 C 
HETATM    8  C9  UNL     1     -21.500  14.467   8.502  1.00  0.00     0.034 C 
HETATM    9  C10 UNL     1     -21.526  12.998   8.526  1.00  0.00     0.002 C 
ENDROOT
BRANCH   7  10
HETATM   10  C5  UNL     1     -21.768  16.589   9.633  1.00  0.00     0.265 C 
BRANCH  10  11
HETATM   11  N2  UNL     1     -22.014  17.210  10.906  1.00  0.00    -0.069 N 
ATOM     12  H22 UNL     1     -22.064  16.534  11.667  1.00  0.00     0.277 HD
ATOM     13  H21 UNL     1     -21.211  17.741  11.242  1.00  0.00     0.277 HD
BRANCH  11  14
HETATM   14  C6  UNL     1     -23.220  18.027  10.804  1.00  0.00     0.186 A 
HETATM   15  C7  UNL     1     -23.447  18.983  11.891  1.00  0.00     0.035 A 
HETATM   16  C8  UNL     1     -24.243  17.713  11.892  1.00  0.00     0.035 A 
ENDBRANCH  11  14
ENDBRANCH  10  11
ENDBRANCH   7  10
TORSDOF 3
ENDMDL
MODEL 5
REMARK VINA RESULT: -5.367376404      2.101      3.259
REMARK  3 active torsions:
REMARK  status: ('A' for Active; 'I' for Inactive)
REMARK    1  A    between atoms: C4_7  and  C5_8 
REMARK    2  A    between atoms: C5_8  and  N2_9 
REMARK    3  A    between atoms: N2_9  and  C6_12 
ROOT
HETATM    1  C1  UNL     1     -24.724  15.241  11.304  1.00  0.00     0.002 C 
HETATM    2  C2  UNL     1     -24.023  13.927  11.260  1.00  0.00     0.027 C 
HETATM    3  C3  UNL     1     -23.949  13.491   9.818  1.00  0.00     0.233 C 
HETATM    4  N1  UNL     1     -23.336  14.609   9.076  1.00  0.00    -0.069 N 
ATOM      5  H11 UNL     1     -24.029  15.310   8.814  1.00  0.00     0.277 HD
ATOM      6  H12 UNL     1     -23.043  14.322   8.141  1.00  0.00     0.277 HD
HETATM    7  C4  UNL     1     -22.265  15.182   9.804  1.00  0.00     0.211 C 
HETATM    8  C9  UNL     1     -22.591  16.406  10.596  1.00  0.00     0.034 C 
HETATM    9  C10 UNL     1     -23.916  16.462  11.229  1.00  0.00     0.002 C 
ENDROOT
BRANCH   7  10
HETATM   10  C5  UNL     1     -21.124  15.550   8.874  1.00  0.00     0.265 C 
BRANCH  10  11
HETATM   11  N2  UNL     1     -21.428  15.360   7.482  1.00  0.00    -0.069 N 
ATOM     12  H22 UNL     1     -20.748  14.763   7.012  1.00  0.00     0.277 HD
ATOM     13  H21 UNL     1     -22.251  14.774   7.340  1.00  0.00     0.277 HD
BRANCH  11  14
HETATM   14  C6  UNL     1     -21.558  16.667   6.847  1.00  0.00     0.186 A 
HETATM   15  C7  UNL     1     -22.389  16.722   5.642  1.00  0.00     0.035 A 
HETATM   16  C8  UNL     1     -20.900  16.727   5.470  1.00  0.00     0.035 A 
ENDBRANCH  11  14
ENDBRANCH  10  11
ENDBRANCH   7  10
TORSDOF 3
ENDMDL
