MODEL 1
REMARK VINA RESULT: -5.075415919      0.000      0.000
REMARK  3 active torsions:
REMARK  status: ('A' for Active; 'I' for Inactive)
REMARK    1  A    between atoms: C2_2  and  C5_5 
REMARK    2  A    between atoms: C5_5  and  N1_6 
REMARK    3  A    between atoms: N1_6  and  C6_9 
ROOT
HETATM    1  N1  UNL     1     -21.080  17.572   7.294  1.00  0.00    -0.070 N 
ATOM      2  H11 UNL     1     -21.930  18.135   7.319  1.00  0.00     0.277 HD
ATOM      3  H12 UNL     1     -20.401  18.313   7.466  1.00  0.00     0.277 HD
ENDROOT
BRANCH   1   4
HETATM    4  C5  UNL     1     -20.884  16.957   6.007  1.00  0.00     0.241 C 
BRANCH   4   5
HETATM    5  C2  UNL     1     -21.756  17.560   4.936  1.00  0.00    -0.028 C 
HETATM    6  C1  UNL     1     -22.938  16.678   4.616  1.00  0.00     0.016 C 
HETATM    7  C3  UNL     1     -20.926  17.793   3.719  1.00  0.00     0.016 C 
HETATM    8  C4  UNL     1     -22.273  18.891   5.462  1.00  0.00     0.016 C 
ENDBRANCH   4   5
ENDBRANCH   1   4
BRANCH   1   9
HETATM    9  C6  UNL     1     -21.066  16.606   8.312  1.00  0.00     0.189 C 
HETATM   10  C7  UNL     1     -21.809  16.966   9.551  1.00  0.00     0.052 C 
HETATM   11  C8  UNL     1     -21.693  15.894  10.610  1.00  0.00     0.115 C 
HETATM   12  N2  UNL     1     -21.815  14.561  10.109  1.00  0.00    -0.421 N 
HETATM   13  C9  UNL     1     -21.055  14.277   8.927  1.00  0.00     0.115 C 
ATOM     14  H2  UNL     1     -22.404  13.860  10.561  1.00  0.00     0.153 HD
HETATM   15  C10 UNL     1     -21.555  15.239   7.852  1.00  0.00     0.052 C 
ENDBRANCH   1   9
TORSDOF 3
ENDMDL
MODEL 2
REMARK VINA RESULT: -5.073349480      1.083      1.236
REMARK  3 active torsions:
REMARK  status: ('A' for Active; 'I' for Inactive)
REMARK    1  A    between atoms: C2_2  and  C5_5 
REMARK    2  A    between atoms: C5_5  and  N1_6 
REMARK    3  A    between atoms: N1_6  and  C6_9 
ROOT
HETATM    1  N1  UNL     1     -21.560  15.533   6.607  1.00  0.00    -0.070 N 
ATOM      2  H11 UNL     1     -21.260  14.666   6.162  1.00  0.00     0.277 HD
ATOM      3  H12 UNL     1     -22.546  15.505   6.348  1.00  0.00     0.277 HD
ENDROOT
BRANCH   1   4
HETATM    4  C5  UNL     1     -20.893  16.680   6.047  1.00  0.00     0.241 C 
BRANCH   4   5
HETATM    5  C2  UNL     1     -21.746  17.417   5.047  1.00  0.00    -0.028 C 
HETATM    6  C1  UNL     1     -22.983  16.633   4.683  1.00  0.00     0.016 C 
HETATM    7  C3  UNL     1     -20.924  17.700   3.835  1.00  0.00     0.016 C 
HETATM    8  C4  UNL     1     -22.175  18.728   5.688  1.00  0.00     0.016 C 
ENDBRANCH   4   5
ENDBRANCH   1   4
BRANCH   1   9
HETATM    9  C6  UNL     1     -21.386  15.490   8.000  1.00  0.00     0.189 C 
HETATM   10  C7  UNL     1     -20.724  16.680   8.602  1.00  0.00     0.052 C 
HETATM   11  C8  UNL     1     -20.529  16.522  10.093  1.00  0.00     0.115 C 
HETATM   12  N2  UNL     1     -21.649  15.952  10.772  1.00  0.00    -0.421 N 
HETATM   13  C9  UNL     1     -22.222  14.795  10.149  1.00  0.00     0.115 C 
ATOM     14  H2  UNL     1     -22.016  16.341  11.641  1.00  0.00     0.153 HD
HETATM   15  C10 UNL     1     -22.681  15.238   8.761  1.00  0.00     0.052 C 
ENDBRANCH   1   9
TORSDOF 3
ENDMDL
MODEL 3
REMARK VINA RESULT: -5.054392357      0.926      1.606
REMARK  3 active torsions:
REMARK  status: ('A' for Active; 'I' for Inactive)
REMARK    1  A    between atoms: C2_2  and  C5_5 
REMARK    2  A    between atoms: C5_5  and  N1_6 
REMARK    3  A    between atoms: N1_6  and  C6_9 
ROOT
HETATM    1  N1  UNL     1     -21.546  15.628   6.622  1.00  0.00    -0.070 N 
ATOM      2  H11 UNL     1     -20.951  14.813   6.476  1.00  0.00     0.277 HD
ATOM      3  H12 UNL     1     -22.355  15.326   6.079  1.00  0.00     0.277 HD
ENDROOT
BRANCH   1   4
HETATM    4  C5  UNL     1     -20.955  16.824   6.080  1.00  0.00     0.241 C 
BRANCH   4   5
HETATM    5  C2  UNL     1     -21.772  17.421   4.964  1.00  0.00    -0.028 C 
HETATM    6  C1  UNL     1     -22.932  16.532   4.584  1.00  0.00     0.016 C 
HETATM    7  C3  UNL     1     -20.881  17.657   3.792  1.00  0.00     0.016 C 
HETATM    8  C4  UNL     1     -22.324  18.750   5.460  1.00  0.00     0.016 C 
ENDBRANCH   4   5
ENDBRANCH   1   4
BRANCH   1   9
HETATM    9  C6  UNL     1     -21.864  15.804   7.978  1.00  0.00     0.189 C 
HETATM   10  C7  UNL     1     -21.581  14.639   8.862  1.00  0.00     0.052 C 
HETATM   11  C8  UNL     1     -22.005  14.898  10.289  1.00  0.00     0.115 C 
HETATM   12  N2  UNL     1     -21.685  16.206  10.767  1.00  0.00    -0.421 N 
HETATM   13  C9  UNL     1     -22.005  17.282   9.876  1.00  0.00     0.115 C 
ATOM     14  H2  UNL     1     -21.257  16.363  11.680  1.00  0.00     0.153 HD
HETATM   15  C10 UNL     1     -21.209  17.032   8.596  1.00  0.00     0.052 C 
ENDBRANCH   1   9
TORSDOF 3
ENDMDL
MODEL 4
REMARK VINA RESULT: -5.022598902      0.924      2.019
REMARK  3 active torsions:
REMARK  status: ('A' for Active; 'I' for Inactive)
REMARK    1  A    between atoms: C2_2  and  C5_5 
REMARK    2  A    between atoms: C5_5  and  N1_6 
REMARK    3  A    between atoms: N1_6  and  C6_9 
ROOT
HETATM    1  N1  UNL     1     -21.588  15.673   6.538  1.00  0.00    -0.070 N 
ATOM      2  H11 UNL     1     -21.031  14.836   6.367  1.00  0.00     0.277 HD
ATOM      3  H12 UNL     1     -22.423  15.410   6.014  1.00  0.00     0.277 HD
ENDROOT
BRANCH   1   4
HETATM    4  C5  UNL     1     -20.965  16.851   5.993  1.00  0.00     0.241 C 
BRANCH   4   5
HETATM    5  C2  UNL     1     -21.791  17.497   4.911  1.00  0.00    -0.028 C 
HETATM    6  C1  UNL     1     -22.336  18.835   5.347  1.00  0.00     0.016 C 
HETATM    7  C3  UNL     1     -22.900  16.571   4.539  1.00  0.00     0.016 C 
HETATM    8  C4  UNL     1     -20.883  17.713   3.708  1.00  0.00     0.016 C 
ENDBRANCH   4   5
ENDBRANCH   1   4
BRANCH   1   9
HETATM    9  C6  UNL     1     -21.862  15.845   7.904  1.00  0.00     0.189 C 
HETATM   10  C7  UNL     1     -21.517  14.691   8.779  1.00  0.00     0.052 C 
HETATM   11  C8  UNL     1     -21.897  14.943  10.221  1.00  0.00     0.115 C 
HETATM   12  N2  UNL     1     -21.594  16.260  10.684  1.00  0.00    -0.421 N 
HETATM   13  C9  UNL     1     -21.975  17.324   9.802  1.00  0.00     0.115 C 
ATOM     14  H2  UNL     1     -21.138  16.431  11.580  1.00  0.00     0.153 HD
HETATM   15  C10 UNL     1     -21.218  17.092   8.495  1.00  0.00     0.052 C 
ENDBRANCH   1   9
TORSDOF 3
ENDMDL
MODEL 5
REMARK VINA RESULT: -4.981021211      1.565      5.103
REMARK  3 active torsions:
REMARK  status: ('A' for Active; 'I' for Inactive)
REMARK    1  A    between atoms: C2_2  and  C5_5 
REMARK    2  A    between atoms: C5_5  and  N1_6 
REMARK    3  A    between atoms: N1_6  and  C6_9 
ROOT
HETATM    1  N1  UNL     1     -21.198  15.697   8.038  1.00  0.00    -0.070 N 
ATOM      2  H11 UNL     1     -20.864  14.778   7.748  1.00  0.00     0.277 HD
ATOM      3  H12 UNL     1     -20.464  15.923   8.708  1.00  0.00     0.277 HD
ENDROOT
BRANCH   1   4
HETATM    4  C5  UNL     1     -22.491  15.621   8.667  1.00  0.00     0.241 C 
BRANCH   4   5
HETATM    5  C2  UNL     1     -22.412  15.713  10.169  1.00  0.00    -0.028 C 
HETATM    6  C1  UNL     1     -22.952  17.028  10.677  1.00  0.00     0.016 C 
HETATM    7  C3  UNL     1     -20.991  15.531  10.584  1.00  0.00     0.016 C 
HETATM    8  C4  UNL     1     -23.259  14.587  10.744  1.00  0.00     0.016 C 
ENDBRANCH   4   5
ENDBRANCH   1   4
BRANCH   1   9
HETATM    9  C6  UNL     1     -21.222  16.604   6.966  1.00  0.00     0.189 C 
HETATM   10  C7  UNL     1     -22.290  16.375   5.954  1.00  0.00     0.052 C 
HETATM   11  C8  UNL     1     -22.204  17.361   4.811  1.00  0.00     0.115 C 
HETATM   12  N2  UNL     1     -21.929  18.704   5.217  1.00  0.00    -0.421 N 
HETATM   13  C9  UNL     1     -20.874  18.852   6.175  1.00  0.00     0.115 C 
ATOM     14  H2  UNL     1     -22.449  19.501   4.849  1.00  0.00     0.153 HD
HETATM   15  C10 UNL     1     -21.299  18.059   7.409  1.00  0.00     0.052 C 
ENDBRANCH   1   9
TORSDOF 3
ENDMDL
