MODEL 1
REMARK VINA RESULT: -7.204898797      0.000      0.000
REMARK  9 active torsions:
REMARK  status: ('A' for Active; 'I' for Inactive)
REMARK    1  A    between atoms: O1_2  and  C2_3 
REMARK    2  A    between atoms: C4_5  and  O2_6 
REMARK    3  A    between atoms: O2_6  and  C5_7 
REMARK    4  A    between atoms: C5_7  and  C6_8 
REMARK    5  A    between atoms: C6_8  and  C9_11 
REMARK    6  A    between atoms: C9_11  and  O3_12 
REMARK    7  A    between atoms: C18_23  and  O5_24 
REMARK    8  A    between atoms: C19_26  and  O6_27 
REMARK    9  A    between atoms: C20_29  and  O7_30 
ROOT
HETATM    1  C2  UNL     1      27.238  51.670  45.118  1.00  0.00     0.071 A 
HETATM    2  C3  UNL     1      28.173  52.585  45.544  1.00  0.00     0.074 A 
HETATM    3  C4  UNL     1      29.455  52.257  45.978  1.00  0.00     0.083 A 
HETATM    4  C10 UNL     1      29.733  50.919  45.954  1.00  0.00     0.019 A 
HETATM    5  C11 UNL     1      28.779  49.965  45.528  1.00  0.00    -0.019 A 
HETATM    6  C12 UNL     1      27.550  50.346  45.112  1.00  0.00     0.049 A 
HETATM    7  C13 UNL     1      28.917  48.577  45.656  1.00  0.00     0.023 C 
HETATM    8  C14 UNL     1      29.578  47.935  46.712  1.00  0.00    -0.010 C 
HETATM    9  C15 UNL     1      29.158  46.541  46.917  1.00  0.00     0.052 C 
HETATM   10  C16 UNL     1      30.557  48.462  47.553  1.00  0.00     0.191 C 
HETATM   11  O4  UNL     1      30.754  47.927  48.632  1.00  0.00    -0.287 OA
HETATM   12  C17 UNL     1      31.334  49.559  47.248  1.00  0.00     0.062 A 
HETATM   13  C18 UNL     1      32.620  49.453  47.703  1.00  0.00     0.116 A 
HETATM   14  C19 UNL     1      33.545  50.375  47.335  1.00  0.00     0.133 A 
HETATM   15  C20 UNL     1      33.192  51.460  46.472  1.00  0.00     0.105 A 
HETATM   16  C22 UNL     1      31.900  51.584  46.009  1.00  0.00     0.053 A 
HETATM   17  C23 UNL     1      31.008  50.643  46.408  1.00  0.00    -0.003 A 
ENDROOT
BRANCH   3  18
HETATM   18  O2  UNL     1      30.293  53.209  46.387  1.00  0.00    -0.349 OA
BRANCH  18  19
HETATM   19  C5  UNL     1      30.484  54.130  47.343  1.00  0.00     0.186 C 
BRANCH  19  20
HETATM   20  C6  UNL     1      31.114  54.208  48.619  1.00  0.00    -0.004 C 
HETATM   21  C7  UNL     1      31.014  52.876  49.430  1.00  0.00     0.019 C 
HETATM   22  C8  UNL     1      30.204  55.152  49.501  1.00  0.00     0.019 C 
BRANCH  20  23
HETATM   23  C9  UNL     1      32.478  54.679  48.928  1.00  0.00     0.175 C 
BRANCH  23  24
HETATM   24  O3  UNL     1      33.436  53.720  49.024  1.00  0.00    -0.400 OA
ATOM     25  H3  UNL     1      34.045  53.662  48.298  1.00  0.00     0.209 HD
ENDBRANCH  23  24
ENDBRANCH  20  23
ENDBRANCH  19  20
ENDBRANCH  18  19
ENDBRANCH   3  18
BRANCH   1  26
HETATM   26  O1  UNL     1      25.973  52.076  44.690  1.00  0.00    -0.356 OA
HETATM   27  C1  UNL     1      25.495  51.578  43.461  1.00  0.00     0.210 C 
ENDBRANCH   1  26
BRANCH  13  28
HETATM   28  O5  UNL     1      32.878  48.365  48.538  1.00  0.00    -0.357 OA
ATOM     29  H5  UNL     1      33.749  47.992  48.470  1.00  0.00     0.217 HD
ENDBRANCH  13  28
BRANCH  15  30
HETATM   30  O7  UNL     1      34.191  52.318  46.149  1.00  0.00    -0.353 OA
HETATM   31  C21 UNL     1      34.296  53.630  45.865  1.00  0.00     0.210 C 
ENDBRANCH  15  30
BRANCH  14  32
HETATM   32  O6  UNL     1      34.851  50.300  47.778  1.00  0.00    -0.356 OA
ATOM     33  H6  UNL     1      35.430  51.051  47.740  1.00  0.00     0.218 HD
ENDBRANCH  14  32
TORSDOF 9
ENDMDL
MODEL 2
REMARK VINA RESULT: -7.114949966      2.364      6.189
REMARK  9 active torsions:
REMARK  status: ('A' for Active; 'I' for Inactive)
REMARK    1  A    between atoms: O1_2  and  C2_3 
REMARK    2  A    between atoms: C4_5  and  O2_6 
REMARK    3  A    between atoms: O2_6  and  C5_7 
REMARK    4  A    between atoms: C5_7  and  C6_8 
REMARK    5  A    between atoms: C6_8  and  C9_11 
REMARK    6  A    between atoms: C9_11  and  O3_12 
REMARK    7  A    between atoms: C18_23  and  O5_24 
REMARK    8  A    between atoms: C19_26  and  O6_27 
REMARK    9  A    between atoms: C20_29  and  O7_30 
ROOT
HETATM    1  C2  UNL     1      26.249  50.876  44.321  1.00  0.00     0.071 A 
HETATM    2  C3  UNL     1      26.513  49.559  44.618  1.00  0.00     0.074 A 
HETATM    3  C4  UNL     1      27.619  49.122  45.344  1.00  0.00     0.083 A 
HETATM    4  C10 UNL     1      28.455  50.122  45.753  1.00  0.00     0.019 A 
HETATM    5  C11 UNL     1      28.203  51.480  45.447  1.00  0.00    -0.019 A 
HETATM    6  C12 UNL     1      27.108  51.844  44.742  1.00  0.00     0.049 A 
HETATM    7  C13 UNL     1      29.102  52.533  45.660  1.00  0.00     0.023 C 
HETATM    8  C14 UNL     1      30.495  52.426  45.561  1.00  0.00    -0.010 C 
HETATM    9  C15 UNL     1      31.175  53.704  45.308  1.00  0.00     0.052 C 
HETATM   10  C16 UNL     1      31.273  51.274  45.677  1.00  0.00     0.191 C 
HETATM   11  O4  UNL     1      32.396  51.275  45.201  1.00  0.00    -0.287 OA
HETATM   12  C17 UNL     1      30.860  50.119  46.305  1.00  0.00     0.062 A 
HETATM   13  C18 UNL     1      31.864  49.488  46.989  1.00  0.00     0.116 A 
HETATM   14  C19 UNL     1      31.574  48.433  47.792  1.00  0.00     0.133 A 
HETATM   15  C20 UNL     1      30.228  47.972  47.935  1.00  0.00     0.105 A 
HETATM   16  C22 UNL     1      29.206  48.593  47.250  1.00  0.00     0.053 A 
HETATM   17  C23 UNL     1      29.543  49.638  46.453  1.00  0.00    -0.003 A 
ENDROOT
BRANCH   3  18
HETATM   18  O2  UNL     1      27.804  47.823  45.575  1.00  0.00    -0.349 OA
BRANCH  18  19
HETATM   19  C5  UNL     1      27.154  46.669  45.790  1.00  0.00     0.186 C 
BRANCH  19  20
HETATM   20  C6  UNL     1      26.472  45.686  45.017  1.00  0.00    -0.004 C 
HETATM   21  C7  UNL     1      26.508  45.985  43.483  1.00  0.00     0.019 C 
HETATM   22  C8  UNL     1      24.932  45.885  45.314  1.00  0.00     0.019 C 
BRANCH  20  23
HETATM   23  C9  UNL     1      26.633  44.220  45.070  1.00  0.00     0.175 C 
BRANCH  23  24
HETATM   24  O3  UNL     1      27.852  43.737  44.717  1.00  0.00    -0.400 OA
ATOM     25  H3  UNL     1      28.601  44.261  44.975  1.00  0.00     0.209 HD
ENDBRANCH  23  24
ENDBRANCH  20  23
ENDBRANCH  19  20
ENDBRANCH  18  19
ENDBRANCH   3  18
BRANCH   1  26
HETATM   26  O1  UNL     1      25.115  51.238  43.593  1.00  0.00    -0.356 OA
HETATM   27  C1  UNL     1      25.246  51.419  42.201  1.00  0.00     0.210 C 
ENDBRANCH   1  26
BRANCH  13  28
HETATM   28  O5  UNL     1      33.146  50.003  46.793  1.00  0.00    -0.357 OA
ATOM     29  H5  UNL     1      33.818  49.365  46.585  1.00  0.00     0.217 HD
ENDBRANCH  13  28
BRANCH  15  30
HETATM   30  O7  UNL     1      30.040  46.923  48.775  1.00  0.00    -0.353 OA
HETATM   31  C21 UNL     1      29.182  45.888  48.865  1.00  0.00     0.210 C 
ENDBRANCH  15  30
BRANCH  14  32
HETATM   32  O6  UNL     1      32.562  47.772  48.495  1.00  0.00    -0.356 OA
ATOM     33  H6  UNL     1      32.878  46.920  48.221  1.00  0.00     0.218 HD
ENDBRANCH  14  32
TORSDOF 9
ENDMDL
MODEL 3
REMARK VINA RESULT: -7.025835361      2.170      5.950
REMARK  9 active torsions:
REMARK  status: ('A' for Active; 'I' for Inactive)
REMARK    1  A    between atoms: O1_2  and  C2_3 
REMARK    2  A    between atoms: C4_5  and  O2_6 
REMARK    3  A    between atoms: O2_6  and  C5_7 
REMARK    4  A    between atoms: C5_7  and  C6_8 
REMARK    5  A    between atoms: C6_8  and  C9_11 
REMARK    6  A    between atoms: C9_11  and  O3_12 
REMARK    7  A    between atoms: C18_23  and  O5_24 
REMARK    8  A    between atoms: C19_26  and  O6_27 
REMARK    9  A    between atoms: C20_29  and  O7_30 
ROOT
HETATM    1  C2  UNL     1      26.300  51.644  44.736  1.00  0.00     0.071 A 
HETATM    2  C3  UNL     1      26.434  50.308  45.033  1.00  0.00     0.074 A 
HETATM    3  C4  UNL     1      27.539  49.749  45.670  1.00  0.00     0.083 A 
HETATM    4  C10 UNL     1      28.518  50.647  45.990  1.00  0.00     0.019 A 
HETATM    5  C11 UNL     1      28.401  52.023  45.683  1.00  0.00    -0.019 A 
HETATM    6  C12 UNL     1      27.299  52.508  45.067  1.00  0.00     0.049 A 
HETATM    7  C13 UNL     1      29.430  52.965  45.802  1.00  0.00     0.023 C 
HETATM    8  C14 UNL     1      30.788  52.694  45.587  1.00  0.00    -0.010 C 
HETATM    9  C15 UNL     1      31.588  53.882  45.256  1.00  0.00     0.052 C 
HETATM   10  C16 UNL     1      31.434  51.460  45.657  1.00  0.00     0.191 C 
HETATM   11  O4  UNL     1      32.505  51.325  45.088  1.00  0.00    -0.287 OA
HETATM   12  C17 UNL     1      30.945  50.366  46.336  1.00  0.00     0.062 A 
HETATM   13  C18 UNL     1      31.923  49.626  46.944  1.00  0.00     0.116 A 
HETATM   14  C19 UNL     1      31.583  48.618  47.786  1.00  0.00     0.133 A 
HETATM   15  C20 UNL     1      30.209  48.319  48.050  1.00  0.00     0.105 A 
HETATM   16  C22 UNL     1      29.211  49.051  47.444  1.00  0.00     0.053 A 
HETATM   17  C23 UNL     1      29.599  50.044  46.604  1.00  0.00    -0.003 A 
ENDROOT
BRANCH   3  18
HETATM   18  O2  UNL     1      27.591  48.439  45.907  1.00  0.00    -0.349 OA
BRANCH  18  19
HETATM   19  C5  UNL     1      26.840  47.328  45.958  1.00  0.00     0.186 C 
BRANCH  19  20
HETATM   20  C6  UNL     1      26.398  46.315  45.059  1.00  0.00    -0.004 C 
HETATM   21  C7  UNL     1      24.897  45.931  45.266  1.00  0.00     0.019 C 
HETATM   22  C8  UNL     1      27.104  44.979  45.523  1.00  0.00     0.019 C 
BRANCH  20  23
HETATM   23  C9  UNL     1      26.548  46.277  43.592  1.00  0.00     0.175 C 
BRANCH  23  24
HETATM   24  O3  UNL     1      26.999  47.416  43.005  1.00  0.00    -0.400 OA
ATOM     25  H3  UNL     1      26.898  47.471  42.063  1.00  0.00     0.209 HD
ENDBRANCH  23  24
ENDBRANCH  20  23
ENDBRANCH  19  20
ENDBRANCH  18  19
ENDBRANCH   3  18
BRANCH   1  26
HETATM   26  O1  UNL     1      25.157  52.133  44.101  1.00  0.00    -0.356 OA
HETATM   27  C1  UNL     1      25.295  52.674  42.807  1.00  0.00     0.210 C 
ENDBRANCH   1  26
BRANCH  13  28
HETATM   28  O5  UNL     1      33.235  49.985  46.632  1.00  0.00    -0.357 OA
ATOM     29  H5  UNL     1      33.443  50.907  46.727  1.00  0.00     0.217 HD
ENDBRANCH  13  28
BRANCH  15  30
HETATM   30  O7  UNL     1      29.973  47.305  48.920  1.00  0.00    -0.353 OA
HETATM   31  C21 UNL     1      29.116  46.269  49.001  1.00  0.00     0.210 C 
ENDBRANCH  15  30
BRANCH  14  32
HETATM   32  O6  UNL     1      32.544  47.850  48.415  1.00  0.00    -0.356 OA
ATOM     33  H6  UNL     1      32.782  48.001  49.321  1.00  0.00     0.218 HD
ENDBRANCH  14  32
TORSDOF 9
ENDMDL
MODEL 4
REMARK VINA RESULT: -7.004624988      3.450      7.457
REMARK  9 active torsions:
REMARK  status: ('A' for Active; 'I' for Inactive)
REMARK    1  A    between atoms: O1_2  and  C2_3 
REMARK    2  A    between atoms: C4_5  and  O2_6 
REMARK    3  A    between atoms: O2_6  and  C5_7 
REMARK    4  A    between atoms: C5_7  and  C6_8 
REMARK    5  A    between atoms: C6_8  and  C9_11 
REMARK    6  A    between atoms: C9_11  and  O3_12 
REMARK    7  A    between atoms: C18_23  and  O5_24 
REMARK    8  A    between atoms: C19_26  and  O6_27 
REMARK    9  A    between atoms: C20_29  and  O7_30 
ROOT
HETATM    1  C2  UNL     1      26.770  48.866  42.690  1.00  0.00     0.071 A 
HETATM    2  C3  UNL     1      26.536  47.624  43.232  1.00  0.00     0.074 A 
HETATM    3  C4  UNL     1      26.966  47.221  44.494  1.00  0.00     0.083 A 
HETATM    4  C10 UNL     1      27.664  48.174  45.182  1.00  0.00     0.019 A 
HETATM    5  C11 UNL     1      27.922  49.453  44.635  1.00  0.00    -0.019 A 
HETATM    6  C12 UNL     1      27.472  49.788  43.404  1.00  0.00     0.049 A 
HETATM    7  C13 UNL     1      28.785  50.407  45.189  1.00  0.00     0.023 C 
HETATM    8  C14 UNL     1      29.958  50.107  45.895  1.00  0.00    -0.010 C 
HETATM    9  C15 UNL     1      30.936  51.204  45.918  1.00  0.00     0.052 C 
HETATM   10  C16 UNL     1      30.278  48.920  46.554  1.00  0.00     0.191 C 
HETATM   11  O4  UNL     1      31.451  48.676  46.786  1.00  0.00    -0.287 OA
HETATM   12  C17 UNL     1      29.351  47.991  46.973  1.00  0.00     0.062 A 
HETATM   13  C18 UNL     1      29.676  47.404  48.165  1.00  0.00     0.116 A 
HETATM   14  C19 UNL     1      28.781  46.595  48.786  1.00  0.00     0.133 A 
HETATM   15  C20 UNL     1      27.496  46.348  48.209  1.00  0.00     0.105 A 
HETATM   16  C22 UNL     1      27.154  46.927  47.006  1.00  0.00     0.053 A 
HETATM   17  C23 UNL     1      28.083  47.723  46.418  1.00  0.00    -0.003 A 
ENDROOT
BRANCH   3  18
HETATM   18  O2  UNL     1      26.706  45.991  44.935  1.00  0.00    -0.349 OA
BRANCH  18  19
HETATM   19  C5  UNL     1      25.890  44.941  44.763  1.00  0.00     0.186 C 
BRANCH  19  20
HETATM   20  C6  UNL     1      25.076  44.096  45.572  1.00  0.00    -0.004 C 
HETATM   21  C7  UNL     1      24.197  43.113  44.733  1.00  0.00     0.019 C 
HETATM   22  C8  UNL     1      23.957  45.027  46.190  1.00  0.00     0.019 C 
BRANCH  20  23
HETATM   23  C9  UNL     1      25.491  43.268  46.720  1.00  0.00     0.175 C 
BRANCH  23  24
HETATM   24  O3  UNL     1      26.826  43.209  46.965  1.00  0.00    -0.400 OA
ATOM     25  H3  UNL     1      27.147  42.401  47.347  1.00  0.00     0.209 HD
ENDBRANCH  23  24
ENDBRANCH  20  23
ENDBRANCH  19  20
ENDBRANCH  18  19
ENDBRANCH   3  18
BRANCH   1  26
HETATM   26  O1  UNL     1      26.300  49.200  41.419  1.00  0.00    -0.356 OA
HETATM   27  C1  UNL     1      27.238  49.603  40.447  1.00  0.00     0.210 C 
ENDBRANCH   1  26
BRANCH  13  28
HETATM   28  O5  UNL     1      30.947  47.700  48.659  1.00  0.00    -0.357 OA
ATOM     29  H5  UNL     1      31.365  47.010  49.161  1.00  0.00     0.217 HD
ENDBRANCH  13  28
BRANCH  15  30
HETATM   30  O7  UNL     1      26.666  45.540  48.915  1.00  0.00    -0.353 OA
HETATM   31  C21 UNL     1      25.469  45.661  49.520  1.00  0.00     0.210 C 
ENDBRANCH  15  30
BRANCH  14  32
HETATM   32  O6  UNL     1      29.077  45.985  49.990  1.00  0.00    -0.356 OA
ATOM     33  H6  UNL     1      28.420  45.497  50.472  1.00  0.00     0.218 HD
ENDBRANCH  14  32
TORSDOF 9
ENDMDL
MODEL 5
REMARK VINA RESULT: -6.981578933      2.880      4.862
REMARK  9 active torsions:
REMARK  status: ('A' for Active; 'I' for Inactive)
REMARK    1  A    between atoms: O1_2  and  C2_3 
REMARK    2  A    between atoms: C4_5  and  O2_6 
REMARK    3  A    between atoms: O2_6  and  C5_7 
REMARK    4  A    between atoms: C5_7  and  C6_8 
REMARK    5  A    between atoms: C6_8  and  C9_11 
REMARK    6  A    between atoms: C9_11  and  O3_12 
REMARK    7  A    between atoms: C18_23  and  O5_24 
REMARK    8  A    between atoms: C19_26  and  O6_27 
REMARK    9  A    between atoms: C20_29  and  O7_30 
ROOT
HETATM    1  C2  UNL     1      26.753  49.395  42.808  1.00  0.00     0.071 A 
HETATM    2  C3  UNL     1      27.358  49.993  43.889  1.00  0.00     0.074 A 
HETATM    3  C4  UNL     1      27.752  49.319  45.043  1.00  0.00     0.083 A 
HETATM    4  C10 UNL     1      27.487  47.979  45.031  1.00  0.00     0.019 A 
HETATM    5  C11 UNL     1      26.857  47.350  43.931  1.00  0.00    -0.019 A 
HETATM    6  C12 UNL     1      26.502  48.058  42.834  1.00  0.00     0.049 A 
HETATM    7  C13 UNL     1      26.380  46.034  43.920  1.00  0.00     0.023 C 
HETATM    8  C14 UNL     1      25.842  45.371  45.031  1.00  0.00    -0.010 C 
HETATM    9  C15 UNL     1      24.958  44.248  44.685  1.00  0.00     0.052 C 
HETATM   10  C16 UNL     1      26.053  45.656  46.380  1.00  0.00     0.191 C 
HETATM   11  O4  UNL     1      25.242  45.253  47.198  1.00  0.00    -0.287 OA
HETATM   12  C17 UNL     1      27.129  46.366  46.864  1.00  0.00     0.062 A 
HETATM   13  C18 UNL     1      27.587  45.901  48.067  1.00  0.00     0.116 A 
HETATM   14  C19 UNL     1      28.741  46.390  48.586  1.00  0.00     0.133 A 
HETATM   15  C20 UNL     1      29.491  47.389  47.888  1.00  0.00     0.105 A 
HETATM   16  C22 UNL     1      29.042  47.871  46.677  1.00  0.00     0.053 A 
HETATM   17  C23 UNL     1      27.879  47.359  46.201  1.00  0.00    -0.003 A 
ENDROOT
BRANCH   3  18
HETATM   18  O2  UNL     1      28.320  49.981  46.051  1.00  0.00    -0.349 OA
BRANCH  18  19
HETATM   19  C5  UNL     1      28.742  51.195  46.432  1.00  0.00     0.186 C 
BRANCH  19  20
HETATM   20  C6  UNL     1      29.934  51.971  46.344  1.00  0.00    -0.004 C 
HETATM   21  C7  UNL     1      30.498  52.381  47.742  1.00  0.00     0.019 C 
HETATM   22  C8  UNL     1      29.498  53.383  45.783  1.00  0.00     0.019 C 
BRANCH  20  23
HETATM   23  C9  UNL     1      31.155  51.670  45.572  1.00  0.00     0.175 C 
BRANCH  23  24
HETATM   24  O3  UNL     1      31.272  50.400  45.106  1.00  0.00    -0.400 OA
ATOM     25  H3  UNL     1      31.374  50.306  44.166  1.00  0.00     0.209 HD
ENDBRANCH  23  24
ENDBRANCH  20  23
ENDBRANCH  19  20
ENDBRANCH  18  19
ENDBRANCH   3  18
BRANCH   1  26
HETATM   26  O1  UNL     1      26.393  50.136  41.681  1.00  0.00    -0.356 OA
HETATM   27  C1  UNL     1      27.179  50.004  40.518  1.00  0.00     0.210 C 
ENDBRANCH   1  26
BRANCH  13  28
HETATM   28  O5  UNL     1      26.797  44.927  48.679  1.00  0.00    -0.357 OA
ATOM     29  H5  UNL     1      26.142  44.519  48.124  1.00  0.00     0.217 HD
ENDBRANCH  13  28
BRANCH  15  30
HETATM   30  O7  UNL     1      30.639  47.800  48.481  1.00  0.00    -0.353 OA
HETATM   31  C21 UNL     1      31.656  48.626  48.169  1.00  0.00     0.210 C 
ENDBRANCH  15  30
BRANCH  14  32
HETATM   32  O6  UNL     1      29.230  45.944  49.798  1.00  0.00    -0.356 OA
ATOM     33  H6  UNL     1      29.730  46.515  50.370  1.00  0.00     0.218 HD
ENDBRANCH  14  32
TORSDOF 9
ENDMDL
