MODEL 1
REMARK VINA RESULT: -6.956232760      0.000      0.000
REMARK  7 active torsions:
REMARK  status: ('A' for Active; 'I' for Inactive)
REMARK    1  A    between atoms: O1_2  and  C2_3 
REMARK    2  A    between atoms: C2_3  and  C3_4 
REMARK    3  A    between atoms: C3_4  and  S1_5 
REMARK    4  A    between atoms: S1_5  and  C4_6 
REMARK    5  A    between atoms: C8_19  and  C9_20 
REMARK    6  A    between atoms: N6_28  and  C14_29 
REMARK    7  A    between atoms: C14_29  and  C15_30 
ROOT
HETATM    1  C4  UNL     1      31.841  52.015  48.319  1.00  0.00     0.117 A 
HETATM    2  N1  UNL     1      31.689  53.299  47.963  1.00  0.00    -0.184 N 
ATOM      3  H1  UNL     1      32.410  53.978  48.210  1.00  0.00     0.185 HD
HETATM    4  C5  UNL     1      30.583  53.711  47.276  1.00  0.00     0.678 A 
HETATM    5  N2  UNL     1      30.454  54.957  46.941  1.00  0.00    -0.234 N 
ATOM      6  H21 UNL     1      29.628  55.265  46.427  1.00  0.00     0.174 HD
ATOM      7  H22 UNL     1      31.196  55.606  47.204  1.00  0.00     0.174 HD
HETATM    8  N3  UNL     1      29.610  52.860  46.930  1.00  0.00    -0.174 N 
ATOM      9  H3  UNL     1      28.793  53.190  46.418  1.00  0.00     0.186 HD
HETATM   10  C6  UNL     1      29.726  51.542  47.273  1.00  0.00     0.154 A 
HETATM   11  C7  UNL     1      30.845  51.131  47.968  1.00  0.00     0.113 A 
HETATM   12  N4  UNL     1      30.719  49.824  48.171  1.00  0.00    -0.340 N 
ATOM     13  H4  UNL     1      31.400  49.244  48.662  1.00  0.00     0.167 HD
HETATM   14  C8  UNL     1      29.574  49.371  47.644  1.00  0.00     0.090 A 
HETATM   15  N6  UNL     1      28.966  50.452  47.088  1.00  0.00    -0.320 N 
ENDROOT
BRANCH  14  16
HETATM   16  C9  UNL     1      29.053  47.956  47.656  1.00  0.00     0.057 C 
HETATM   17  C10 UNL     1      30.024  47.054  46.906  1.00  0.00     0.040 C 
HETATM   18  C11 UNL     1      30.481  45.889  47.733  1.00  0.00     0.233 C 
HETATM   19  N5  UNL     1      29.264  45.238  48.246  1.00  0.00    -0.075 N 
HETATM   20  C12 UNL     1      28.774  46.080  49.307  1.00  0.00     0.233 C 
ATOM     21  H52 UNL     1      28.569  45.050  47.523  1.00  0.00     0.277 HD
ATOM     22  H51 UNL     1      29.412  44.270  48.531  1.00  0.00     0.277 HD
HETATM   23  C13 UNL     1      29.034  47.534  49.105  1.00  0.00     0.040 C 
ENDBRANCH  14  16
BRANCH  15  24
HETATM   24  C14 UNL     1      27.692  50.408  46.416  1.00  0.00     0.136 C 
BRANCH  24  25
HETATM   25  C15 UNL     1      27.778  50.509  44.914  1.00  0.00     0.004 C 
HETATM   26  C16 UNL     1      27.922  49.165  44.298  1.00  0.00     0.006 C 
HETATM   27  C17 UNL     1      27.913  49.299  42.767  1.00  0.00     0.005 C 
HETATM   28  C18 UNL     1      26.502  49.707  42.401  1.00  0.00    -0.019 C 
HETATM   29  C19 UNL     1      26.377  49.703  40.901  1.00  0.00     0.010 C 
HETATM   30  C20 UNL     1      26.348  51.133  42.935  1.00  0.00     0.005 C 
HETATM   31  C21 UNL     1      26.511  51.170  44.412  1.00  0.00     0.006 C 
ENDBRANCH  24  25
ENDBRANCH  15  24
BRANCH   1  32
HETATM   32  S1  UNL     1      33.254  51.404  49.214  1.00  0.00    -0.107 SA
BRANCH  32  33
HETATM   33  C3  UNL     1      34.305  50.502  48.046  1.00  0.00     0.107 C 
BRANCH  33  34
HETATM   34  C2  UNL     1      34.663  51.350  46.850  1.00  0.00     0.177 C 
BRANCH  34  35
HETATM   35  O1  UNL     1      34.181  50.735  45.697  1.00  0.00    -0.395 OA
HETATM   36  C1  UNL     1      33.147  51.455  45.117  1.00  0.00     0.201 C 
ENDBRANCH  34  35
ENDBRANCH  33  34
ENDBRANCH  32  33
ENDBRANCH   1  32
TORSDOF 7
ENDMDL
MODEL 2
REMARK VINA RESULT: -6.920151279      3.735      6.505
REMARK  7 active torsions:
REMARK  status: ('A' for Active; 'I' for Inactive)
REMARK    1  A    between atoms: O1_2  and  C2_3 
REMARK    2  A    between atoms: C2_3  and  C3_4 
REMARK    3  A    between atoms: C3_4  and  S1_5 
REMARK    4  A    between atoms: S1_5  and  C4_6 
REMARK    5  A    between atoms: C8_19  and  C9_20 
REMARK    6  A    between atoms: N6_28  and  C14_29 
REMARK    7  A    between atoms: C14_29  and  C15_30 
ROOT
HETATM    1  C4  UNL     1      28.724  48.055  47.641  1.00  0.00     0.117 A 
HETATM    2  N1  UNL     1      28.996  47.032  48.463  1.00  0.00    -0.184 N 
ATOM      3  H1  UNL     1      29.446  47.214  49.361  1.00  0.00     0.185 HD
HETATM    4  C5  UNL     1      28.680  45.749  48.117  1.00  0.00     0.678 A 
HETATM    5  N2  UNL     1      28.952  44.773  48.926  1.00  0.00    -0.234 N 
ATOM      6  H21 UNL     1      28.716  43.815  48.666  1.00  0.00     0.174 HD
ATOM      7  H22 UNL     1      29.401  44.993  49.814  1.00  0.00     0.174 HD
HETATM    8  N3  UNL     1      28.091  45.459  46.951  1.00  0.00    -0.174 N 
ATOM      9  H3  UNL     1      27.865  44.493  46.713  1.00  0.00     0.186 HD
HETATM   10  C6  UNL     1      27.796  46.473  46.084  1.00  0.00     0.154 A 
HETATM   11  C7  UNL     1      28.117  47.767  46.439  1.00  0.00     0.113 A 
HETATM   12  N4  UNL     1      27.727  48.553  45.440  1.00  0.00    -0.340 N 
ATOM     13  H4  UNL     1      27.835  49.567  45.424  1.00  0.00     0.167 HD
HETATM   14  C8  UNL     1      27.171  47.831  44.459  1.00  0.00     0.090 A 
HETATM   15  N6  UNL     1      27.221  46.538  44.873  1.00  0.00    -0.320 N 
ENDROOT
BRANCH  14  16
HETATM   16  C9  UNL     1      26.602  48.335  43.157  1.00  0.00     0.057 C 
HETATM   17  C10 UNL     1      25.355  49.163  43.437  1.00  0.00     0.040 C 
HETATM   18  C11 UNL     1      25.434  50.538  42.843  1.00  0.00     0.233 C 
HETATM   19  N5  UNL     1      25.783  50.362  41.424  1.00  0.00    -0.075 N 
HETATM   20  C12 UNL     1      27.185  50.030  41.393  1.00  0.00     0.233 C 
ATOM     21  H52 UNL     1      25.195  49.682  40.943  1.00  0.00     0.277 HD
ATOM     22  H51 UNL     1      25.544  51.166  40.845  1.00  0.00     0.277 HD
HETATM   23  C13 UNL     1      27.654  49.243  42.569  1.00  0.00     0.040 C 
ENDBRANCH  14  16
BRANCH  15  24
HETATM   24  C14 UNL     1      26.732  45.421  44.104  1.00  0.00     0.136 C 
BRANCH  24  25
HETATM   25  C15 UNL     1      25.317  45.015  44.428  1.00  0.00     0.004 C 
HETATM   26  C16 UNL     1      25.289  43.730  45.171  1.00  0.00     0.006 C 
HETATM   27  C17 UNL     1      23.841  43.396  45.564  1.00  0.00     0.005 C 
HETATM   28  C18 UNL     1      23.455  44.419  46.611  1.00  0.00    -0.019 C 
HETATM   29  C19 UNL     1      22.101  44.056  47.158  1.00  0.00     0.010 C 
HETATM   30  C20 UNL     1      23.376  45.749  45.859  1.00  0.00     0.005 C 
HETATM   31  C21 UNL     1      24.693  46.109  45.272  1.00  0.00     0.006 C 
ENDBRANCH  24  25
ENDBRANCH  15  24
BRANCH   1  32
HETATM   32  S1  UNL     1      29.104  49.752  48.024  1.00  0.00    -0.107 SA
BRANCH  32  33
HETATM   33  C3  UNL     1      30.735  50.127  47.328  1.00  0.00     0.107 C 
BRANCH  33  34
HETATM   34  C2  UNL     1      31.778  49.136  47.789  1.00  0.00     0.177 C 
BRANCH  34  35
HETATM   35  O1  UNL     1      32.472  49.678  48.868  1.00  0.00    -0.395 OA
HETATM   36  C1  UNL     1      33.226  50.782  48.498  1.00  0.00     0.201 C 
ENDBRANCH  34  35
ENDBRANCH  33  34
ENDBRANCH  32  33
ENDBRANCH   1  32
TORSDOF 7
ENDMDL
MODEL 3
REMARK VINA RESULT: -6.873711102      1.502      1.962
REMARK  7 active torsions:
REMARK  status: ('A' for Active; 'I' for Inactive)
REMARK    1  A    between atoms: O1_2  and  C2_3 
REMARK    2  A    between atoms: C2_3  and  C3_4 
REMARK    3  A    between atoms: C3_4  and  S1_5 
REMARK    4  A    between atoms: S1_5  and  C4_6 
REMARK    5  A    between atoms: C8_19  and  C9_20 
REMARK    6  A    between atoms: N6_28  and  C14_29 
REMARK    7  A    between atoms: C14_29  and  C15_30 
ROOT
HETATM    1  C4  UNL     1      32.539  51.514  46.046  1.00  0.00     0.117 A 
HETATM    2  N1  UNL     1      32.418  52.780  45.622  1.00  0.00    -0.184 N 
ATOM      3  H1  UNL     1      33.258  53.332  45.442  1.00  0.00     0.185 HD
HETATM    4  C5  UNL     1      31.189  53.341  45.427  1.00  0.00     0.678 A 
HETATM    5  N2  UNL     1      31.093  54.568  45.016  1.00  0.00    -0.234 N 
ATOM      6  H21 UNL     1      30.175  54.987  44.871  1.00  0.00     0.174 HD
ATOM      7  H22 UNL     1      31.954  55.088  44.847  1.00  0.00     0.174 HD
HETATM    8  N3  UNL     1      30.060  52.659  45.650  1.00  0.00    -0.174 N 
ATOM      9  H3  UNL     1      29.152  53.100  45.498  1.00  0.00     0.186 HD
HETATM   10  C6  UNL     1      30.138  51.366  46.083  1.00  0.00     0.154 A 
HETATM   11  C7  UNL     1      31.382  50.803  46.278  1.00  0.00     0.113 A 
HETATM   12  N4  UNL     1      31.185  49.554  46.689  1.00  0.00    -0.340 N 
ATOM     13  H4  UNL     1      31.929  48.893  46.913  1.00  0.00     0.167 HD
HETATM   14  C8  UNL     1      29.876  49.284  46.770  1.00  0.00     0.090 A 
HETATM   15  N6  UNL     1      29.236  50.420  46.389  1.00  0.00    -0.320 N 
ENDROOT
BRANCH  14  16
HETATM   16  C9  UNL     1      29.230  47.989  47.193  1.00  0.00     0.057 C 
HETATM   17  C10 UNL     1      30.054  46.819  46.672  1.00  0.00     0.040 C 
HETATM   18  C11 UNL     1      30.463  45.874  47.762  1.00  0.00     0.233 C 
HETATM   19  N5  UNL     1      29.235  45.520  48.492  1.00  0.00    -0.075 N 
HETATM   20  C12 UNL     1      28.908  46.663  49.306  1.00  0.00     0.233 C 
ATOM     21  H52 UNL     1      28.473  45.224  47.883  1.00  0.00     0.277 HD
ATOM     22  H51 UNL     1      29.315  44.653  49.023  1.00  0.00     0.277 HD
HETATM   23  C13 UNL     1      29.283  47.973  48.701  1.00  0.00     0.040 C 
ENDBRANCH  14  16
BRANCH  15  24
HETATM   24  C14 UNL     1      27.803  50.566  46.341  1.00  0.00     0.136 C 
BRANCH  24  25
HETATM   25  C15 UNL     1      27.148  49.886  45.165  1.00  0.00     0.004 C 
HETATM   26  C16 UNL     1      25.903  50.591  44.769  1.00  0.00     0.006 C 
HETATM   27  C17 UNL     1      25.315  49.926  43.514  1.00  0.00     0.005 C 
HETATM   28  C18 UNL     1      26.278  50.249  42.391  1.00  0.00    -0.019 C 
HETATM   29  C19 UNL     1      25.684  49.763  41.097  1.00  0.00     0.010 C 
HETATM   30  C20 UNL     1      27.547  49.457  42.714  1.00  0.00     0.005 C 
HETATM   31  C21 UNL     1      28.130  49.890  44.011  1.00  0.00     0.006 C 
ENDBRANCH  24  25
ENDBRANCH  15  24
BRANCH   1  32
HETATM   32  S1  UNL     1      34.106  50.714  46.322  1.00  0.00    -0.107 SA
BRANCH  32  33
HETATM   33  C3  UNL     1      34.312  50.495  48.109  1.00  0.00     0.107 C 
BRANCH  33  34
HETATM   34  C2  UNL     1      33.954  51.749  48.869  1.00  0.00     0.177 C 
BRANCH  34  35
HETATM   35  O1  UNL     1      32.788  51.520  49.597  1.00  0.00    -0.395 OA
HETATM   36  C1  UNL     1      31.940  52.618  49.576  1.00  0.00     0.201 C 
ENDBRANCH  34  35
ENDBRANCH  33  34
ENDBRANCH  32  33
ENDBRANCH   1  32
TORSDOF 7
ENDMDL
MODEL 4
REMARK VINA RESULT: -6.770990149      3.837      6.584
REMARK  7 active torsions:
REMARK  status: ('A' for Active; 'I' for Inactive)
REMARK    1  A    between atoms: O1_2  and  C2_3 
REMARK    2  A    between atoms: C2_3  and  C3_4 
REMARK    3  A    between atoms: C3_4  and  S1_5 
REMARK    4  A    between atoms: S1_5  and  C4_6 
REMARK    5  A    between atoms: C8_19  and  C9_20 
REMARK    6  A    between atoms: N6_28  and  C14_29 
REMARK    7  A    between atoms: C14_29  and  C15_30 
ROOT
HETATM    1  C4  UNL     1      29.582  48.542  46.482  1.00  0.00     0.117 A 
HETATM    2  N1  UNL     1      29.842  47.584  47.383  1.00  0.00    -0.184 N 
ATOM      3  H1  UNL     1      30.543  47.750  48.106  1.00  0.00     0.185 HD
HETATM    4  C5  UNL     1      29.184  46.388  47.346  1.00  0.00     0.678 A 
HETATM    5  N2  UNL     1      29.450  45.474  48.226  1.00  0.00    -0.234 N 
ATOM      6  H21 UNL     1      28.958  44.580  48.199  1.00  0.00     0.174 HD
ATOM      7  H22 UNL     1      30.155  45.676  48.934  1.00  0.00     0.174 HD
HETATM    8  N3  UNL     1      28.258  46.122  46.417  1.00  0.00    -0.174 N 
ATOM      9  H3  UNL     1      27.780  45.221  46.409  1.00  0.00     0.186 HD
HETATM   10  C6  UNL     1      27.963  47.072  45.481  1.00  0.00     0.154 A 
HETATM   11  C7  UNL     1      28.631  48.278  45.523  1.00  0.00     0.113 A 
HETATM   12  N4  UNL     1      28.163  49.017  44.522  1.00  0.00    -0.340 N 
ATOM     13  H4  UNL     1      28.474  49.964  44.305  1.00  0.00     0.167 HD
HETATM   14  C8  UNL     1      27.228  48.348  43.836  1.00  0.00     0.090 A 
HETATM   15  N6  UNL     1      27.113  47.138  44.444  1.00  0.00    -0.320 N 
ENDROOT
BRANCH  14  16
HETATM   16  C9  UNL     1      26.452  48.825  42.635  1.00  0.00     0.057 C 
HETATM   17  C10 UNL     1      25.371  49.799  43.085  1.00  0.00     0.040 C 
HETATM   18  C11 UNL     1      25.452  51.117  42.373  1.00  0.00     0.233 C 
HETATM   19  N5  UNL     1      25.483  50.813  40.933  1.00  0.00    -0.075 N 
HETATM   20  C12 UNL     1      26.812  50.331  40.653  1.00  0.00     0.233 C 
ATOM     21  H52 UNL     1      24.748  50.171  40.638  1.00  0.00     0.277 HD
ATOM     22  H51 UNL     1      25.205  51.599  40.347  1.00  0.00     0.277 HD
HETATM   23  C13 UNL     1      27.439  49.575  41.774  1.00  0.00     0.040 C 
ENDBRANCH  14  16
BRANCH  15  24
HETATM   24  C14 UNL     1      26.214  46.097  44.015  1.00  0.00     0.136 C 
BRANCH  24  25
HETATM   25  C15 UNL     1      25.511  45.379  45.139  1.00  0.00     0.004 C 
HETATM   26  C16 UNL     1      24.189  45.995  45.420  1.00  0.00     0.006 C 
HETATM   27  C17 UNL     1      23.465  45.183  46.504  1.00  0.00     0.005 C 
HETATM   28  C18 UNL     1      23.110  43.861  45.857  1.00  0.00    -0.019 C 
HETATM   29  C19 UNL     1      22.257  43.073  46.814  1.00  0.00     0.010 C 
HETATM   30  C20 UNL     1      24.448  43.150  45.641  1.00  0.00     0.005 C 
HETATM   31  C21 UNL     1      25.327  43.932  44.732  1.00  0.00     0.006 C 
ENDBRANCH  24  25
ENDBRANCH  15  24
BRANCH   1  32
HETATM   32  S1  UNL     1      30.398  50.125  46.468  1.00  0.00    -0.107 SA
BRANCH  32  33
HETATM   33  C3  UNL     1      31.164  50.371  48.092  1.00  0.00     0.107 C 
BRANCH  33  34
HETATM   34  C2  UNL     1      32.599  49.902  48.107  1.00  0.00     0.177 C 
BRANCH  34  35
HETATM   35  O1  UNL     1      33.202  50.325  49.290  1.00  0.00    -0.395 OA
HETATM   36  C1  UNL     1      33.577  51.659  49.232  1.00  0.00     0.201 C 
ENDBRANCH  34  35
ENDBRANCH  33  34
ENDBRANCH  32  33
ENDBRANCH   1  32
TORSDOF 7
ENDMDL
MODEL 5
REMARK VINA RESULT: -6.737449234      3.992      7.915
REMARK  7 active torsions:
REMARK  status: ('A' for Active; 'I' for Inactive)
REMARK    1  A    between atoms: O1_2  and  C2_3 
REMARK    2  A    between atoms: C2_3  and  C3_4 
REMARK    3  A    between atoms: C3_4  and  S1_5 
REMARK    4  A    between atoms: S1_5  and  C4_6 
REMARK    5  A    between atoms: C8_19  and  C9_20 
REMARK    6  A    between atoms: N6_28  and  C14_29 
REMARK    7  A    between atoms: C14_29  and  C15_30 
ROOT
HETATM    1  C4  UNL     1      27.332  45.508  45.706  1.00  0.00     0.117 A 
HETATM    2  N1  UNL     1      27.842  44.988  46.831  1.00  0.00    -0.184 N 
ATOM      3  H1  UNL     1      27.681  44.004  47.048  1.00  0.00     0.185 HD
HETATM    4  C5  UNL     1      28.573  45.757  47.692  1.00  0.00     0.678 A 
HETATM    5  N2  UNL     1      29.058  45.236  48.775  1.00  0.00    -0.234 N 
ATOM      6  H21 UNL     1      29.604  45.810  49.417  1.00  0.00     0.174 HD
ATOM      7  H22 UNL     1      28.878  44.249  48.958  1.00  0.00     0.174 HD
HETATM    8  N3  UNL     1      28.810  47.052  47.451  1.00  0.00    -0.174 N 
ATOM      9  H3  UNL     1      29.358  47.607  48.109  1.00  0.00     0.186 HD
HETATM   10  C6  UNL     1      28.308  47.621  46.315  1.00  0.00     0.154 A 
HETATM   11  C7  UNL     1      27.570  46.840  45.449  1.00  0.00     0.113 A 
HETATM   12  N4  UNL     1      27.208  47.619  44.435  1.00  0.00    -0.340 N 
ATOM     13  H4  UNL     1      26.651  47.311  43.638  1.00  0.00     0.167 HD
HETATM   14  C8  UNL     1      27.673  48.863  44.603  1.00  0.00     0.090 A 
HETATM   15  N6  UNL     1      28.357  48.850  45.778  1.00  0.00    -0.320 N 
ENDROOT
BRANCH  14  16
HETATM   16  C9  UNL     1      27.487  50.045  43.687  1.00  0.00     0.057 C 
HETATM   17  C10 UNL     1      27.537  49.575  42.239  1.00  0.00     0.040 C 
HETATM   18  C11 UNL     1      26.321  49.983  41.461  1.00  0.00     0.233 C 
HETATM   19  N5  UNL     1      26.163  51.433  41.661  1.00  0.00    -0.075 N 
HETATM   20  C12 UNL     1      25.637  51.600  42.992  1.00  0.00     0.233 C 
ATOM     21  H52 UNL     1      27.019  51.961  41.494  1.00  0.00     0.277 HD
ATOM     22  H51 UNL     1      25.597  51.882  40.942  1.00  0.00     0.277 HD
HETATM   23  C13 UNL     1      26.102  50.574  43.968  1.00  0.00     0.040 C 
ENDBRANCH  14  16
BRANCH  15  24
HETATM   24  C14 UNL     1      29.017  49.999  46.344  1.00  0.00     0.136 C 
BRANCH  24  25
HETATM   25  C15 UNL     1      30.475  50.119  45.982  1.00  0.00     0.004 C 
HETATM   26  C16 UNL     1      30.785  51.477  45.465  1.00  0.00     0.006 C 
HETATM   27  C17 UNL     1      32.293  51.591  45.195  1.00  0.00     0.005 C 
HETATM   28  C18 UNL     1      32.956  51.571  46.556  1.00  0.00    -0.019 C 
HETATM   29  C19 UNL     1      34.425  51.839  46.376  1.00  0.00     0.010 C 
HETATM   30  C20 UNL     1      32.743  50.150  47.082  1.00  0.00     0.005 C 
HETATM   31  C21 UNL     1      31.295  49.846  47.227  1.00  0.00     0.006 C 
ENDBRANCH  24  25
ENDBRANCH  15  24
BRANCH   1  32
HETATM   32  S1  UNL     1      26.370  44.569  44.537  1.00  0.00    -0.107 SA
BRANCH  32  33
HETATM   33  C3  UNL     1      24.847  44.043  45.366  1.00  0.00     0.107 C 
BRANCH  33  34
HETATM   34  C2  UNL     1      25.065  42.797  46.191  1.00  0.00     0.177 C 
BRANCH  34  35
HETATM   35  O1  UNL     1      25.483  43.167  47.468  1.00  0.00    -0.395 OA
HETATM   36  C1  UNL     1      26.094  42.117  48.137  1.00  0.00     0.201 C 
ENDBRANCH  34  35
ENDBRANCH  33  34
ENDBRANCH  32  33
ENDBRANCH   1  32
TORSDOF 7
ENDMDL
