MODEL 1
REMARK VINA RESULT: -8.017135873      0.000      0.000
REMARK  9 active torsions:
REMARK  status: ('A' for Active; 'I' for Inactive)
REMARK    1  A    between atoms: C2_2  and  C3_3 
REMARK    2  A    between atoms: C2_2  and  C16_23 
REMARK    3  A    between atoms: C3_3  and  C4_4 
REMARK    4  A    between atoms: C4_4  and  O1_6 
REMARK    5  A    between atoms: C4_4  and  C6_8 
REMARK    6  A    between atoms: C7_9  and  C8_10 
REMARK    7  A    between atoms: N1_12  and  C10_13 
REMARK    8  A    between atoms: C17_24  and  O2_25 
REMARK    9  A    between atoms: C19_29  and  O3_30 
ROOT
HETATM    1  C4  UNL     1      29.833  47.331  48.197  1.00  0.00     0.076 C 
HETATM    2  C5  UNL     1      30.698  46.529  47.373  1.00  0.00     0.050 C 
ENDROOT
BRANCH   1   3
HETATM    3  C3  UNL     1      29.165  48.588  47.578  1.00  0.00     0.076 C 
BRANCH   3   4
HETATM    4  C2  UNL     1      29.837  49.048  46.389  1.00  0.00    -0.063 C 
HETATM    5  C1  UNL     1      29.205  49.119  45.036  1.00  0.00     0.044 C 
BRANCH   4   6
HETATM    6  C16 UNL     1      30.658  50.310  46.549  1.00  0.00     0.052 A 
HETATM    7  C17 UNL     1      30.253  51.611  46.650  1.00  0.00     0.103 A 
HETATM    8  C18 UNL     1      31.378  52.410  46.946  1.00  0.00     0.048 A 
HETATM    9  N4  UNL     1      32.433  51.589  47.026  1.00  0.00    -0.328 N 
HETATM   10  C23 UNL     1      31.630  53.858  47.061  1.00  0.00     0.060 C 
HETATM   11  C19 UNL     1      32.042  50.322  46.792  1.00  0.00     0.156 A 
HETATM   12  C20 UNL     1      33.700  52.255  47.375  1.00  0.00     0.131 C 
HETATM   13  C21 UNL     1      33.986  53.300  46.312  1.00  0.00     0.021 C 
HETATM   14  C22 UNL     1      32.779  54.143  46.060  1.00  0.00     0.008 C 
BRANCH   7  15
HETATM   15  O2  UNL     1      29.052  52.207  46.520  1.00  0.00    -0.358 OA
ATOM     16  H2  UNL     1      28.162  51.896  46.636  1.00  0.00     0.217 HD
ENDBRANCH   7  15
BRANCH  11  17
HETATM   17  O3  UNL     1      32.833  49.204  46.781  1.00  0.00    -0.345 OA
ATOM     18  H3  UNL     1      33.588  49.091  46.216  1.00  0.00     0.219 HD
ENDBRANCH  11  17
ENDBRANCH   4   6
ENDBRANCH   3   4
ENDBRANCH   1   3
BRANCH   1  19
HETATM   19  O1  UNL     1      30.848  48.067  49.058  1.00  0.00    -0.386 OA
ATOM     20  H1  UNL     1      30.322  48.105  49.849  1.00  0.00     0.211 HD
ENDBRANCH   1  19
BRANCH   1  21
HETATM   21  C6  UNL     1      28.949  46.816  49.218  1.00  0.00     0.013 C 
HETATM   22  C7  UNL     1      27.599  46.344  49.006  1.00  0.00     0.031 C 
BRANCH  22  23
HETATM   23  C8  UNL     1      27.269  45.271  48.080  1.00  0.00     0.066 A 
HETATM   24  C9  UNL     1      26.553  44.087  48.294  1.00  0.00     0.143 A 
HETATM   25  N1  UNL     1      26.412  43.443  47.100  1.00  0.00    -0.282 N 
HETATM   26  N2  UNL     1      27.025  44.212  46.213  1.00  0.00    -0.240 N 
HETATM   27  N3  UNL     1      27.527  45.277  46.760  1.00  0.00    -0.285 N 
ATOM     28  H2  UNL     1      27.094  43.994  45.219  1.00  0.00     0.208 HD
ATOM     29  H3  UNL     1      28.040  46.006  46.264  1.00  0.00     0.188 HD
BRANCH  25  30
HETATM   30  C10 UNL     1      25.747  42.224  46.749  1.00  0.00     0.109 C 
HETATM   31  C11 UNL     1      24.327  42.562  46.310  1.00  0.00     0.027 C 
HETATM   32  C12 UNL     1      23.521  41.346  46.022  1.00  0.00     0.002 C 
HETATM   33  C13 UNL     1      23.530  40.359  47.172  1.00  0.00     0.000 C 
HETATM   34  C14 UNL     1      24.924  40.088  47.670  1.00  0.00     0.002 C 
HETATM   35  C15 UNL     1      25.658  41.355  47.972  1.00  0.00     0.027 C 
ENDBRANCH  25  30
ENDBRANCH  22  23
ENDBRANCH   1  21
TORSDOF 9
ENDMDL
MODEL 2
REMARK VINA RESULT: -7.965422676      2.022      3.297
REMARK  9 active torsions:
REMARK  status: ('A' for Active; 'I' for Inactive)
REMARK    1  A    between atoms: C2_2  and  C3_3 
REMARK    2  A    between atoms: C2_2  and  C16_23 
REMARK    3  A    between atoms: C3_3  and  C4_4 
REMARK    4  A    between atoms: C4_4  and  O1_6 
REMARK    5  A    between atoms: C4_4  and  C6_8 
REMARK    6  A    between atoms: C7_9  and  C8_10 
REMARK    7  A    between atoms: N1_12  and  C10_13 
REMARK    8  A    between atoms: C17_24  and  O2_25 
REMARK    9  A    between atoms: C19_29  and  O3_30 
ROOT
HETATM    1  C4  UNL     1      27.028  48.220  46.367  1.00  0.00     0.076 C 
HETATM    2  C5  UNL     1      26.176  48.441  47.505  1.00  0.00     0.050 C 
ENDROOT
BRANCH   1   3
HETATM    3  C3  UNL     1      28.500  47.791  46.609  1.00  0.00     0.076 C 
BRANCH   3   4
HETATM    4  C2  UNL     1      28.931  48.013  47.966  1.00  0.00    -0.063 C 
HETATM    5  C1  UNL     1      29.177  46.926  48.962  1.00  0.00     0.044 C 
BRANCH   4   6
HETATM    6  C16 UNL     1      30.048  49.021  48.140  1.00  0.00     0.052 A 
HETATM    7  C17 UNL     1      31.401  48.834  48.149  1.00  0.00     0.103 A 
HETATM    8  C18 UNL     1      32.028  50.098  48.183  1.00  0.00     0.048 A 
HETATM    9  N4  UNL     1      31.056  51.020  48.187  1.00  0.00    -0.328 N 
HETATM   10  C23 UNL     1      33.417  50.572  48.322  1.00  0.00     0.060 C 
HETATM   11  C19 UNL     1      29.854  50.412  48.164  1.00  0.00     0.156 A 
HETATM   12  C20 UNL     1      31.535  52.412  48.177  1.00  0.00     0.131 C 
HETATM   13  C21 UNL     1      32.394  52.619  49.411  1.00  0.00     0.021 C 
HETATM   14  C22 UNL     1      33.394  51.519  49.550  1.00  0.00     0.008 C 
BRANCH   7  15
HETATM   15  O2  UNL     1      32.171  47.729  48.136  1.00  0.00    -0.358 OA
ATOM     16  H2  UNL     1      32.582  47.223  48.827  1.00  0.00     0.217 HD
ENDBRANCH   7  15
BRANCH  11  17
HETATM   17  O3  UNL     1      28.625  51.017  48.164  1.00  0.00    -0.345 OA
ATOM     18  H3  UNL     1      28.066  51.088  48.929  1.00  0.00     0.219 HD
ENDBRANCH  11  17
ENDBRANCH   4   6
ENDBRANCH   3   4
ENDBRANCH   1   3
BRANCH   1  19
HETATM   19  O1  UNL     1      27.321  49.650  45.939  1.00  0.00    -0.386 OA
ATOM     20  H1  UNL     1      26.418  49.923  45.822  1.00  0.00     0.211 HD
ENDBRANCH   1  19
BRANCH   1  21
HETATM   21  C6  UNL     1      26.600  47.653  45.109  1.00  0.00     0.013 C 
HETATM   22  C7  UNL     1      26.956  46.344  44.609  1.00  0.00     0.031 C 
BRANCH  22  23
HETATM   23  C8  UNL     1      26.682  45.115  45.336  1.00  0.00     0.066 A 
HETATM   24  C9  UNL     1      25.643  44.808  46.224  1.00  0.00     0.143 A 
HETATM   25  N1  UNL     1      25.746  43.494  46.575  1.00  0.00    -0.282 N 
HETATM   26  N2  UNL     1      26.807  43.040  45.925  1.00  0.00    -0.240 N 
HETATM   27  N3  UNL     1      27.363  43.963  45.201  1.00  0.00    -0.285 N 
ATOM     28  H2  UNL     1      27.147  42.080  45.986  1.00  0.00     0.208 HD
ATOM     29  H3  UNL     1      28.191  43.834  44.619  1.00  0.00     0.188 HD
BRANCH  25  30
HETATM   30  C10 UNL     1      24.936  42.668  47.419  1.00  0.00     0.109 C 
HETATM   31  C11 UNL     1      24.801  43.353  48.774  1.00  0.00     0.027 C 
HETATM   32  C12 UNL     1      24.059  42.519  49.757  1.00  0.00     0.002 C 
HETATM   33  C13 UNL     1      24.640  41.126  49.891  1.00  0.00     0.000 C 
HETATM   34  C14 UNL     1      24.859  40.477  48.551  1.00  0.00     0.002 C 
HETATM   35  C15 UNL     1      25.641  41.358  47.632  1.00  0.00     0.027 C 
ENDBRANCH  25  30
ENDBRANCH  22  23
ENDBRANCH   1  21
TORSDOF 9
ENDMDL
MODEL 3
REMARK VINA RESULT: -7.963322421      1.413      1.825
REMARK  9 active torsions:
REMARK  status: ('A' for Active; 'I' for Inactive)
REMARK    1  A    between atoms: C2_2  and  C3_3 
REMARK    2  A    between atoms: C2_2  and  C16_23 
REMARK    3  A    between atoms: C3_3  and  C4_4 
REMARK    4  A    between atoms: C4_4  and  O1_6 
REMARK    5  A    between atoms: C4_4  and  C6_8 
REMARK    6  A    between atoms: C7_9  and  C8_10 
REMARK    7  A    between atoms: N1_12  and  C10_13 
REMARK    8  A    between atoms: C17_24  and  O2_25 
REMARK    9  A    between atoms: C19_29  and  O3_30 
ROOT
HETATM    1  C4  UNL     1      28.866  46.734  48.482  1.00  0.00     0.076 C 
HETATM    2  C5  UNL     1      29.595  45.631  47.917  1.00  0.00     0.050 C 
ENDROOT
BRANCH   1   3
HETATM    3  C3  UNL     1      29.496  48.152  48.427  1.00  0.00     0.076 C 
BRANCH   3   4
HETATM    4  C2  UNL     1      30.068  48.459  47.141  1.00  0.00    -0.063 C 
HETATM    5  C1  UNL     1      29.277  48.630  45.884  1.00  0.00     0.044 C 
BRANCH   4   6
HETATM    6  C16 UNL     1      31.124  49.545  47.137  1.00  0.00     0.052 A 
HETATM    7  C17 UNL     1      31.056  50.831  46.682  1.00  0.00     0.103 A 
HETATM    8  C18 UNL     1      32.245  51.499  47.044  1.00  0.00     0.048 A 
HETATM    9  N4  UNL     1      33.003  50.619  47.712  1.00  0.00    -0.328 N 
HETATM   10  C23 UNL     1      32.827  52.823  46.761  1.00  0.00     0.060 C 
HETATM   11  C19 UNL     1      32.365  49.435  47.786  1.00  0.00     0.156 A 
HETATM   12  C20 UNL     1      34.278  51.165  48.208  1.00  0.00     0.131 C 
HETATM   13  C21 UNL     1      35.068  51.666  47.013  1.00  0.00     0.021 C 
HETATM   14  C22 UNL     1      34.215  52.523  46.137  1.00  0.00     0.008 C 
BRANCH   7  15
HETATM   15  O2  UNL     1      30.116  51.509  45.995  1.00  0.00    -0.358 OA
ATOM     16  H2  UNL     1      30.130  52.335  45.527  1.00  0.00     0.217 HD
ENDBRANCH   7  15
BRANCH  11  17
HETATM   17  O3  UNL     1      32.821  48.290  48.386  1.00  0.00    -0.345 OA
ATOM     18  H3  UNL     1      32.456  47.926  49.183  1.00  0.00     0.219 HD
ENDBRANCH  11  17
ENDBRANCH   4   6
ENDBRANCH   3   4
ENDBRANCH   1   3
BRANCH   1  19
HETATM   19  O1  UNL     1      29.080  46.496  49.969  1.00  0.00    -0.386 OA
ATOM     20  H1  UNL     1      28.331  45.927  50.103  1.00  0.00     0.211 HD
ENDBRANCH   1  19
BRANCH   1  21
HETATM   21  C6  UNL     1      27.430  46.885  48.446  1.00  0.00     0.013 C 
HETATM   22  C7  UNL     1      26.520  46.110  47.632  1.00  0.00     0.031 C 
BRANCH  22  23
HETATM   23  C8  UNL     1      26.437  44.659  47.698  1.00  0.00     0.066 A 
HETATM   24  C9  UNL     1      25.913  43.832  48.700  1.00  0.00     0.143 A 
HETATM   25  N1  UNL     1      25.964  42.540  48.267  1.00  0.00    -0.282 N 
HETATM   26  N2  UNL     1      26.499  42.596  47.057  1.00  0.00    -0.240 N 
HETATM   27  N3  UNL     1      26.780  43.815  46.709  1.00  0.00    -0.285 N 
ATOM     28  H2  UNL     1      26.671  41.780  46.470  1.00  0.00     0.208 HD
ATOM     29  H3  UNL     1      27.198  44.090  45.819  1.00  0.00     0.188 HD
BRANCH  25  30
HETATM   30  C10 UNL     1      25.535  41.315  48.875  1.00  0.00     0.109 C 
HETATM   31  C11 UNL     1      24.984  40.406  47.783  1.00  0.00     0.027 C 
HETATM   32  C12 UNL     1      24.417  39.145  48.331  1.00  0.00     0.002 C 
HETATM   33  C13 UNL     1      23.393  39.396  49.420  1.00  0.00     0.000 C 
HETATM   34  C14 UNL     1      23.898  40.363  50.456  1.00  0.00     0.002 C 
HETATM   35  C15 UNL     1      24.417  41.618  49.832  1.00  0.00     0.027 C 
ENDBRANCH  25  30
ENDBRANCH  22  23
ENDBRANCH   1  21
TORSDOF 9
ENDMDL
MODEL 4
REMARK VINA RESULT: -7.949172313      2.093      3.407
REMARK  9 active torsions:
REMARK  status: ('A' for Active; 'I' for Inactive)
REMARK    1  A    between atoms: C2_2  and  C3_3 
REMARK    2  A    between atoms: C2_2  and  C16_23 
REMARK    3  A    between atoms: C3_3  and  C4_4 
REMARK    4  A    between atoms: C4_4  and  O1_6 
REMARK    5  A    between atoms: C4_4  and  C6_8 
REMARK    6  A    between atoms: C7_9  and  C8_10 
REMARK    7  A    between atoms: N1_12  and  C10_13 
REMARK    8  A    between atoms: C17_24  and  O2_25 
REMARK    9  A    between atoms: C19_29  and  O3_30 
ROOT
HETATM    1  C4  UNL     1      27.136  48.072  46.242  1.00  0.00     0.076 C 
HETATM    2  C5  UNL     1      26.297  48.480  47.337  1.00  0.00     0.050 C 
ENDROOT
BRANCH   1   3
HETATM    3  C3  UNL     1      28.618  47.713  46.529  1.00  0.00     0.076 C 
BRANCH   3   4
HETATM    4  C2  UNL     1      28.999  47.965  47.896  1.00  0.00    -0.063 C 
HETATM    5  C1  UNL     1      29.219  46.900  48.921  1.00  0.00     0.044 C 
BRANCH   4   6
HETATM    6  C16 UNL     1      30.100  48.987  48.090  1.00  0.00     0.052 A 
HETATM    7  C17 UNL     1      31.454  48.814  48.144  1.00  0.00     0.103 A 
HETATM    8  C18 UNL     1      32.067  50.085  48.178  1.00  0.00     0.048 A 
HETATM    9  N4  UNL     1      31.087  50.996  48.138  1.00  0.00    -0.328 N 
HETATM   10  C23 UNL     1      33.446  50.575  48.353  1.00  0.00     0.060 C 
HETATM   11  C19 UNL     1      29.892  50.376  48.087  1.00  0.00     0.156 A 
HETATM   12  C20 UNL     1      31.552  52.394  48.123  1.00  0.00     0.131 C 
HETATM   13  C21 UNL     1      32.370  52.627  49.380  1.00  0.00     0.021 C 
HETATM   14  C22 UNL     1      33.376  51.539  49.566  1.00  0.00     0.008 C 
BRANCH   7  15
HETATM   15  O2  UNL     1      32.235  47.717  48.171  1.00  0.00    -0.358 OA
ATOM     16  H2  UNL     1      33.068  47.509  47.765  1.00  0.00     0.217 HD
ENDBRANCH   7  15
BRANCH  11  17
HETATM   17  O3  UNL     1      28.658  50.968  48.040  1.00  0.00    -0.345 OA
ATOM     18  H3  UNL     1      28.432  51.766  48.503  1.00  0.00     0.219 HD
ENDBRANCH  11  17
ENDBRANCH   4   6
ENDBRANCH   3   4
ENDBRANCH   1   3
BRANCH   1  19
HETATM   19  O1  UNL     1      27.399  49.407  45.561  1.00  0.00    -0.386 OA
ATOM     20  H1  UNL     1      26.513  49.553  45.249  1.00  0.00     0.211 HD
ENDBRANCH   1  19
BRANCH   1  21
HETATM   21  C6  UNL     1      26.699  47.284  45.112  1.00  0.00     0.013 C 
HETATM   22  C7  UNL     1      27.054  45.906  44.856  1.00  0.00     0.031 C 
BRANCH  22  23
HETATM   23  C8  UNL     1      26.789  44.830  45.799  1.00  0.00     0.066 A 
HETATM   24  C9  UNL     1      26.255  44.879  47.093  1.00  0.00     0.143 A 
HETATM   25  N1  UNL     1      26.098  43.603  47.546  1.00  0.00    -0.282 N 
HETATM   26  N2  UNL     1      26.525  42.826  46.562  1.00  0.00    -0.240 N 
HETATM   27  N3  UNL     1      26.929  43.518  45.541  1.00  0.00    -0.285 N 
ATOM     28  H2  UNL     1      26.536  41.807  46.602  1.00  0.00     0.208 HD
ATOM     29  H3  UNL     1      27.297  43.125  44.674  1.00  0.00     0.188 HD
BRANCH  25  30
HETATM   30  C10 UNL     1      25.570  43.087  48.774  1.00  0.00     0.109 C 
HETATM   31  C11 UNL     1      25.555  41.565  48.687  1.00  0.00     0.027 C 
HETATM   32  C12 UNL     1      24.925  40.938  49.880  1.00  0.00     0.002 C 
HETATM   33  C13 UNL     1      23.546  41.495  50.167  1.00  0.00     0.000 C 
HETATM   34  C14 UNL     1      23.535  43.000  50.167  1.00  0.00     0.002 C 
HETATM   35  C15 UNL     1      24.150  43.555  48.923  1.00  0.00     0.027 C 
ENDBRANCH  25  30
ENDBRANCH  22  23
ENDBRANCH   1  21
TORSDOF 9
ENDMDL
MODEL 5
REMARK VINA RESULT: -7.894080368      1.507      2.641
REMARK  9 active torsions:
REMARK  status: ('A' for Active; 'I' for Inactive)
REMARK    1  A    between atoms: C2_2  and  C3_3 
REMARK    2  A    between atoms: C2_2  and  C16_23 
REMARK    3  A    between atoms: C3_3  and  C4_4 
REMARK    4  A    between atoms: C4_4  and  O1_6 
REMARK    5  A    between atoms: C4_4  and  C6_8 
REMARK    6  A    between atoms: C7_9  and  C8_10 
REMARK    7  A    between atoms: N1_12  and  C10_13 
REMARK    8  A    between atoms: C17_24  and  O2_25 
REMARK    9  A    between atoms: C19_29  and  O3_30 
ROOT
HETATM    1  C4  UNL     1      28.503  46.445  47.206  1.00  0.00     0.076 C 
HETATM    2  C5  UNL     1      27.496  46.803  46.243  1.00  0.00     0.050 C 
ENDROOT
BRANCH   1   3
HETATM    3  C3  UNL     1      29.845  47.226  47.210  1.00  0.00     0.076 C 
BRANCH   3   4
HETATM    4  C2  UNL     1      29.660  48.653  47.292  1.00  0.00    -0.063 C 
HETATM    5  C1  UNL     1      28.873  49.342  48.359  1.00  0.00     0.044 C 
BRANCH   4   6
HETATM    6  C16 UNL     1      30.904  49.487  47.065  1.00  0.00     0.052 A 
HETATM    7  C17 UNL     1      32.165  49.332  47.568  1.00  0.00     0.103 A 
HETATM    8  C18 UNL     1      33.017  50.266  46.940  1.00  0.00     0.048 A 
HETATM    9  N4  UNL     1      32.268  50.958  46.071  1.00  0.00    -0.328 N 
HETATM   10  C23 UNL     1      34.420  50.681  47.112  1.00  0.00     0.060 C 
HETATM   11  C19 UNL     1      30.995  50.521  46.119  1.00  0.00     0.156 A 
HETATM   12  C20 UNL     1      33.012  51.959  45.286  1.00  0.00     0.131 C 
HETATM   13  C21 UNL     1      33.644  52.938  46.259  1.00  0.00     0.021 C 
HETATM   14  C22 UNL     1      34.357  52.212  47.352  1.00  0.00     0.008 C 
BRANCH   7  15
HETATM   15  O2  UNL     1      32.685  48.503  48.494  1.00  0.00    -0.358 OA
ATOM     16  H2  UNL     1      33.461  48.552  49.039  1.00  0.00     0.217 HD
ENDBRANCH   7  15
BRANCH  11  17
HETATM   17  O3  UNL     1      29.936  50.985  45.384  1.00  0.00    -0.345 OA
ATOM     18  H3  UNL     1      29.666  50.620  44.550  1.00  0.00     0.219 HD
ENDBRANCH  11  17
ENDBRANCH   4   6
ENDBRANCH   3   4
ENDBRANCH   1   3
BRANCH   1  19
HETATM   19  O1  UNL     1      29.042  45.157  46.603  1.00  0.00    -0.386 OA
ATOM     20  H1  UNL     1      29.937  45.452  46.483  1.00  0.00     0.211 HD
ENDBRANCH   1  19
BRANCH   1  21
HETATM   21  C6  UNL     1      28.240  46.010  48.559  1.00  0.00     0.013 C 
HETATM   22  C7  UNL     1      26.994  45.454  49.039  1.00  0.00     0.031 C 
BRANCH  22  23
HETATM   23  C8  UNL     1      26.380  44.268  48.462  1.00  0.00     0.066 A 
HETATM   24  C9  UNL     1      25.050  44.035  48.090  1.00  0.00     0.143 A 
HETATM   25  N1  UNL     1      24.973  42.809  47.498  1.00  0.00    -0.282 N 
HETATM   26  N2  UNL     1      26.208  42.330  47.522  1.00  0.00    -0.240 N 
HETATM   27  N3  UNL     1      27.038  43.161  48.076  1.00  0.00    -0.285 N 
ATOM     28  H2  UNL     1      26.475  41.419  47.150  1.00  0.00     0.208 HD
ATOM     29  H3  UNL     1      28.038  42.998  48.199  1.00  0.00     0.188 HD
BRANCH  25  30
HETATM   30  C10 UNL     1      23.874  42.101  46.913  1.00  0.00     0.109 C 
HETATM   31  C11 UNL     1      24.186  40.610  46.956  1.00  0.00     0.027 C 
HETATM   32  C12 UNL     1      23.145  39.795  46.275  1.00  0.00     0.002 C 
HETATM   33  C13 UNL     1      22.872  40.268  44.862  1.00  0.00     0.000 C 
HETATM   34  C14 UNL     1      22.650  41.755  44.799  1.00  0.00     0.002 C 
HETATM   35  C15 UNL     1      23.753  42.506  45.471  1.00  0.00     0.027 C 
ENDBRANCH  25  30
ENDBRANCH  22  23
ENDBRANCH   1  21
TORSDOF 9
ENDMDL
