MODEL 1
REMARK VINA RESULT: -7.349462536      0.000      0.000
REMARK  9 active torsions:
REMARK  status: ('A' for Active; 'I' for Inactive)
REMARK    1  A    between atoms: C2_2  and  C3_3 
REMARK    2  A    between atoms: C3_3  and  O1_4 
REMARK    3  A    between atoms: O1_4  and  C4_5 
REMARK    4  A    between atoms: C7_8  and  C8_9 
REMARK    5  A    between atoms: C12_16  and  C13_17 
REMARK    6  A    between atoms: C13_17  and  N2_18 
REMARK    7  A    between atoms: C14_19  and  O2_20 
REMARK    8  A    between atoms: C17_24  and  O3_25 
REMARK    9  A    between atoms: C22_32  and  O5_33 
ROOT
HETATM    1  C8  UNL     1      28.573  48.683  44.671  1.00  0.00     0.159 C 
HETATM    2  C9  UNL     1      28.222  49.868  43.762  1.00  0.00     0.069 C 
HETATM    3  C10 UNL     1      27.444  49.317  42.613  1.00  0.00     0.187 C 
HETATM    4  C11 UNL     1      26.769  50.463  41.849  1.00  0.00     0.040 C 
HETATM    5  N1  UNL     1      26.385  48.417  43.006  1.00  0.00    -0.043 N 
ATOM      6  H11 UNL     1      26.054  47.881  42.204  1.00  0.00     0.280 HD
ATOM      7  H12 UNL     1      25.536  48.938  43.226  1.00  0.00     0.280 HD
HETATM    8  C12 UNL     1      26.732  47.547  44.081  1.00  0.00     0.340 C 
HETATM    9  O4  UNL     1      27.356  48.192  45.143  1.00  0.00    -0.348 OA
ENDROOT
BRANCH   8  10
HETATM   10  C13 UNL     1      25.460  46.922  44.616  1.00  0.00     0.194 C 
BRANCH  10  11
HETATM   11  N2  UNL     1      25.727  45.890  45.585  1.00  0.00    -0.303 N 
HETATM   12  C14 UNL     1      25.975  46.058  46.882  1.00  0.00     0.151 A 
HETATM   13  C15 UNL     1      26.179  44.831  47.462  1.00  0.00     0.004 A 
HETATM   14  C16 UNL     1      26.042  43.912  46.458  1.00  0.00     0.004 A 
HETATM   15  C20 UNL     1      26.487  44.097  48.737  1.00  0.00     0.044 C 
HETATM   16  C17 UNL     1      25.766  44.587  45.319  1.00  0.00     0.151 A 
HETATM   17  C18 UNL     1      26.248  42.530  46.998  1.00  0.00     0.044 C 
HETATM   18  C19 UNL     1      25.903  42.723  48.456  1.00  0.00     0.009 C 
BRANCH  12  19
HETATM   19  O2  UNL     1      26.041  47.239  47.623  1.00  0.00    -0.345 OA
ATOM     20  H2  UNL     1      26.769  47.838  47.736  1.00  0.00     0.219 HD
ENDBRANCH  12  19
BRANCH  16  21
HETATM   21  O3  UNL     1      25.555  43.999  44.063  1.00  0.00    -0.345 OA
ATOM     22  H3  UNL     1      26.078  43.304  43.681  1.00  0.00     0.219 HD
ENDBRANCH  16  21
ENDBRANCH  10  11
ENDBRANCH   8  10
BRANCH   1  23
HETATM   23  C7  UNL     1      29.492  49.064  45.745  1.00  0.00    -0.026 A 
HETATM   24  C6  UNL     1      30.335  50.143  45.577  1.00  0.00     0.012 A 
HETATM   25  C5  UNL     1      31.223  50.533  46.581  1.00  0.00     0.040 A 
HETATM   26  C4  UNL     1      31.262  49.825  47.770  1.00  0.00     0.102 A 
HETATM   27  C22 UNL     1      30.418  48.748  47.937  1.00  0.00     0.102 A 
HETATM   28  C21 UNL     1      29.536  48.375  46.919  1.00  0.00     0.049 A 
BRANCH  26  29
HETATM   29  O1  UNL     1      32.115  50.169  48.786  1.00  0.00    -0.348 OA
BRANCH  29  30
HETATM   30  C3  UNL     1      33.066  51.190  48.741  1.00  0.00     0.175 C 
BRANCH  30  31
HETATM   31  C2  UNL     1      34.353  50.576  48.185  1.00  0.00     0.022 C 
HETATM   32  C1  UNL     1      34.842  51.314  46.983  1.00  0.00     0.007 C 
ENDBRANCH  30  31
ENDBRANCH  29  30
ENDBRANCH  26  29
BRANCH  27  33
HETATM   33  O5  UNL     1      30.469  48.048  49.134  1.00  0.00    -0.353 OA
HETATM   34  C23 UNL     1      29.308  47.326  49.549  1.00  0.00     0.210 C 
ENDBRANCH  27  33
ENDBRANCH   1  23
TORSDOF 9
ENDMDL
MODEL 2
REMARK VINA RESULT: -7.342845892      3.673      9.740
REMARK  9 active torsions:
REMARK  status: ('A' for Active; 'I' for Inactive)
REMARK    1  A    between atoms: C2_2  and  C3_3 
REMARK    2  A    between atoms: C3_3  and  O1_4 
REMARK    3  A    between atoms: O1_4  and  C4_5 
REMARK    4  A    between atoms: C7_8  and  C8_9 
REMARK    5  A    between atoms: C12_16  and  C13_17 
REMARK    6  A    between atoms: C13_17  and  N2_18 
REMARK    7  A    between atoms: C14_19  and  O2_20 
REMARK    8  A    between atoms: C17_24  and  O3_25 
REMARK    9  A    between atoms: C22_32  and  O5_33 
ROOT
HETATM    1  C8  UNL     1      25.701  43.140  47.796  1.00  0.00     0.159 C 
HETATM    2  C9  UNL     1      26.139  43.034  46.329  1.00  0.00     0.069 C 
HETATM    3  C10 UNL     1      26.609  44.391  45.919  1.00  0.00     0.187 C 
HETATM    4  C11 UNL     1      27.376  44.292  44.594  1.00  0.00     0.040 C 
HETATM    5  N1  UNL     1      27.517  45.002  46.863  1.00  0.00    -0.043 N 
ATOM      6  H11 UNL     1      27.610  46.000  46.676  1.00  0.00     0.280 HD
ATOM      7  H12 UNL     1      28.475  44.703  46.683  1.00  0.00     0.280 HD
HETATM    8  C12 UNL     1      27.169  44.779  48.228  1.00  0.00     0.340 C 
HETATM    9  O4  UNL     1      26.852  43.456  48.515  1.00  0.00    -0.348 OA
ENDROOT
BRANCH   8  10
HETATM   10  C13 UNL     1      28.358  45.157  49.088  1.00  0.00     0.194 C 
BRANCH  10  11
HETATM   11  N2  UNL     1      29.016  46.347  48.613  1.00  0.00    -0.303 N 
HETATM   12  C14 UNL     1      28.637  47.606  48.820  1.00  0.00     0.151 A 
HETATM   13  C15 UNL     1      29.526  48.450  48.203  1.00  0.00     0.004 A 
HETATM   14  C16 UNL     1      30.461  47.645  47.612  1.00  0.00     0.004 A 
HETATM   15  C20 UNL     1      29.884  49.881  47.917  1.00  0.00     0.044 C 
HETATM   16  C17 UNL     1      30.125  46.363  47.878  1.00  0.00     0.151 A 
HETATM   17  C18 UNL     1      31.484  48.482  46.907  1.00  0.00     0.044 C 
HETATM   18  C19 UNL     1      31.379  49.785  47.663  1.00  0.00     0.009 C 
BRANCH  12  19
HETATM   19  O2  UNL     1      27.537  48.092  49.531  1.00  0.00    -0.345 OA
ATOM     20  H2  UNL     1      26.848  48.679  49.244  1.00  0.00     0.219 HD
ENDBRANCH  12  19
BRANCH  16  21
HETATM   21  O3  UNL     1      30.838  45.235  47.445  1.00  0.00    -0.345 OA
ATOM     22  H3  UNL     1      31.677  44.944  47.784  1.00  0.00     0.219 HD
ENDBRANCH  16  21
ENDBRANCH  10  11
ENDBRANCH   8  10
BRANCH   1  23
HETATM   23  C7  UNL     1      25.048  41.918  48.267  1.00  0.00    -0.026 A 
HETATM   24  C6  UNL     1      24.732  41.778  49.603  1.00  0.00     0.012 A 
HETATM   25  C5  UNL     1      24.108  40.626  50.084  1.00  0.00     0.040 A 
HETATM   26  C4  UNL     1      23.798  39.601  49.207  1.00  0.00     0.102 A 
HETATM   27  C22 UNL     1      24.113  39.742  47.873  1.00  0.00     0.102 A 
HETATM   28  C21 UNL     1      24.737  40.904  47.411  1.00  0.00     0.049 A 
BRANCH  26  29
HETATM   29  O1  UNL     1      23.186  38.451  49.631  1.00  0.00    -0.348 OA
BRANCH  29  30
HETATM   30  C3  UNL     1      22.825  38.157  50.947  1.00  0.00     0.175 C 
BRANCH  30  31
HETATM   31  C2  UNL     1      22.725  36.634  51.052  1.00  0.00     0.022 C 
HETATM   32  C1  UNL     1      23.734  35.952  50.188  1.00  0.00     0.007 C 
ENDBRANCH  30  31
ENDBRANCH  29  30
ENDBRANCH  26  29
BRANCH  27  33
HETATM   33  O5  UNL     1      23.796  38.706  47.006  1.00  0.00    -0.353 OA
HETATM   34  C23 UNL     1      23.055  39.011  45.824  1.00  0.00     0.210 C 
ENDBRANCH  27  33
ENDBRANCH   1  23
TORSDOF 9
ENDMDL
MODEL 3
REMARK VINA RESULT: -7.225462956      3.850      9.714
REMARK  9 active torsions:
REMARK  status: ('A' for Active; 'I' for Inactive)
REMARK    1  A    between atoms: C2_2  and  C3_3 
REMARK    2  A    between atoms: C3_3  and  O1_4 
REMARK    3  A    between atoms: O1_4  and  C4_5 
REMARK    4  A    between atoms: C7_8  and  C8_9 
REMARK    5  A    between atoms: C12_16  and  C13_17 
REMARK    6  A    between atoms: C13_17  and  N2_18 
REMARK    7  A    between atoms: C14_19  and  O2_20 
REMARK    8  A    between atoms: C17_24  and  O3_25 
REMARK    9  A    between atoms: C22_32  and  O5_33 
ROOT
HETATM    1  C8  UNL     1      25.670  43.017  47.838  1.00  0.00     0.159 C 
HETATM    2  C9  UNL     1      26.077  42.894  46.364  1.00  0.00     0.069 C 
HETATM    3  C10 UNL     1      26.532  44.247  45.926  1.00  0.00     0.187 C 
HETATM    4  C11 UNL     1      27.271  44.135  44.587  1.00  0.00     0.040 C 
HETATM    5  N1  UNL     1      27.457  44.874  46.843  1.00  0.00    -0.043 N 
ATOM      6  H11 UNL     1      27.541  45.871  46.641  1.00  0.00     0.280 HD
ATOM      7  H12 UNL     1      28.412  44.577  46.647  1.00  0.00     0.280 HD
HETATM    8  C12 UNL     1      27.140  44.667  48.218  1.00  0.00     0.340 C 
HETATM    9  O4  UNL     1      26.835  43.347  48.529  1.00  0.00    -0.348 OA
ENDROOT
BRANCH   8  10
HETATM   10  C13 UNL     1      28.344  45.062  49.047  1.00  0.00     0.194 C 
BRANCH  10  11
HETATM   11  N2  UNL     1      28.961  46.272  48.568  1.00  0.00    -0.303 N 
HETATM   12  C14 UNL     1      28.505  47.514  48.714  1.00  0.00     0.151 A 
HETATM   13  C15 UNL     1      29.379  48.386  48.116  1.00  0.00     0.004 A 
HETATM   14  C16 UNL     1      30.386  47.618  47.602  1.00  0.00     0.004 A 
HETATM   15  C20 UNL     1      29.674  49.826  47.803  1.00  0.00     0.044 C 
HETATM   16  C17 UNL     1      30.106  46.327  47.891  1.00  0.00     0.151 A 
HETATM   17  C18 UNL     1      31.399  48.488  46.923  1.00  0.00     0.044 C 
HETATM   18  C19 UNL     1      31.184  49.805  47.630  1.00  0.00     0.009 C 
BRANCH  12  19
HETATM   19  O2  UNL     1      27.345  47.959  49.351  1.00  0.00    -0.345 OA
ATOM     20  H2  UNL     1      26.462  47.609  49.305  1.00  0.00     0.219 HD
ENDBRANCH  12  19
BRANCH  16  21
HETATM   21  O3  UNL     1      30.901  45.228  47.533  1.00  0.00    -0.345 OA
ATOM     22  H3  UNL     1      31.592  44.847  48.062  1.00  0.00     0.219 HD
ENDBRANCH  16  21
ENDBRANCH  10  11
ENDBRANCH   8  10
BRANCH   1  23
HETATM   23  C7  UNL     1      25.032  41.799  48.339  1.00  0.00    -0.026 A 
HETATM   24  C6  UNL     1      24.897  40.704  47.510  1.00  0.00     0.012 A 
HETATM   25  C5  UNL     1      24.295  39.526  47.957  1.00  0.00     0.040 A 
HETATM   26  C4  UNL     1      23.821  39.451  49.255  1.00  0.00     0.102 A 
HETATM   27  C22 UNL     1      23.957  40.546  50.082  1.00  0.00     0.102 A 
HETATM   28  C21 UNL     1      24.564  41.715  49.615  1.00  0.00     0.049 A 
BRANCH  26  29
HETATM   29  O1  UNL     1      23.223  38.318  49.740  1.00  0.00    -0.348 OA
BRANCH  29  30
HETATM   30  C3  UNL     1      23.859  37.099  49.978  1.00  0.00     0.175 C 
BRANCH  30  31
HETATM   31  C2  UNL     1      22.939  36.287  50.892  1.00  0.00     0.022 C 
HETATM   32  C1  UNL     1      22.083  37.169  51.739  1.00  0.00     0.007 C 
ENDBRANCH  30  31
ENDBRANCH  29  30
ENDBRANCH  26  29
BRANCH  27  33
HETATM   33  O5  UNL     1      23.478  40.456  51.381  1.00  0.00    -0.353 OA
HETATM   34  C23 UNL     1      22.250  41.113  51.700  1.00  0.00     0.210 C 
ENDBRANCH  27  33
ENDBRANCH   1  23
TORSDOF 9
ENDMDL
MODEL 4
REMARK VINA RESULT: -7.214378462      1.088      1.739
REMARK  9 active torsions:
REMARK  status: ('A' for Active; 'I' for Inactive)
REMARK    1  A    between atoms: C2_2  and  C3_3 
REMARK    2  A    between atoms: C3_3  and  O1_4 
REMARK    3  A    between atoms: O1_4  and  C4_5 
REMARK    4  A    between atoms: C7_8  and  C8_9 
REMARK    5  A    between atoms: C12_16  and  C13_17 
REMARK    6  A    between atoms: C13_17  and  N2_18 
REMARK    7  A    between atoms: C14_19  and  O2_20 
REMARK    8  A    between atoms: C17_24  and  O3_25 
REMARK    9  A    between atoms: C22_32  and  O5_33 
ROOT
HETATM    1  C8  UNL     1      28.574  49.325  44.596  1.00  0.00     0.159 C 
HETATM    2  C9  UNL     1      27.592  50.495  44.455  1.00  0.00     0.069 C 
HETATM    3  C10 UNL     1      26.816  50.260  43.201  1.00  0.00     0.187 C 
HETATM    4  C11 UNL     1      25.594  51.187  43.169  1.00  0.00     0.040 C 
HETATM    5  N1  UNL     1      26.302  48.915  43.079  1.00  0.00    -0.043 N 
ATOM      6  H11 UNL     1      26.006  48.730  42.121  1.00  0.00     0.280 HD
ATOM      7  H12 UNL     1      25.405  48.830  43.556  1.00  0.00     0.280 HD
HETATM    8  C12 UNL     1      27.205  47.907  43.528  1.00  0.00     0.340 C 
HETATM    9  O4  UNL     1      27.788  48.186  44.759  1.00  0.00    -0.348 OA
ENDROOT
BRANCH   8  10
HETATM   10  C13 UNL     1      26.435  46.610  43.674  1.00  0.00     0.194 C 
BRANCH  10  11
HETATM   11  N2  UNL     1      26.280  46.222  45.052  1.00  0.00    -0.303 N 
HETATM   12  C14 UNL     1      26.866  45.195  45.663  1.00  0.00     0.151 A 
HETATM   13  C15 UNL     1      26.460  45.162  46.974  1.00  0.00     0.004 A 
HETATM   14  C16 UNL     1      25.602  46.216  47.129  1.00  0.00     0.004 A 
HETATM   15  C20 UNL     1      26.575  44.447  48.290  1.00  0.00     0.044 C 
HETATM   16  C17 UNL     1      25.509  46.848  45.938  1.00  0.00     0.151 A 
HETATM   17  C18 UNL     1      25.101  46.265  48.540  1.00  0.00     0.044 C 
HETATM   18  C19 UNL     1      26.206  45.543  49.275  1.00  0.00     0.009 C 
BRANCH  12  19
HETATM   19  O2  UNL     1      27.757  44.252  45.148  1.00  0.00    -0.345 OA
ATOM     20  H2  UNL     1      27.583  43.502  44.591  1.00  0.00     0.219 HD
ENDBRANCH  12  19
BRANCH  16  21
HETATM   21  O3  UNL     1      24.723  47.983  45.685  1.00  0.00    -0.345 OA
ATOM     22  H3  UNL     1      24.209  48.456  46.328  1.00  0.00     0.219 HD
ENDBRANCH  16  21
ENDBRANCH  10  11
ENDBRANCH   8  10
BRANCH   1  23
HETATM   23  C7  UNL     1      29.522  49.529  45.693  1.00  0.00    -0.026 A 
HETATM   24  C6  UNL     1      30.367  50.620  45.677  1.00  0.00     0.012 A 
HETATM   25  C5  UNL     1      31.282  50.844  46.707  1.00  0.00     0.040 A 
HETATM   26  C4  UNL     1      31.346  49.956  47.768  1.00  0.00     0.102 A 
HETATM   27  C22 UNL     1      30.501  48.867  47.782  1.00  0.00     0.102 A 
HETATM   28  C21 UNL     1      29.592  48.662  46.740  1.00  0.00     0.049 A 
BRANCH  26  29
HETATM   29  O1  UNL     1      32.227  50.132  48.802  1.00  0.00    -0.348 OA
BRANCH  29  30
HETATM   30  C3  UNL     1      33.267  51.062  48.838  1.00  0.00     0.175 C 
BRANCH  30  31
HETATM   31  C2  UNL     1      34.425  50.466  48.035  1.00  0.00     0.022 C 
HETATM   32  C1  UNL     1      34.944  51.426  47.017  1.00  0.00     0.007 C 
ENDBRANCH  30  31
ENDBRANCH  29  30
ENDBRANCH  26  29
BRANCH  27  33
HETATM   33  O5  UNL     1      30.578  47.985  48.851  1.00  0.00    -0.353 OA
HETATM   34  C23 UNL     1      29.376  47.359  49.303  1.00  0.00     0.210 C 
ENDBRANCH  27  33
ENDBRANCH   1  23
TORSDOF 9
ENDMDL
MODEL 5
REMARK VINA RESULT: -7.192542371      2.651      8.020
REMARK  9 active torsions:
REMARK  status: ('A' for Active; 'I' for Inactive)
REMARK    1  A    between atoms: C2_2  and  C3_3 
REMARK    2  A    between atoms: C3_3  and  O1_4 
REMARK    3  A    between atoms: O1_4  and  C4_5 
REMARK    4  A    between atoms: C7_8  and  C8_9 
REMARK    5  A    between atoms: C12_16  and  C13_17 
REMARK    6  A    between atoms: C13_17  and  N2_18 
REMARK    7  A    between atoms: C14_19  and  O2_20 
REMARK    8  A    between atoms: C17_24  and  O3_25 
REMARK    9  A    between atoms: C22_32  and  O5_33 
ROOT
HETATM    1  C8  UNL     1      27.941  48.391  44.842  1.00  0.00     0.159 C 
HETATM    2  C9  UNL     1      27.016  47.330  45.451  1.00  0.00     0.069 C 
HETATM    3  C10 UNL     1      27.870  46.443  46.296  1.00  0.00     0.187 C 
HETATM    4  C11 UNL     1      26.982  45.579  47.200  1.00  0.00     0.040 C 
HETATM    5  N1  UNL     1      28.760  47.162  47.177  1.00  0.00    -0.043 N 
ATOM      6  H11 UNL     1      29.484  46.542  47.540  1.00  0.00     0.280 HD
ATOM      7  H12 UNL     1      28.286  47.401  48.048  1.00  0.00     0.280 HD
HETATM    8  C12 UNL     1      29.344  48.323  46.590  1.00  0.00     0.340 C 
HETATM    9  O4  UNL     1      28.432  49.129  45.918  1.00  0.00    -0.348 OA
ENDROOT
BRANCH   8  10
HETATM   10  C13 UNL     1      29.958  49.157  47.696  1.00  0.00     0.194 C 
BRANCH  10  11
HETATM   11  N2  UNL     1      31.141  49.853  47.260  1.00  0.00    -0.303 N 
HETATM   12  C14 UNL     1      31.196  50.896  46.434  1.00  0.00     0.151 A 
HETATM   13  C15 UNL     1      32.506  51.268  46.267  1.00  0.00     0.004 A 
HETATM   14  C16 UNL     1      33.243  50.404  47.029  1.00  0.00     0.004 A 
HETATM   15  C20 UNL     1      33.447  52.228  45.595  1.00  0.00     0.044 C 
HETATM   16  C17 UNL     1      32.384  49.548  47.626  1.00  0.00     0.151 A 
HETATM   17  C18 UNL     1      34.700  50.733  46.912  1.00  0.00     0.044 C 
HETATM   18  C19 UNL     1      34.647  52.192  46.526  1.00  0.00     0.009 C 
BRANCH  12  19
HETATM   19  O2  UNL     1      30.154  51.570  45.794  1.00  0.00    -0.345 OA
ATOM     20  H2  UNL     1      30.174  52.091  44.999  1.00  0.00     0.219 HD
ENDBRANCH  12  19
BRANCH  16  21
HETATM   21  O3  UNL     1      32.751  48.507  48.491  1.00  0.00    -0.345 OA
ATOM     22  H3  UNL     1      33.286  48.596  49.272  1.00  0.00     0.219 HD
ENDBRANCH  16  21
ENDBRANCH  10  11
ENDBRANCH   8  10
BRANCH   1  23
HETATM   23  C7  UNL     1      27.256  49.216  43.846  1.00  0.00    -0.026 A 
HETATM   24  C6  UNL     1      26.792  48.642  42.681  1.00  0.00     0.012 A 
HETATM   25  C5  UNL     1      26.133  49.400  41.711  1.00  0.00     0.040 A 
HETATM   26  C4  UNL     1      25.941  50.756  41.919  1.00  0.00     0.102 A 
HETATM   27  C22 UNL     1      26.404  51.328  43.085  1.00  0.00     0.102 A 
HETATM   28  C21 UNL     1      27.060  50.549  44.043  1.00  0.00     0.049 A 
BRANCH  26  29
HETATM   29  O1  UNL     1      25.300  51.542  40.998  1.00  0.00    -0.348 OA
BRANCH  29  30
HETATM   30  C3  UNL     1      25.628  51.645  39.645  1.00  0.00     0.175 C 
BRANCH  30  31
HETATM   31  C2  UNL     1      26.943  52.424  39.564  1.00  0.00     0.022 C 
HETATM   32  C1  UNL     1      26.758  53.861  39.922  1.00  0.00     0.007 C 
ENDBRANCH  30  31
ENDBRANCH  29  30
ENDBRANCH  26  29
BRANCH  27  33
HETATM   33  O5  UNL     1      26.204  52.687  43.279  1.00  0.00    -0.353 OA
HETATM   34  C23 UNL     1      26.608  53.262  44.522  1.00  0.00     0.210 C 
ENDBRANCH  27  33
ENDBRANCH   1  23
TORSDOF 9
ENDMDL
