MODEL 1
REMARK VINA RESULT: -6.637963306      0.000      0.000
REMARK  8 active torsions:
REMARK  status: ('A' for Active; 'I' for Inactive)
REMARK    1  A    between atoms: C2_2  and  C3_3 
REMARK    2  A    between atoms: C5_5  and  C6_6 
REMARK    3  A    between atoms: C10_13  and  C11_14 
REMARK    4  A    between atoms: C13_16  and  O1_17 
REMARK    5  A    between atoms: C15_19  and  O2_20 
REMARK    6  A    between atoms: C17_22  and  O3_23 
REMARK    7  A    between atoms: C21_29  and  O4_30 
REMARK    8  A    between atoms: C23_32  and  O5_33 
ROOT
HETATM    1  C6  UNL     1      29.835  49.835  46.439  1.00  0.00     0.315 C 
HETATM    2  N1  UNL     1      29.057  50.807  45.723  1.00  0.00    -0.046 N 
ATOM      3  H11 UNL     1      29.648  51.463  45.213  1.00  0.00     0.280 HD
ATOM      4  H12 UNL     1      28.604  51.467  46.354  1.00  0.00     0.280 HD
HETATM    5  C7  UNL     1      28.100  50.160  44.850  1.00  0.00     0.187 C 
HETATM    6  C8  UNL     1      28.742  49.408  43.710  1.00  0.00     0.040 C 
HETATM    7  C9  UNL     1      27.178  49.336  45.667  1.00  0.00     0.062 C 
HETATM    8  C10 UNL     1      27.687  48.834  46.966  1.00  0.00     0.114 C 
HETATM    9  N2  UNL     1      29.066  48.937  47.234  1.00  0.00    -0.384 N 
ATOM     10  H2  UNL     1      29.500  48.386  47.974  1.00  0.00     0.156 HD
ENDROOT
BRANCH   1  11
HETATM   11  C5  UNL     1      30.893  50.561  47.190  1.00  0.00    -0.006 A 
HETATM   12  C4  UNL     1      32.244  50.298  47.015  1.00  0.00     0.021 A 
HETATM   13  C3  UNL     1      33.219  50.976  47.718  1.00  0.00    -0.022 A 
HETATM   14  C23 UNL     1      32.883  51.952  48.631  1.00  0.00     0.105 A 
HETATM   15  C21 UNL     1      31.553  52.236  48.826  1.00  0.00     0.102 A 
HETATM   16  C20 UNL     1      30.597  51.544  48.111  1.00  0.00     0.050 A 
BRANCH  13  17
HETATM   17  C2  UNL     1      34.662  50.627  47.460  1.00  0.00     0.037 C 
HETATM   18  C1  UNL     1      34.965  50.593  45.996  1.00  0.00     0.010 C 
ENDBRANCH  13  17
BRANCH  14  19
HETATM   19  O5  UNL     1      33.902  52.604  49.310  1.00  0.00    -0.357 OA
ATOM     20  H5  UNL     1      34.045  52.394  50.225  1.00  0.00     0.217 HD
ENDBRANCH  14  19
BRANCH  15  21
HETATM   21  O4  UNL     1      31.220  53.228  49.753  1.00  0.00    -0.353 OA
HETATM   22  C22 UNL     1      29.835  53.489  49.933  1.00  0.00     0.210 C 
ENDBRANCH  15  21
ENDBRANCH   1  11
BRANCH   8  23
HETATM   23  C11 UNL     1      27.301  47.396  47.070  1.00  0.00    -0.030 A 
HETATM   24  C12 UNL     1      27.479  46.513  46.026  1.00  0.00     0.049 A 
HETATM   25  C13 UNL     1      27.121  45.182  46.115  1.00  0.00     0.104 A 
HETATM   26  C15 UNL     1      26.563  44.698  47.280  1.00  0.00     0.135 A 
HETATM   27  C17 UNL     1      26.374  45.551  48.333  1.00  0.00     0.104 A 
HETATM   28  C19 UNL     1      26.742  46.893  48.226  1.00  0.00     0.049 A 
BRANCH  25  29
HETATM   29  O1  UNL     1      27.330  44.352  45.022  1.00  0.00    -0.353 OA
HETATM   30  C14 UNL     1      26.711  44.607  43.791  1.00  0.00     0.210 C 
ENDBRANCH  25  29
BRANCH  26  31
HETATM   31  O2  UNL     1      26.218  43.358  47.322  1.00  0.00    -0.351 OA
HETATM   32  C16 UNL     1      24.943  42.888  46.918  1.00  0.00     0.210 C 
ENDBRANCH  26  31
BRANCH  27  33
HETATM   33  O3  UNL     1      25.812  45.035  49.486  1.00  0.00    -0.353 OA
HETATM   34  C18 UNL     1      24.485  45.327  49.883  1.00  0.00     0.210 C 
ENDBRANCH  27  33
ENDBRANCH   8  23
TORSDOF 8
ENDMDL
MODEL 2
REMARK VINA RESULT: -6.627149000      0.077      2.265
REMARK  8 active torsions:
REMARK  status: ('A' for Active; 'I' for Inactive)
REMARK    1  A    between atoms: C2_2  and  C3_3 
REMARK    2  A    between atoms: C5_5  and  C6_6 
REMARK    3  A    between atoms: C10_13  and  C11_14 
REMARK    4  A    between atoms: C13_16  and  O1_17 
REMARK    5  A    between atoms: C15_19  and  O2_20 
REMARK    6  A    between atoms: C17_22  and  O3_23 
REMARK    7  A    between atoms: C21_29  and  O4_30 
REMARK    8  A    between atoms: C23_32  and  O5_33 
ROOT
HETATM    1  C6  UNL     1      29.841  49.846  46.474  1.00  0.00     0.315 C 
HETATM    2  N1  UNL     1      29.064  50.824  45.762  1.00  0.00    -0.046 N 
ATOM      3  H11 UNL     1      29.657  51.476  45.249  1.00  0.00     0.280 HD
ATOM      4  H12 UNL     1      28.620  51.487  46.397  1.00  0.00     0.280 HD
HETATM    5  C7  UNL     1      28.098  50.184  44.896  1.00  0.00     0.187 C 
HETATM    6  C8  UNL     1      28.728  49.428  43.752  1.00  0.00     0.040 C 
HETATM    7  C9  UNL     1      27.176  49.366  45.718  1.00  0.00     0.062 C 
HETATM    8  C10 UNL     1      27.690  48.860  47.013  1.00  0.00     0.114 C 
HETATM    9  N2  UNL     1      29.071  48.953  47.273  1.00  0.00    -0.384 N 
ATOM     10  H2  UNL     1      29.506  48.399  48.011  1.00  0.00     0.156 HD
ENDROOT
BRANCH   1  11
HETATM   11  C5  UNL     1      30.909  50.566  47.218  1.00  0.00    -0.006 A 
HETATM   12  C4  UNL     1      32.258  50.314  47.013  1.00  0.00     0.021 A 
HETATM   13  C3  UNL     1      33.241  50.986  47.711  1.00  0.00    -0.022 A 
HETATM   14  C23 UNL     1      32.916  51.943  48.647  1.00  0.00     0.105 A 
HETATM   15  C21 UNL     1      31.588  52.215  48.872  1.00  0.00     0.102 A 
HETATM   16  C20 UNL     1      30.624  51.530  48.162  1.00  0.00     0.050 A 
BRANCH  13  17
HETATM   17  C2  UNL     1      34.681  50.651  47.421  1.00  0.00     0.037 C 
HETATM   18  C1  UNL     1      34.941  50.575  45.949  1.00  0.00     0.010 C 
ENDBRANCH  13  17
BRANCH  14  19
HETATM   19  O5  UNL     1      33.943  52.589  49.319  1.00  0.00    -0.357 OA
ATOM     20  H5  UNL     1      34.298  52.186  50.103  1.00  0.00     0.217 HD
ENDBRANCH  14  19
BRANCH  15  21
HETATM   21  O4  UNL     1      31.266  53.188  49.823  1.00  0.00    -0.353 OA
HETATM   22  C22 UNL     1      29.884  53.447  50.022  1.00  0.00     0.210 C 
ENDBRANCH  15  21
ENDBRANCH   1  11
BRANCH   8  23
HETATM   23  C11 UNL     1      27.295  47.424  47.120  1.00  0.00    -0.030 A 
HETATM   24  C12 UNL     1      26.736  46.903  48.267  1.00  0.00     0.049 A 
HETATM   25  C13 UNL     1      26.372  45.574  48.374  1.00  0.00     0.104 A 
HETATM   26  C15 UNL     1      26.567  44.722  47.307  1.00  0.00     0.135 A 
HETATM   27  C17 UNL     1      27.120  45.211  46.155  1.00  0.00     0.104 A 
HETATM   28  C19 UNL     1      27.481  46.556  46.065  1.00  0.00     0.049 A 
BRANCH  25  29
HETATM   29  O1  UNL     1      25.814  45.120  49.561  1.00  0.00    -0.353 OA
HETATM   30  C14 UNL     1      24.531  45.522  49.956  1.00  0.00     0.210 C 
ENDBRANCH  25  29
BRANCH  26  31
HETATM   31  O2  UNL     1      26.188  43.399  47.461  1.00  0.00    -0.351 OA
HETATM   32  C16 UNL     1      24.924  42.918  47.038  1.00  0.00     0.210 C 
ENDBRANCH  26  31
BRANCH  27  33
HETATM   33  O3  UNL     1      27.302  44.331  45.104  1.00  0.00    -0.353 OA
HETATM   34  C18 UNL     1      26.756  44.559  43.818  1.00  0.00     0.210 C 
ENDBRANCH  27  33
ENDBRANCH   8  23
TORSDOF 8
ENDMDL
MODEL 3
REMARK VINA RESULT: -6.615003031      0.632      3.282
REMARK  8 active torsions:
REMARK  status: ('A' for Active; 'I' for Inactive)
REMARK    1  A    between atoms: C2_2  and  C3_3 
REMARK    2  A    between atoms: C5_5  and  C6_6 
REMARK    3  A    between atoms: C10_13  and  C11_14 
REMARK    4  A    between atoms: C13_16  and  O1_17 
REMARK    5  A    between atoms: C15_19  and  O2_20 
REMARK    6  A    between atoms: C17_22  and  O3_23 
REMARK    7  A    between atoms: C21_29  and  O4_30 
REMARK    8  A    between atoms: C23_32  and  O5_33 
ROOT
HETATM    1  C6  UNL     1      29.973  49.837  46.497  1.00  0.00     0.315 C 
HETATM    2  N1  UNL     1      29.214  50.827  45.784  1.00  0.00    -0.046 N 
ATOM      3  H11 UNL     1      29.818  51.464  45.265  1.00  0.00     0.280 HD
ATOM      4  H12 UNL     1      28.786  51.502  46.417  1.00  0.00     0.280 HD
HETATM    5  C7  UNL     1      28.231  50.203  44.924  1.00  0.00     0.187 C 
HETATM    6  C8  UNL     1      28.841  49.429  43.781  1.00  0.00     0.040 C 
HETATM    7  C9  UNL     1      27.296  49.408  45.753  1.00  0.00     0.062 C 
HETATM    8  C10 UNL     1      27.804  48.898  47.049  1.00  0.00     0.114 C 
HETATM    9  N2  UNL     1      29.188  48.964  47.303  1.00  0.00    -0.384 N 
ATOM     10  H2  UNL     1      29.614  48.404  48.042  1.00  0.00     0.156 HD
ENDROOT
BRANCH   1  11
HETATM   11  C5  UNL     1      31.058  50.537  47.234  1.00  0.00    -0.006 A 
HETATM   12  C4  UNL     1      30.810  51.604  48.086  1.00  0.00     0.021 A 
HETATM   13  C3  UNL     1      31.823  52.249  48.765  1.00  0.00    -0.022 A 
HETATM   14  C23 UNL     1      33.135  51.854  48.621  1.00  0.00     0.105 A 
HETATM   15  C21 UNL     1      33.413  50.799  47.784  1.00  0.00     0.102 A 
HETATM   16  C20 UNL     1      32.382  50.170  47.117  1.00  0.00     0.050 A 
BRANCH  13  17
HETATM   17  C2  UNL     1      31.461  53.396  49.672  1.00  0.00     0.037 C 
HETATM   18  C1  UNL     1      29.998  53.406  49.986  1.00  0.00     0.010 C 
ENDBRANCH  13  17
BRANCH  14  19
HETATM   19  O5  UNL     1      34.115  52.535  49.327  1.00  0.00    -0.357 OA
ATOM     20  H5  UNL     1      34.378  52.202  50.176  1.00  0.00     0.217 HD
ENDBRANCH  14  19
BRANCH  15  21
HETATM   21  O4  UNL     1      34.747  50.402  47.644  1.00  0.00    -0.353 OA
HETATM   22  C22 UNL     1      35.353  50.652  46.384  1.00  0.00     0.210 C 
ENDBRANCH  15  21
ENDBRANCH   1  11
BRANCH   8  23
HETATM   23  C11 UNL     1      27.380  47.471  47.164  1.00  0.00    -0.030 A 
HETATM   24  C12 UNL     1      26.793  46.972  48.307  1.00  0.00     0.049 A 
HETATM   25  C13 UNL     1      26.402  45.652  48.421  1.00  0.00     0.104 A 
HETATM   26  C15 UNL     1      26.597  44.785  47.367  1.00  0.00     0.135 A 
HETATM   27  C17 UNL     1      27.178  45.251  46.219  1.00  0.00     0.104 A 
HETATM   28  C19 UNL     1      27.566  46.588  46.121  1.00  0.00     0.049 A 
BRANCH  25  29
HETATM   29  O1  UNL     1      25.816  45.221  49.604  1.00  0.00    -0.353 OA
HETATM   30  C14 UNL     1      24.510  45.600  49.943  1.00  0.00     0.210 C 
ENDBRANCH  25  29
BRANCH  26  31
HETATM   31  O2  UNL     1      26.191  43.472  47.528  1.00  0.00    -0.351 OA
HETATM   32  C16 UNL     1      24.913  43.016  47.115  1.00  0.00     0.210 C 
ENDBRANCH  26  31
BRANCH  27  33
HETATM   33  O3  UNL     1      27.360  44.357  45.180  1.00  0.00    -0.353 OA
HETATM   34  C18 UNL     1      26.791  44.554  43.898  1.00  0.00     0.210 C 
ENDBRANCH  27  33
ENDBRANCH   8  23
TORSDOF 8
ENDMDL
MODEL 4
REMARK VINA RESULT: -6.603143933      3.883      5.911
REMARK  8 active torsions:
REMARK  status: ('A' for Active; 'I' for Inactive)
REMARK    1  A    between atoms: C2_2  and  C3_3 
REMARK    2  A    between atoms: C5_5  and  C6_6 
REMARK    3  A    between atoms: C10_13  and  C11_14 
REMARK    4  A    between atoms: C13_16  and  O1_17 
REMARK    5  A    between atoms: C15_19  and  O2_20 
REMARK    6  A    between atoms: C17_22  and  O3_23 
REMARK    7  A    between atoms: C21_29  and  O4_30 
REMARK    8  A    between atoms: C23_32  and  O5_33 
ROOT
HETATM    1  C6  UNL     1      28.898  51.339  45.714  1.00  0.00     0.315 C 
HETATM    2  N1  UNL     1      28.187  52.142  46.671  1.00  0.00    -0.046 N 
ATOM      3  H11 UNL     1      28.820  52.729  47.215  1.00  0.00     0.280 HD
ATOM      4  H12 UNL     1      27.810  51.577  47.432  1.00  0.00     0.280 HD
HETATM    5  C7  UNL     1      27.156  52.924  46.024  1.00  0.00     0.187 C 
HETATM    6  C8  UNL     1      27.700  53.988  45.103  1.00  0.00     0.040 C 
HETATM    7  C9  UNL     1      26.188  52.008  45.375  1.00  0.00     0.062 C 
HETATM    8  C10 UNL     1      26.686  50.672  44.969  1.00  0.00     0.114 C 
HETATM    9  N2  UNL     1      28.075  50.440  44.976  1.00  0.00    -0.384 N 
ATOM     10  H2  UNL     1      28.479  49.653  44.469  1.00  0.00     0.156 HD
ENDROOT
BRANCH   1  11
HETATM   11  C5  UNL     1      30.034  50.688  46.418  1.00  0.00    -0.006 A 
HETATM   12  C4  UNL     1      31.358  50.983  46.126  1.00  0.00     0.021 A 
HETATM   13  C3  UNL     1      32.406  50.372  46.784  1.00  0.00    -0.022 A 
HETATM   14  C23 UNL     1      32.174  49.436  47.768  1.00  0.00     0.105 A 
HETATM   15  C21 UNL     1      30.873  49.123  48.081  1.00  0.00     0.102 A 
HETATM   16  C20 UNL     1      29.843  49.748  47.408  1.00  0.00     0.050 A 
BRANCH  13  17
HETATM   17  C2  UNL     1      33.812  50.756  46.404  1.00  0.00     0.037 C 
HETATM   18  C1  UNL     1      33.861  52.120  45.791  1.00  0.00     0.010 C 
ENDBRANCH  13  17
BRANCH  14  19
HETATM   19  O5  UNL     1      33.263  48.853  48.399  1.00  0.00    -0.357 OA
ATOM     20  H5  UNL     1      33.115  48.098  48.956  1.00  0.00     0.217 HD
ENDBRANCH  14  19
BRANCH  15  21
HETATM   21  O4  UNL     1      30.645  48.173  49.081  1.00  0.00    -0.353 OA
HETATM   22  C22 UNL     1      29.362  47.564  49.097  1.00  0.00     0.210 C 
ENDBRANCH  15  21
ENDBRANCH   1  11
BRANCH   8  23
HETATM   23  C11 UNL     1      26.180  50.408  43.589  1.00  0.00    -0.030 A 
HETATM   24  C12 UNL     1      24.877  50.676  43.225  1.00  0.00     0.049 A 
HETATM   25  C13 UNL     1      24.401  50.430  41.951  1.00  0.00     0.104 A 
HETATM   26  C15 UNL     1      25.242  49.898  40.996  1.00  0.00     0.135 A 
HETATM   27  C17 UNL     1      26.540  49.623  41.328  1.00  0.00     0.104 A 
HETATM   28  C19 UNL     1      27.004  49.878  42.620  1.00  0.00     0.049 A 
BRANCH  25  29
HETATM   29  O1  UNL     1      23.077  50.725  41.656  1.00  0.00    -0.353 OA
HETATM   30  C14 UNL     1      22.032  50.215  42.439  1.00  0.00     0.210 C 
ENDBRANCH  25  29
BRANCH  26  31
HETATM   31  O2  UNL     1      24.721  49.668  39.734  1.00  0.00    -0.351 OA
HETATM   32  C16 UNL     1      24.743  50.651  38.713  1.00  0.00     0.210 C 
ENDBRANCH  26  31
BRANCH  27  33
HETATM   33  O3  UNL     1      27.357  49.091  40.348  1.00  0.00    -0.353 OA
HETATM   34  C18 UNL     1      28.531  49.744  39.899  1.00  0.00     0.210 C 
ENDBRANCH  27  33
ENDBRANCH   8  23
TORSDOF 8
ENDMDL
MODEL 5
REMARK VINA RESULT: -6.552665946      0.613      2.381
REMARK  8 active torsions:
REMARK  status: ('A' for Active; 'I' for Inactive)
REMARK    1  A    between atoms: C2_2  and  C3_3 
REMARK    2  A    between atoms: C5_5  and  C6_6 
REMARK    3  A    between atoms: C10_13  and  C11_14 
REMARK    4  A    between atoms: C13_16  and  O1_17 
REMARK    5  A    between atoms: C15_19  and  O2_20 
REMARK    6  A    between atoms: C17_22  and  O3_23 
REMARK    7  A    between atoms: C21_29  and  O4_30 
REMARK    8  A    between atoms: C23_32  and  O5_33 
ROOT
HETATM    1  C6  UNL     1      29.866  49.825  46.372  1.00  0.00     0.315 C 
HETATM    2  N1  UNL     1      29.059  50.820  45.720  1.00  0.00    -0.046 N 
ATOM      3  H11 UNL     1      29.630  51.499  45.218  1.00  0.00     0.280 HD
ATOM      4  H12 UNL     1      28.623  51.451  46.391  1.00  0.00     0.280 HD
HETATM    5  C7  UNL     1      28.078  50.201  44.854  1.00  0.00     0.187 C 
HETATM    6  C8  UNL     1      28.688  49.499  43.665  1.00  0.00     0.040 C 
HETATM    7  C9  UNL     1      27.188  49.339  45.666  1.00  0.00     0.062 C 
HETATM    8  C10 UNL     1      27.742  48.790  46.927  1.00  0.00     0.114 C 
HETATM    9  N2  UNL     1      29.127  48.892  47.155  1.00  0.00    -0.384 N 
ATOM     10  H2  UNL     1      29.589  48.315  47.859  1.00  0.00     0.156 HD
ENDROOT
BRANCH   1  11
HETATM   11  C5  UNL     1      30.943  50.529  47.118  1.00  0.00    -0.006 A 
HETATM   12  C4  UNL     1      30.682  51.574  47.993  1.00  0.00     0.021 A 
HETATM   13  C3  UNL     1      31.689  52.223  48.679  1.00  0.00    -0.022 A 
HETATM   14  C23 UNL     1      33.006  51.853  48.519  1.00  0.00     0.105 A 
HETATM   15  C21 UNL     1      33.296  50.820  47.659  1.00  0.00     0.102 A 
HETATM   16  C20 UNL     1      32.272  50.188  46.985  1.00  0.00     0.050 A 
BRANCH  13  17
HETATM   17  C2  UNL     1      31.313  53.344  49.611  1.00  0.00     0.037 C 
HETATM   18  C1  UNL     1      29.847  53.340  49.912  1.00  0.00     0.010 C 
ENDBRANCH  13  17
BRANCH  14  19
HETATM   19  O5  UNL     1      33.979  52.536  49.233  1.00  0.00    -0.357 OA
ATOM     20  H5  UNL     1      34.785  52.772  48.790  1.00  0.00     0.217 HD
ENDBRANCH  14  19
BRANCH  15  21
HETATM   21  O4  UNL     1      34.636  50.449  47.503  1.00  0.00    -0.353 OA
HETATM   22  C22 UNL     1      35.219  50.700  46.232  1.00  0.00     0.210 C 
ENDBRANCH  15  21
ENDBRANCH   1  11
BRANCH   8  23
HETATM   23  C11 UNL     1      27.368  47.346  46.987  1.00  0.00    -0.030 A 
HETATM   24  C12 UNL     1      27.545  46.499  45.913  1.00  0.00     0.049 A 
HETATM   25  C13 UNL     1      27.197  45.163  45.960  1.00  0.00     0.104 A 
HETATM   26  C15 UNL     1      26.652  44.637  47.113  1.00  0.00     0.135 A 
HETATM   27  C17 UNL     1      26.464  45.453  48.195  1.00  0.00     0.104 A 
HETATM   28  C19 UNL     1      26.821  46.800  48.129  1.00  0.00     0.049 A 
BRANCH  25  29
HETATM   29  O1  UNL     1      27.405  44.371  44.839  1.00  0.00    -0.353 OA
HETATM   30  C14 UNL     1      26.826  44.699  43.606  1.00  0.00     0.210 C 
ENDBRANCH  25  29
BRANCH  26  31
HETATM   31  O2  UNL     1      26.318  43.293  47.113  1.00  0.00    -0.351 OA
HETATM   32  C16 UNL     1      25.075  42.819  46.623  1.00  0.00     0.210 C 
ENDBRANCH  26  31
BRANCH  27  33
HETATM   33  O3  UNL     1      25.915  44.894  49.335  1.00  0.00    -0.353 OA
HETATM   34  C18 UNL     1      24.574  45.125  49.725  1.00  0.00     0.210 C 
ENDBRANCH  27  33
ENDBRANCH   8  23
TORSDOF 8
ENDMDL
