MODEL 1
REMARK VINA RESULT: -8.277174227      0.000      0.000
REMARK  7 active torsions:
REMARK  status: ('A' for Active; 'I' for Inactive)
REMARK    1  A    between atoms: C2_2  and  C3_3 
REMARK    2  A    between atoms: C3_3  and  C4_4 
REMARK    3  A    between atoms: C4_4  and  C5_5 
REMARK    4  A    between atoms: N1_11  and  N2_13 
REMARK    5  A    between atoms: C12_18  and  O1_19 
REMARK    6  A    between atoms: N5_23  and  O2_24 
REMARK    7  A    between atoms: C14_26  and  C15_27 
ROOT
HETATM    1  N2  UNL     1      35.846   4.392  29.051  1.00  0.00    -0.130 N 
ATOM      2  H2  UNL     1      36.241   4.190  29.970  1.00  0.00     0.205 HD
HETATM    3  C11 UNL     1      34.912   5.247  29.052  1.00  0.00     0.723 A 
HETATM    4  N3  UNL     1      34.453   5.867  30.203  1.00  0.00    -0.164 N 
ATOM      5  H3  UNL     1      34.791   5.715  31.153  1.00  0.00     0.186 HD
HETATM    6  C12 UNL     1      33.494   6.690  29.831  1.00  0.00     0.192 A 
HETATM    7  C13 UNL     1      33.321   6.623  28.506  1.00  0.00     0.164 A 
HETATM    8  N4  UNL     1      34.202   5.725  28.017  1.00  0.00    -0.052 N 
HETATM    9  N5  UNL     1      34.165   5.501  26.625  1.00  0.00    -0.173 N 
HETATM   10  C14 UNL     1      34.003   6.469  25.616  1.00  0.00     0.148 C 
HETATM   11  C18 UNL     1      33.099   7.631  25.861  1.00  0.00     0.111 C 
HETATM   12  S1  UNL     1      32.203   7.495  27.432  1.00  0.00    -0.103 SA
ENDROOT
BRANCH   1  13
HETATM   13  N1  UNL     1      36.401   3.711  28.045  1.00  0.00    -0.295 N 
HETATM   14  C2  UNL     1      36.727   2.478  28.107  1.00  0.00     0.000 C 
HETATM   15  C1  UNL     1      36.498   1.714  29.345  1.00  0.00     0.065 C 
ATOM     16  H1  UNL     1      36.574   4.207  27.171  1.00  0.00     0.186 HD
BRANCH  14  17
HETATM   17  C3  UNL     1      37.334   1.822  26.937  1.00  0.00     0.058 C 
BRANCH  17  18
HETATM   18  C4  UNL     1      38.320   2.739  26.212  1.00  0.00     0.044 C 
BRANCH  18  19
HETATM   19  C5  UNL     1      37.826   2.854  24.815  1.00  0.00    -0.058 A 
HETATM   20  C6  UNL     1      36.943   1.917  24.320  1.00  0.00     0.007 A 
HETATM   21  C7  UNL     1      36.456   1.983  23.024  1.00  0.00     0.001 A 
HETATM   22  C8  UNL     1      36.842   2.999  22.177  1.00  0.00     0.000 A 
HETATM   23  C9  UNL     1      37.725   3.936  22.673  1.00  0.00     0.001 A 
HETATM   24  C10 UNL     1      38.218   3.875  23.972  1.00  0.00     0.007 A 
ENDBRANCH  18  19
ENDBRANCH  17  18
ENDBRANCH  14  17
ENDBRANCH   1  13
BRANCH   6  25
HETATM   25  O1  UNL     1      32.790   7.498  30.754  1.00  0.00    -0.344 OA
ATOM     26  H1  UNL     1      32.767   8.444  30.686  1.00  0.00     0.219 HD
ENDBRANCH   6  25
BRANCH   9  27
HETATM   27  O2  UNL     1      34.294   4.207  26.242  1.00  0.00    -0.271 OA
ATOM     28  H2  UNL     1      34.179   4.043  25.313  1.00  0.00     0.246 HD
ENDBRANCH   9  27
BRANCH  10  29
HETATM   29  C15 UNL     1      33.467   5.791  24.360  1.00  0.00     0.005 C 
HETATM   30  C16 UNL     1      34.521   5.839  23.253  1.00  0.00     0.012 C 
HETATM   31  C17 UNL     1      32.241   6.504  23.824  1.00  0.00     0.012 C 
ENDBRANCH  10  29
TORSDOF 7
ENDMDL
MODEL 2
REMARK VINA RESULT: -8.216211855      2.142      4.674
REMARK  7 active torsions:
REMARK  status: ('A' for Active; 'I' for Inactive)
REMARK    1  A    between atoms: C2_2  and  C3_3 
REMARK    2  A    between atoms: C3_3  and  C4_4 
REMARK    3  A    between atoms: C4_4  and  C5_5 
REMARK    4  A    between atoms: N1_11  and  N2_13 
REMARK    5  A    between atoms: C12_18  and  O1_19 
REMARK    6  A    between atoms: N5_23  and  O2_24 
REMARK    7  A    between atoms: C14_26  and  C15_27 
ROOT
HETATM    1  N2  UNL     1      33.257   5.067  22.894  1.00  0.00    -0.130 N 
ATOM      2  H2  UNL     1      32.886   5.232  21.958  1.00  0.00     0.205 HD
HETATM    3  C11 UNL     1      32.869   5.893  23.771  1.00  0.00     0.723 A 
HETATM    4  N3  UNL     1      32.007   6.943  23.496  1.00  0.00    -0.164 N 
ATOM      5  H3  UNL     1      31.599   7.175  22.590  1.00  0.00     0.186 HD
HETATM    6  C12 UNL     1      31.817   7.582  24.631  1.00  0.00     0.192 A 
HETATM    7  C13 UNL     1      32.513   6.995  25.610  1.00  0.00     0.164 A 
HETATM    8  N4  UNL     1      33.170   5.943  25.079  1.00  0.00    -0.052 N 
HETATM    9  N5  UNL     1      33.980   5.197  25.960  1.00  0.00    -0.173 N 
HETATM   10  C14 UNL     1      33.674   4.830  27.285  1.00  0.00     0.148 C 
HETATM   11  C18 UNL     1      32.913   5.781  28.146  1.00  0.00     0.111 C 
HETATM   12  S1  UNL     1      32.644   7.384  27.341  1.00  0.00    -0.103 SA
ENDROOT
BRANCH   1  13
HETATM   13  N1  UNL     1      34.074   4.014  22.992  1.00  0.00    -0.295 N 
HETATM   14  C2  UNL     1      34.970   3.720  22.132  1.00  0.00     0.000 C 
HETATM   15  C1  UNL     1      35.157   4.564  20.939  1.00  0.00     0.065 C 
ATOM     16  H1  UNL     1      33.975   3.407  23.805  1.00  0.00     0.186 HD
BRANCH  14  17
HETATM   17  C3  UNL     1      35.818   2.534  22.336  1.00  0.00     0.058 C 
BRANCH  17  18
HETATM   18  C4  UNL     1      37.269   2.911  22.637  1.00  0.00     0.044 C 
BRANCH  18  19
HETATM   19  C5  UNL     1      37.499   2.565  24.065  1.00  0.00    -0.058 A 
HETATM   20  C6  UNL     1      36.775   1.545  24.647  1.00  0.00     0.007 A 
HETATM   21  C7  UNL     1      36.954   1.186  25.974  1.00  0.00     0.001 A 
HETATM   22  C8  UNL     1      37.872   1.843  26.764  1.00  0.00     0.000 A 
HETATM   23  C9  UNL     1      38.597   2.862  26.179  1.00  0.00     0.001 A 
HETATM   24  C10 UNL     1      38.421   3.227  24.849  1.00  0.00     0.007 A 
ENDBRANCH  18  19
ENDBRANCH  17  18
ENDBRANCH  14  17
ENDBRANCH   1  13
BRANCH   6  25
HETATM   25  O1  UNL     1      30.983   8.721  24.727  1.00  0.00    -0.344 OA
ATOM     26  H1  UNL     1      30.157   8.707  25.195  1.00  0.00     0.219 HD
ENDBRANCH   6  25
BRANCH   9  27
HETATM   27  O2  UNL     1      35.178   4.806  25.459  1.00  0.00    -0.271 OA
ATOM     28  H2  UNL     1      35.854   5.474  25.453  1.00  0.00     0.246 HD
ENDBRANCH   9  27
BRANCH  10  29
HETATM   29  C15 UNL     1      34.973   4.549  28.033  1.00  0.00     0.005 C 
HETATM   30  C16 UNL     1      35.007   3.089  28.485  1.00  0.00     0.012 C 
HETATM   31  C17 UNL     1      35.085   5.394  29.287  1.00  0.00     0.012 C 
ENDBRANCH  10  29
TORSDOF 7
ENDMDL
MODEL 3
REMARK VINA RESULT: -8.044058710      2.589      5.460
REMARK  7 active torsions:
REMARK  status: ('A' for Active; 'I' for Inactive)
REMARK    1  A    between atoms: C2_2  and  C3_3 
REMARK    2  A    between atoms: C3_3  and  C4_4 
REMARK    3  A    between atoms: C4_4  and  C5_5 
REMARK    4  A    between atoms: N1_11  and  N2_13 
REMARK    5  A    between atoms: C12_18  and  O1_19 
REMARK    6  A    between atoms: N5_23  and  O2_24 
REMARK    7  A    between atoms: C14_26  and  C15_27 
ROOT
HETATM    1  N2  UNL     1      36.352   3.712  23.262  1.00  0.00    -0.130 N 
ATOM      2  H2  UNL     1      36.973   3.297  22.567  1.00  0.00     0.205 HD
HETATM    3  C11 UNL     1      35.993   4.900  23.010  1.00  0.00     0.723 A 
HETATM    4  N3  UNL     1      36.404   5.592  21.882  1.00  0.00    -0.164 N 
ATOM      5  H3  UNL     1      37.025   5.249  21.148  1.00  0.00     0.186 HD
HETATM    6  C12 UNL     1      35.838   6.780  21.942  1.00  0.00     0.192 A 
HETATM    7  C13 UNL     1      35.092   6.877  23.048  1.00  0.00     0.164 A 
HETATM    8  N4  UNL     1      35.186   5.709  23.715  1.00  0.00    -0.052 N 
HETATM    9  N5  UNL     1      34.474   5.619  24.929  1.00  0.00    -0.173 N 
HETATM   10  C14 UNL     1      33.178   6.106  25.188  1.00  0.00     0.148 C 
HETATM   11  C18 UNL     1      32.745   7.389  24.561  1.00  0.00     0.111 C 
HETATM   12  S1  UNL     1      34.088   8.211  23.662  1.00  0.00    -0.103 SA
ENDROOT
BRANCH   1  13
HETATM   13  N1  UNL     1      36.050   2.913  24.289  1.00  0.00    -0.295 N 
HETATM   14  C2  UNL     1      36.908   2.453  25.116  1.00  0.00     0.000 C 
HETATM   15  C1  UNL     1      38.333   2.797  24.971  1.00  0.00     0.065 C 
ATOM     16  H1  UNL     1      35.073   2.654  24.422  1.00  0.00     0.186 HD
BRANCH  14  17
HETATM   17  C3  UNL     1      36.469   1.577  26.215  1.00  0.00     0.058 C 
BRANCH  17  18
HETATM   18  C4  UNL     1      37.503   1.505  27.339  1.00  0.00     0.044 C 
BRANCH  18  19
HETATM   19  C5  UNL     1      36.787   1.885  28.585  1.00  0.00    -0.058 A 
HETATM   20  C6  UNL     1      36.036   3.042  28.617  1.00  0.00     0.007 A 
HETATM   21  C7  UNL     1      35.350   3.438  29.756  1.00  0.00     0.001 A 
HETATM   22  C8  UNL     1      35.397   2.680  30.905  1.00  0.00     0.000 A 
HETATM   23  C9  UNL     1      36.149   1.523  30.871  1.00  0.00     0.001 A 
HETATM   24  C10 UNL     1      36.839   1.121  29.732  1.00  0.00     0.007 A 
ENDBRANCH  18  19
ENDBRANCH  17  18
ENDBRANCH  14  17
ENDBRANCH   1  13
BRANCH   6  25
HETATM   25  O1  UNL     1      36.037   7.764  20.945  1.00  0.00    -0.344 OA
ATOM     26  H1  UNL     1      35.805   7.619  20.035  1.00  0.00     0.219 HD
ENDBRANCH   6  25
BRANCH   9  27
HETATM   27  O2  UNL     1      35.127   4.998  25.942  1.00  0.00    -0.271 OA
ATOM     28  H2  UNL     1      35.903   5.444  26.261  1.00  0.00     0.246 HD
ENDBRANCH   9  27
BRANCH  10  29
HETATM   29  C15 UNL     1      33.017   6.310  26.691  1.00  0.00     0.005 C 
HETATM   30  C16 UNL     1      31.558   6.088  27.091  1.00  0.00     0.012 C 
HETATM   31  C17 UNL     1      33.369   7.726  27.100  1.00  0.00     0.012 C 
ENDBRANCH  10  29
TORSDOF 7
ENDMDL
MODEL 4
REMARK VINA RESULT: -7.951081069      3.209      6.714
REMARK  7 active torsions:
REMARK  status: ('A' for Active; 'I' for Inactive)
REMARK    1  A    between atoms: C2_2  and  C3_3 
REMARK    2  A    between atoms: C3_3  and  C4_4 
REMARK    3  A    between atoms: C4_4  and  C5_5 
REMARK    4  A    between atoms: N1_11  and  N2_13 
REMARK    5  A    between atoms: C12_18  and  O1_19 
REMARK    6  A    between atoms: N5_23  and  O2_24 
REMARK    7  A    between atoms: C14_26  and  C15_27 
ROOT
HETATM    1  N2  UNL     1      32.620   7.874  28.029  1.00  0.00    -0.130 N 
ATOM      2  H2  UNL     1      32.141   8.538  28.637  1.00  0.00     0.205 HD
HETATM    3  C11 UNL     1      33.332   7.020  28.636  1.00  0.00     0.723 A 
HETATM    4  N3  UNL     1      33.457   6.980  30.015  1.00  0.00    -0.164 N 
ATOM      5  H3  UNL     1      33.016   7.609  30.686  1.00  0.00     0.186 HD
HETATM    6  C12 UNL     1      34.257   5.971  30.292  1.00  0.00     0.192 A 
HETATM    7  C13 UNL     1      34.646   5.371  29.161  1.00  0.00     0.164 A 
HETATM    8  N4  UNL     1      34.073   6.021  28.128  1.00  0.00    -0.052 N 
HETATM    9  N5  UNL     1      34.377   5.542  26.837  1.00  0.00    -0.173 N 
HETATM   10  C14 UNL     1      34.478   4.197  26.435  1.00  0.00     0.148 C 
HETATM   11  C18 UNL     1      35.053   3.197  27.381  1.00  0.00     0.111 C 
HETATM   12  S1  UNL     1      35.699   3.963  28.893  1.00  0.00    -0.103 SA
ENDROOT
BRANCH   1  13
HETATM   13  N1  UNL     1      32.395   8.048  26.724  1.00  0.00    -0.295 N 
HETATM   14  C2  UNL     1      31.449   8.763  26.249  1.00  0.00     0.000 C 
HETATM   15  C1  UNL     1      30.523   9.462  27.156  1.00  0.00     0.065 C 
ATOM     16  H1  UNL     1      33.017   7.580  26.065  1.00  0.00     0.186 HD
BRANCH  14  17
HETATM   17  C3  UNL     1      31.288   8.887  24.791  1.00  0.00     0.058 C 
BRANCH  17  18
HETATM   18  C4  UNL     1      32.617   9.169  24.089  1.00  0.00     0.044 C 
BRANCH  18  19
HETATM   19  C5  UNL     1      32.702  10.645  23.940  1.00  0.00    -0.058 A 
HETATM   20  C6  UNL     1      31.559  11.376  23.690  1.00  0.00     0.007 A 
HETATM   21  C7  UNL     1      31.589  12.755  23.544  1.00  0.00     0.001 A 
HETATM   22  C8  UNL     1      32.775  13.448  23.646  1.00  0.00     0.000 A 
HETATM   23  C9  UNL     1      33.918  12.715  23.896  1.00  0.00     0.001 A 
HETATM   24  C10 UNL     1      33.894  11.333  24.043  1.00  0.00     0.007 A 
ENDBRANCH  18  19
ENDBRANCH  17  18
ENDBRANCH  14  17
ENDBRANCH   1  13
BRANCH   6  25
HETATM   25  O1  UNL     1      34.612   5.628  31.618  1.00  0.00    -0.344 OA
ATOM     26  H1  UNL     1      34.030   5.144  32.190  1.00  0.00     0.219 HD
ENDBRANCH   6  25
BRANCH   9  27
HETATM   27  O2  UNL     1      34.597   6.497  25.899  1.00  0.00    -0.271 OA
ATOM     28  H2  UNL     1      35.216   6.264  25.217  1.00  0.00     0.246 HD
ENDBRANCH   9  27
BRANCH  10  29
HETATM   29  C15 UNL     1      35.340   4.117  25.180  1.00  0.00     0.005 C 
HETATM   30  C16 UNL     1      34.507   3.593  24.010  1.00  0.00     0.012 C 
HETATM   31  C17 UNL     1      36.493   3.150  25.360  1.00  0.00     0.012 C 
ENDBRANCH  10  29
TORSDOF 7
ENDMDL
MODEL 5
REMARK VINA RESULT: -7.887912268      3.136      6.846
REMARK  7 active torsions:
REMARK  status: ('A' for Active; 'I' for Inactive)
REMARK    1  A    between atoms: C2_2  and  C3_3 
REMARK    2  A    between atoms: C3_3  and  C4_4 
REMARK    3  A    between atoms: C4_4  and  C5_5 
REMARK    4  A    between atoms: N1_11  and  N2_13 
REMARK    5  A    between atoms: C12_18  and  O1_19 
REMARK    6  A    between atoms: N5_23  and  O2_24 
REMARK    7  A    between atoms: C14_26  and  C15_27 
ROOT
HETATM    1  N2  UNL     1      31.813   7.564  29.047  1.00  0.00    -0.130 N 
ATOM      2  H2  UNL     1      31.116   8.217  29.403  1.00  0.00     0.205 HD
HETATM    3  C11 UNL     1      32.372   6.851  29.932  1.00  0.00     0.723 A 
HETATM    4  N3  UNL     1      32.069   6.941  31.281  1.00  0.00    -0.164 N 
ATOM      5  H3  UNL     1      31.391   7.570  31.713  1.00  0.00     0.186 HD
HETATM    6  C12 UNL     1      32.826   6.058  31.897  1.00  0.00     0.192 A 
HETATM    7  C13 UNL     1      33.594   5.414  31.011  1.00  0.00     0.164 A 
HETATM    8  N4  UNL     1      33.314   5.905  29.787  1.00  0.00    -0.052 N 
HETATM    9  N5  UNL     1      34.040   5.357  28.708  1.00  0.00    -0.173 N 
HETATM   10  C14 UNL     1      34.372   4.003  28.513  1.00  0.00     0.148 C 
HETATM   11  C18 UNL     1      34.710   3.158  29.696  1.00  0.00     0.111 C 
HETATM   12  S1  UNL     1      34.791   4.118  31.233  1.00  0.00    -0.103 SA
ENDROOT
BRANCH   1  13
HETATM   13  N1  UNL     1      31.987   7.600  27.723  1.00  0.00    -0.295 N 
HETATM   14  C2  UNL     1      31.364   8.394  26.940  1.00  0.00     0.000 C 
HETATM   15  C1  UNL     1      30.383   9.350  27.482  1.00  0.00     0.065 C 
ATOM     16  H1  UNL     1      32.659   6.953  27.311  1.00  0.00     0.186 HD
BRANCH  14  17
HETATM   17  C3  UNL     1      31.630   8.351  25.493  1.00  0.00     0.058 C 
BRANCH  17  18
HETATM   18  C4  UNL     1      30.863   9.437  24.736  1.00  0.00     0.044 C 
BRANCH  18  19
HETATM   19  C5  UNL     1      31.864  10.475  24.375  1.00  0.00    -0.058 A 
HETATM   20  C6  UNL     1      31.451  11.771  24.139  1.00  0.00     0.007 A 
HETATM   21  C7  UNL     1      32.347  12.773  23.799  1.00  0.00     0.001 A 
HETATM   22  C8  UNL     1      33.693  12.506  23.685  1.00  0.00     0.000 A 
HETATM   23  C9  UNL     1      34.104  11.209  23.922  1.00  0.00     0.001 A 
HETATM   24  C10 UNL     1      33.211  10.200  24.262  1.00  0.00     0.007 A 
ENDBRANCH  18  19
ENDBRANCH  17  18
ENDBRANCH  14  17
ENDBRANCH   1  13
BRANCH   6  25
HETATM   25  O1  UNL     1      32.783   5.871  33.299  1.00  0.00    -0.344 OA
ATOM     26  H1  UNL     1      32.734   5.010  33.696  1.00  0.00     0.219 HD
ENDBRANCH   6  25
BRANCH   9  27
HETATM   27  O2  UNL     1      34.457   6.248  27.776  1.00  0.00    -0.271 OA
ATOM     28  H2  UNL     1      34.483   5.923  26.883  1.00  0.00     0.246 HD
ENDBRANCH   9  27
BRANCH  10  29
HETATM   29  C15 UNL     1      35.582   3.917  27.590  1.00  0.00     0.005 C 
HETATM   30  C16 UNL     1      35.154   3.392  26.219  1.00  0.00     0.012 C 
HETATM   31  C17 UNL     1      36.619   2.948  28.122  1.00  0.00     0.012 C 
ENDBRANCH  10  29
TORSDOF 7
ENDMDL
