MODEL 1
REMARK VINA RESULT: -8.565341762      0.000      0.000
REMARK  6 active torsions:
REMARK  status: ('A' for Active; 'I' for Inactive)
REMARK    1  A    between atoms: C2_2  and  C3_4 
REMARK    2  A    between atoms: C3_4  and  N1_5 
REMARK    3  A    between atoms: N1_5  and  C4_7 
REMARK    4  A    between atoms: C4_7  and  O1_8 
REMARK    5  A    between atoms: C4_7  and  C5_10 
REMARK    6  A    between atoms: C11_17  and  C12_18 
ROOT
HETATM    1  C3  UNL     1      33.291   7.366  25.166  1.00  0.00     0.044 C 
HETATM    2  C9  UNL     1      34.737   7.007  24.976  1.00  0.00     0.033 C 
HETATM    3  C10 UNL     1      34.959   5.826  24.110  1.00  0.00     0.013 C 
HETATM    4  C11 UNL     1      34.519   6.192  22.692  1.00  0.00     0.038 C 
HETATM    5  C17 UNL     1      33.005   6.264  22.840  1.00  0.00     0.013 C 
HETATM    6  C18 UNL     1      32.431   6.929  24.003  1.00  0.00     0.033 C 
ENDROOT
BRANCH   1   7
HETATM    7  C2  UNL     1      32.821   6.606  26.383  1.00  0.00     0.106 C 
HETATM    8  C1  UNL     1      32.364   7.481  27.534  1.00  0.00     0.029 C 
HETATM    9 CL1  UNL     1      31.393   5.609  25.970  1.00  0.00    -0.123 Cl
ENDBRANCH   1   7
BRANCH   1  10
HETATM   10  N1  UNL     1      33.212   8.719  25.455  1.00  0.00    -0.383 N 
ATOM     11  H1  UNL     1      33.252   8.920  26.455  1.00  0.00     0.157 HD
BRANCH  10  12
HETATM   12  C4  UNL     1      33.094   9.823  24.696  1.00  0.00     0.249 C 
BRANCH  12  13
HETATM   13  O1  UNL     1      33.908   9.813  23.498  1.00  0.00    -0.373 OA
ATOM     14  H1  UNL     1      34.008   8.956  23.100  1.00  0.00     0.212 HD
ENDBRANCH  12  13
BRANCH  12  15
HETATM   15  C5  UNL     1      31.757  10.423  24.300  1.00  0.00    -0.004 A 
HETATM   16  C6  UNL     1      30.595   9.943  24.819  1.00  0.00     0.019 A 
HETATM   17  C7  UNL     1      29.421  10.489  24.398  1.00  0.00     0.050 A 
HETATM   18  S1  UNL     1      29.931  11.668  23.283  1.00  0.00    -0.113 SA
HETATM   19  C8  UNL     1      31.608  11.428  23.387  1.00  0.00     0.061 A 
ENDBRANCH  12  15
ENDBRANCH  10  12
ENDBRANCH   1  10
BRANCH   4  20
HETATM   20  C12 UNL     1      34.773   4.937  21.882  1.00  0.00     0.045 A 
HETATM   21  N2  UNL     1      34.567   3.695  22.345  1.00  0.00    -0.353 N 
HETATM   22  C13 UNL     1      34.686   2.590  21.581  1.00  0.00     0.182 A 
ATOM     23  H2  UNL     1      34.308   3.580  23.325  1.00  0.00     0.166 HD
HETATM   24  N3  UNL     1      35.034   2.753  20.291  1.00  0.00    -0.337 N 
HETATM   25  C14 UNL     1      35.258   3.986  19.769  1.00  0.00     0.136 A 
ATOM     26  H3  UNL     1      35.133   1.932  19.693  1.00  0.00     0.168 HD
HETATM   27  N4  UNL     1      35.664   4.391  18.543  1.00  0.00    -0.337 N 
HETATM   28  C16 UNL     1      35.120   5.073  20.582  1.00  0.00     0.101 A 
HETATM   29  C15 UNL     1      35.771   5.749  18.631  1.00  0.00     0.182 A 
ATOM     30  H4  UNL     1      35.851   3.807  17.727  1.00  0.00     0.168 HD
HETATM   31  N5  UNL     1      35.438   6.152  19.862  1.00  0.00    -0.348 N 
ATOM     32  H5  UNL     1      35.429   7.117  20.193  1.00  0.00     0.167 HD
ENDBRANCH   4  20
TORSDOF 6
ENDMDL
MODEL 2
REMARK VINA RESULT: -8.276483128      1.208      1.603
REMARK  6 active torsions:
REMARK  status: ('A' for Active; 'I' for Inactive)
REMARK    1  A    between atoms: C2_2  and  C3_4 
REMARK    2  A    between atoms: C3_4  and  N1_5 
REMARK    3  A    between atoms: N1_5  and  C4_7 
REMARK    4  A    between atoms: C4_7  and  O1_8 
REMARK    5  A    between atoms: C4_7  and  C5_10 
REMARK    6  A    between atoms: C11_17  and  C12_18 
ROOT
HETATM    1  C3  UNL     1      33.508   7.282  25.093  1.00  0.00     0.044 C 
HETATM    2  C9  UNL     1      34.945   7.127  24.683  1.00  0.00     0.033 C 
HETATM    3  C10 UNL     1      35.204   5.953  23.819  1.00  0.00     0.013 C 
HETATM    4  C11 UNL     1      34.501   6.188  22.481  1.00  0.00     0.038 C 
HETATM    5  C17 UNL     1      33.035   6.047  22.866  1.00  0.00     0.013 C 
HETATM    6  C18 UNL     1      32.554   6.674  24.091  1.00  0.00     0.033 C 
ENDROOT
BRANCH   1   7
HETATM    7  C2  UNL     1      33.349   6.517  26.385  1.00  0.00     0.106 C 
HETATM    8  C1  UNL     1      33.722   7.300  27.629  1.00  0.00     0.029 C 
HETATM    9 CL1  UNL     1      31.634   6.064  26.623  1.00  0.00    -0.123 Cl
ENDBRANCH   1   7
BRANCH   1  10
HETATM   10  N1  UNL     1      33.273   8.621  25.362  1.00  0.00    -0.383 N 
ATOM     11  H1  UNL     1      33.984   9.043  25.959  1.00  0.00     0.157 HD
BRANCH  10  12
HETATM   12  C4  UNL     1      32.304   9.482  25.001  1.00  0.00     0.249 C 
BRANCH  12  13
HETATM   13  O1  UNL     1      31.291   9.698  26.012  1.00  0.00    -0.373 OA
ATOM     14  H1  UNL     1      31.150   8.957  26.590  1.00  0.00     0.212 HD
ENDBRANCH  12  13
BRANCH  12  15
HETATM   15  C5  UNL     1      32.583  10.837  24.377  1.00  0.00    -0.004 A 
HETATM   16  C6  UNL     1      33.857  11.234  24.110  1.00  0.00     0.019 A 
HETATM   17  C7  UNL     1      34.054  12.477  23.590  1.00  0.00     0.050 A 
HETATM   18  S1  UNL     1      32.472  13.093  23.473  1.00  0.00    -0.113 SA
HETATM   19  C8  UNL     1      31.619  11.760  24.086  1.00  0.00     0.061 A 
ENDBRANCH  12  15
ENDBRANCH  10  12
ENDBRANCH   1  10
BRANCH   4  20
HETATM   20  C12 UNL     1      34.813   4.947  21.668  1.00  0.00     0.045 A 
HETATM   21  N2  UNL     1      34.649   3.696  22.123  1.00  0.00    -0.353 N 
HETATM   22  C13 UNL     1      34.818   2.601  21.355  1.00  0.00     0.182 A 
ATOM     23  H2  UNL     1      34.382   3.567  23.099  1.00  0.00     0.166 HD
HETATM   24  N3  UNL     1      35.175   2.783  20.071  1.00  0.00    -0.337 N 
HETATM   25  C14 UNL     1      35.358   4.026  19.556  1.00  0.00     0.136 A 
ATOM     26  H3  UNL     1      35.311   1.970  19.470  1.00  0.00     0.168 HD
HETATM   27  N4  UNL     1      35.763   4.453  18.337  1.00  0.00    -0.337 N 
HETATM   28  C16 UNL     1      35.170   5.103  20.374  1.00  0.00     0.101 A 
HETATM   29  C15 UNL     1      35.817   5.813  18.433  1.00  0.00     0.182 A 
ATOM     30  H4  UNL     1      35.981   3.881  17.521  1.00  0.00     0.168 HD
HETATM   31  N5  UNL     1      35.455   6.197  19.662  1.00  0.00    -0.348 N 
ATOM     32  H5  UNL     1      35.405   7.159  19.997  1.00  0.00     0.167 HD
ENDBRANCH   4  20
TORSDOF 6
ENDMDL
MODEL 3
REMARK VINA RESULT: -8.104492006      1.753      2.219
REMARK  6 active torsions:
REMARK  status: ('A' for Active; 'I' for Inactive)
REMARK    1  A    between atoms: C2_2  and  C3_4 
REMARK    2  A    between atoms: C3_4  and  N1_5 
REMARK    3  A    between atoms: N1_5  and  C4_7 
REMARK    4  A    between atoms: C4_7  and  O1_8 
REMARK    5  A    between atoms: C4_7  and  C5_10 
REMARK    6  A    between atoms: C11_17  and  C12_18 
ROOT
HETATM    1  C3  UNL     1      32.362   7.731  25.337  1.00  0.00     0.044 C 
HETATM    2  C9  UNL     1      33.812   8.093  25.490  1.00  0.00     0.033 C 
HETATM    3  C10 UNL     1      34.750   7.055  25.003  1.00  0.00     0.013 C 
HETATM    4  C11 UNL     1      34.592   6.953  23.485  1.00  0.00     0.038 C 
HETATM    5  C17 UNL     1      33.221   6.304  23.353  1.00  0.00     0.013 C 
HETATM    6  C18 UNL     1      32.126   6.769  24.195  1.00  0.00     0.033 C 
ENDROOT
BRANCH   1   7
HETATM    7  C2  UNL     1      31.964   7.023  26.609  1.00  0.00     0.106 C 
HETATM    8  C1  UNL     1      31.054   7.827  27.518  1.00  0.00     0.029 C 
HETATM    9 CL1  UNL     1      31.036   5.543  26.223  1.00  0.00    -0.123 Cl
ENDBRANCH   1   7
BRANCH   1  10
HETATM   10  N1  UNL     1      31.627   8.902  25.255  1.00  0.00    -0.383 N 
ATOM     11  H1  UNL     1      31.249   9.204  26.153  1.00  0.00     0.157 HD
BRANCH  10  12
HETATM   12  C4  UNL     1      31.306   9.726  24.241  1.00  0.00     0.249 C 
BRANCH  12  13
HETATM   13  O1  UNL     1      29.888   9.987  24.109  1.00  0.00    -0.373 OA
ATOM     14  H1  UNL     1      29.487   9.594  23.343  1.00  0.00     0.212 HD
ENDBRANCH  12  13
BRANCH  12  15
HETATM   15  C5  UNL     1      32.010  11.046  23.985  1.00  0.00    -0.004 A 
HETATM   16  C6  UNL     1      33.368  11.117  23.942  1.00  0.00     0.019 A 
HETATM   17  C7  UNL     1      33.949  12.334  23.752  1.00  0.00     0.050 A 
HETATM   18  S1  UNL     1      32.611  13.377  23.632  1.00  0.00    -0.113 SA
HETATM   19  C8  UNL     1      31.366  12.240  23.827  1.00  0.00     0.061 A 
ENDBRANCH  12  15
ENDBRANCH  10  12
ENDBRANCH   1  10
BRANCH   4  20
HETATM   20  C12 UNL     1      35.576   5.875  23.075  1.00  0.00     0.045 A 
HETATM   21  N2  UNL     1      36.518   5.377  23.888  1.00  0.00    -0.353 N 
HETATM   22  C13 UNL     1      37.312   4.340  23.553  1.00  0.00     0.182 A 
ATOM     23  H2  UNL     1      36.642   5.804  24.806  1.00  0.00     0.166 HD
HETATM   24  N3  UNL     1      37.145   3.787  22.337  1.00  0.00    -0.337 N 
HETATM   25  C14 UNL     1      36.208   4.251  21.472  1.00  0.00     0.136 A 
ATOM     26  H3  UNL     1      37.735   3.002  22.060  1.00  0.00     0.168 HD
HETATM   27  N4  UNL     1      35.895   3.905  20.201  1.00  0.00    -0.337 N 
HETATM   28  C16 UNL     1      35.426   5.301  21.860  1.00  0.00     0.101 A 
HETATM   29  C15 UNL     1      34.907   4.768  19.826  1.00  0.00     0.182 A 
ATOM     30  H4  UNL     1      36.310   3.158  19.643  1.00  0.00     0.168 HD
HETATM   31  N5  UNL     1      34.628   5.604  20.832  1.00  0.00    -0.348 N 
ATOM     32  H5  UNL     1      33.926   6.344  20.817  1.00  0.00     0.167 HD
ENDBRANCH   4  20
TORSDOF 6
ENDMDL
MODEL 4
REMARK VINA RESULT: -8.102945610      1.785      2.084
REMARK  6 active torsions:
REMARK  status: ('A' for Active; 'I' for Inactive)
REMARK    1  A    between atoms: C2_2  and  C3_4 
REMARK    2  A    between atoms: C3_4  and  N1_5 
REMARK    3  A    between atoms: N1_5  and  C4_7 
REMARK    4  A    between atoms: C4_7  and  O1_8 
REMARK    5  A    between atoms: C4_7  and  C5_10 
REMARK    6  A    between atoms: C11_17  and  C12_18 
ROOT
HETATM    1  C3  UNL     1      32.275   7.874  26.204  1.00  0.00     0.044 C 
HETATM    2  C9  UNL     1      33.704   7.849  25.742  1.00  0.00     0.033 C 
HETATM    3  C10 UNL     1      34.120   6.566  25.129  1.00  0.00     0.013 C 
HETATM    4  C11 UNL     1      33.345   6.397  23.821  1.00  0.00     0.038 C 
HETATM    5  C17 UNL     1      31.933   6.127  24.323  1.00  0.00     0.013 C 
HETATM    6  C18 UNL     1      31.398   6.927  25.418  1.00  0.00     0.033 C 
ENDROOT
BRANCH   1   7
HETATM    7  C2  UNL     1      32.283   7.394  27.636  1.00  0.00     0.106 C 
HETATM    8  C1  UNL     1      31.884   5.942  27.815  1.00  0.00     0.029 C 
HETATM    9 CL1  UNL     1      33.937   7.503  28.311  1.00  0.00    -0.123 Cl
ENDBRANCH   1   7
BRANCH   1  10
HETATM   10  N1  UNL     1      31.839   9.189  26.200  1.00  0.00    -0.383 N 
ATOM     11  H1  UNL     1      32.505   9.836  26.622  1.00  0.00     0.157 HD
BRANCH  10  12
HETATM   12  C4  UNL     1      30.722   9.793  25.757  1.00  0.00     0.249 C 
BRANCH  12  13
HETATM   13  O1  UNL     1      29.924  10.411  26.796  1.00  0.00    -0.373 OA
ATOM     14  H1  UNL     1      29.038  10.628  26.532  1.00  0.00     0.212 HD
ENDBRANCH  12  13
BRANCH  12  15
HETATM   15  C5  UNL     1      30.702  10.748  24.577  1.00  0.00    -0.004 A 
HETATM   16  C6  UNL     1      29.586  10.892  23.813  1.00  0.00     0.019 A 
HETATM   17  C7  UNL     1      29.636  11.730  22.741  1.00  0.00     0.050 A 
HETATM   18  S1  UNL     1      31.232  12.315  22.794  1.00  0.00    -0.113 SA
HETATM   19  C8  UNL     1      31.779  11.481  24.167  1.00  0.00     0.061 A 
ENDBRANCH  12  15
ENDBRANCH  10  12
ENDBRANCH   1  10
BRANCH   4  20
HETATM   20  C12 UNL     1      33.823   5.069  23.269  1.00  0.00     0.045 A 
HETATM   21  N2  UNL     1      33.493   3.880  23.794  1.00  0.00    -0.353 N 
HETATM   22  C13 UNL     1      33.828   2.702  23.228  1.00  0.00     0.182 A 
ATOM     23  H2  UNL     1      32.962   3.865  24.664  1.00  0.00     0.166 HD
HETATM   24  N3  UNL     1      34.534   2.733  22.083  1.00  0.00    -0.337 N 
HETATM   25  C14 UNL     1      34.898   3.907  21.507  1.00  0.00     0.136 A 
ATOM     26  H3  UNL     1      34.801   1.855  21.637  1.00  0.00     0.168 HD
HETATM   27  N4  UNL     1      35.641   4.189  20.411  1.00  0.00    -0.337 N 
HETATM   28  C16 UNL     1      34.531   5.073  22.116  1.00  0.00     0.101 A 
HETATM   29  C15 UNL     1      35.716   5.550  20.369  1.00  0.00     0.182 A 
ATOM     30  H4  UNL     1      36.055   3.525  19.756  1.00  0.00     0.168 HD
HETATM   31  N5  UNL     1      35.042   6.076  21.398  1.00  0.00    -0.348 N 
ATOM     32  H5  UNL     1      34.937   7.070  21.598  1.00  0.00     0.167 HD
ENDBRANCH   4  20
TORSDOF 6
ENDMDL
MODEL 5
REMARK VINA RESULT: -7.948617635      4.780      7.237
REMARK  6 active torsions:
REMARK  status: ('A' for Active; 'I' for Inactive)
REMARK    1  A    between atoms: C2_2  and  C3_4 
REMARK    2  A    between atoms: C3_4  and  N1_5 
REMARK    3  A    between atoms: N1_5  and  C4_7 
REMARK    4  A    between atoms: C4_7  and  O1_8 
REMARK    5  A    between atoms: C4_7  and  C5_10 
REMARK    6  A    between atoms: C11_17  and  C12_18 
ROOT
HETATM    1  C3  UNL     1      33.102   5.971  27.104  1.00  0.00     0.044 C 
HETATM    2  C9  UNL     1      32.235   5.790  25.890  1.00  0.00     0.033 C 
HETATM    3  C10 UNL     1      31.595   7.037  25.412  1.00  0.00     0.013 C 
HETATM    4  C11 UNL     1      32.696   7.965  24.898  1.00  0.00     0.038 C 
HETATM    5  C17 UNL     1      33.390   8.377  26.189  1.00  0.00     0.013 C 
HETATM    6  C18 UNL     1      33.667   7.369  27.205  1.00  0.00     0.033 C 
ENDROOT
BRANCH   1   7
HETATM    7  C2  UNL     1      32.206   5.762  28.300  1.00  0.00     0.106 C 
HETATM    8  C1  UNL     1      32.890   5.123  29.495  1.00  0.00     0.029 C 
HETATM    9 CL1  UNL     1      31.607   7.337  28.902  1.00  0.00    -0.123 Cl
ENDBRANCH   1   7
BRANCH   1  10
HETATM   10  N1  UNL     1      34.058   4.969  27.110  1.00  0.00    -0.383 N 
ATOM     11  H1  UNL     1      34.326   4.674  28.049  1.00  0.00     0.157 HD
BRANCH  10  12
HETATM   12  C4  UNL     1      34.709   4.303  26.139  1.00  0.00     0.249 C 
BRANCH  12  13
HETATM   13  O1  UNL     1      35.342   5.155  25.153  1.00  0.00    -0.373 OA
ATOM     14  H1  UNL     1      35.838   4.686  24.492  1.00  0.00     0.212 HD
ENDBRANCH  12  13
BRANCH  12  15
HETATM   15  C5  UNL     1      35.679   3.168  26.411  1.00  0.00    -0.004 A 
HETATM   16  C6  UNL     1      36.045   2.853  27.683  1.00  0.00     0.019 A 
HETATM   17  C7  UNL     1      36.952   1.854  27.869  1.00  0.00     0.050 A 
HETATM   18  S1  UNL     1      37.294   1.354  26.279  1.00  0.00    -0.113 SA
HETATM   19  C8  UNL     1      36.282   2.425  25.437  1.00  0.00     0.061 A 
ENDBRANCH  12  15
ENDBRANCH  10  12
ENDBRANCH   1  10
BRANCH   4  20
HETATM   20  C12 UNL     1      31.959   9.207  24.437  1.00  0.00     0.045 A 
HETATM   21  N2  UNL     1      30.623   9.320  24.427  1.00  0.00    -0.353 N 
HETATM   22  C13 UNL     1      29.979  10.466  24.126  1.00  0.00     0.182 A 
ATOM     23  H2  UNL     1      30.065   8.498  24.659  1.00  0.00     0.166 HD
HETATM   24  N3  UNL     1      30.725  11.543  23.816  1.00  0.00    -0.337 N 
HETATM   25  C14 UNL     1      32.081  11.486  23.807  1.00  0.00     0.136 A 
ATOM     26  H3  UNL     1      30.261  12.421  23.582  1.00  0.00     0.168 HD
HETATM   27  N4  UNL     1      33.025  12.399  23.481  1.00  0.00    -0.337 N 
HETATM   28  C16 UNL     1      32.685  10.303  24.124  1.00  0.00     0.101 A 
HETATM   29  C15 UNL     1      34.216  11.744  23.606  1.00  0.00     0.182 A 
ATOM     30  H4  UNL     1      32.879  13.369  23.202  1.00  0.00     0.168 HD
HETATM   31  N5  UNL     1      34.003  10.483  23.997  1.00  0.00    -0.348 N 
ATOM     32  H5  UNL     1      34.722   9.781  24.169  1.00  0.00     0.167 HD
ENDBRANCH   4  20
TORSDOF 6
ENDMDL
