MODEL 1
REMARK VINA RESULT: -8.848165969      0.000      0.000
REMARK  7 active torsions:
REMARK  status: ('A' for Active; 'I' for Inactive)
REMARK    1  A    between atoms: C3_3  and  C5_6 
REMARK    2  A    between atoms: C5_6  and  S1_10 
REMARK    3  A    between atoms: S1_10  and  C6_11 
REMARK    4  A    between atoms: C6_11  and  C7_12 
REMARK    5  A    between atoms: C9_16  and  C10_17 
REMARK    6  A    between atoms: N4_19  and  C12_20 
REMARK    7  A    between atoms: C17_27  and  N6_28 
ROOT
HETATM    1  C1  UNL     1      38.538   2.484  25.475  1.00  0.00     0.098 C 
HETATM    2  C2  UNL     1      37.428   2.271  24.997  1.00  0.00    -0.162 C 
HETATM    3  C3  UNL     1      36.103   1.999  24.454  1.00  0.00     0.214 C 
HETATM    4  C4  UNL     1      35.278   1.284  25.453  1.00  0.00     0.082 C 
HETATM    5  N1  UNL     1      34.626   0.712  26.220  1.00  0.00    -0.196 NA
ENDROOT
BRANCH   3   6
HETATM    6  C5  UNL     1      36.166   1.183  23.211  1.00  0.00     0.069 C 
HETATM    7  N2  UNL     1      36.291  -0.095  23.288  1.00  0.00    -0.395 N 
ATOM      8  H22 UNL     1      36.343  -0.525  24.211  1.00  0.00     0.156 HD
ATOM      9  H21 UNL     1      36.335  -0.653  22.436  1.00  0.00     0.156 HD
BRANCH   6  10
HETATM   10  S1  UNL     1      36.077   1.928  21.614  1.00  0.00    -0.110 SA
BRANCH  10  11
HETATM   11  C6  UNL     1      36.919   3.518  21.634  1.00  0.00     0.123 C 
BRANCH  11  12
HETATM   12  C7  UNL     1      35.990   4.582  22.140  1.00  0.00     0.005 A 
HETATM   13  C8  UNL     1      34.736   4.801  21.612  1.00  0.00     0.099 A 
HETATM   14  N3  UNL     1      33.919   5.758  22.078  1.00  0.00    -0.364 N 
HETATM   15  C9  UNL     1      34.224   6.586  23.087  1.00  0.00     0.050 A 
ATOM     16  H3  UNL     1      33.006   5.862  21.636  1.00  0.00     0.165 HD
HETATM   17  C18 UNL     1      35.488   6.381  23.635  1.00  0.00     0.073 A 
HETATM   18  C19 UNL     1      36.351   5.408  23.180  1.00  0.00     0.127 A 
HETATM   19  F1  UNL     1      37.580   5.227  23.733  1.00  0.00    -0.205 F 
BRANCH  15  20
HETATM   20  C10 UNL     1      33.345   7.629  23.604  1.00  0.00     0.053 A 
HETATM   21  C11 UNL     1      33.702   8.960  23.632  1.00  0.00     0.128 A 
HETATM   22  N4  UNL     1      32.682   9.652  24.161  1.00  0.00    -0.296 N 
HETATM   23  N5  UNL     1      31.719   8.818  24.458  1.00  0.00    -0.283 N 
HETATM   24  C17 UNL     1      32.085   7.556  24.130  1.00  0.00     0.127 A 
ATOM     25  H5  UNL     1      30.825   9.079  24.874  1.00  0.00     0.189 HD
BRANCH  22  26
HETATM   26  C12 UNL     1      32.575  11.080  24.400  1.00  0.00     0.107 C 
HETATM   27  C13 UNL     1      31.560  11.750  23.526  1.00  0.00     0.027 C 
HETATM   28  C14 UNL     1      32.200  13.034  23.030  1.00  0.00     0.002 C 
HETATM   29  C15 UNL     1      33.447  13.208  23.865  1.00  0.00     0.002 C 
HETATM   30  C16 UNL     1      33.893  11.784  24.135  1.00  0.00     0.027 C 
ENDBRANCH  22  26
BRANCH  24  31
HETATM   31  N6  UNL     1      31.366   6.501  24.293  1.00  0.00    -0.384 N 
ATOM     32  H62 UNL     1      31.407   5.872  25.095  1.00  0.00     0.157 HD
ATOM     33  H61 UNL     1      30.655   6.132  23.661  1.00  0.00     0.157 HD
ENDBRANCH  24  31
ENDBRANCH  15  20
ENDBRANCH  11  12
ENDBRANCH  10  11
ENDBRANCH   6  10
ENDBRANCH   3   6
TORSDOF 7
ENDMDL
MODEL 2
REMARK VINA RESULT: -8.685832872      2.911      3.695
REMARK  7 active torsions:
REMARK  status: ('A' for Active; 'I' for Inactive)
REMARK    1  A    between atoms: C3_3  and  C5_6 
REMARK    2  A    between atoms: C5_6  and  S1_10 
REMARK    3  A    between atoms: S1_10  and  C6_11 
REMARK    4  A    between atoms: C6_11  and  C7_12 
REMARK    5  A    between atoms: C9_16  and  C10_17 
REMARK    6  A    between atoms: N4_19  and  C12_20 
REMARK    7  A    between atoms: C17_27  and  N6_28 
ROOT
HETATM    1  C1  UNL     1      36.851   1.451  29.197  1.00  0.00     0.098 C 
HETATM    2  C2  UNL     1      37.001   1.468  27.980  1.00  0.00    -0.162 C 
HETATM    3  C3  UNL     1      37.196   1.514  26.535  1.00  0.00     0.214 C 
HETATM    4  C4  UNL     1      38.182   2.562  26.187  1.00  0.00     0.082 C 
HETATM    5  N1  UNL     1      38.940   3.388  25.899  1.00  0.00    -0.196 NA
ENDROOT
BRANCH   3   6
HETATM    6  C5  UNL     1      35.926   1.788  25.810  1.00  0.00     0.069 C 
HETATM    7  N2  UNL     1      35.212   0.810  25.377  1.00  0.00    -0.395 N 
ATOM      8  H22 UNL     1      35.535  -0.142  25.544  1.00  0.00     0.156 HD
ATOM      9  H21 UNL     1      34.342   0.998  24.879  1.00  0.00     0.156 HD
BRANCH   6  10
HETATM   10  S1  UNL     1      35.368   3.436  25.520  1.00  0.00    -0.110 SA
BRANCH  10  11
HETATM   11  C6  UNL     1      34.711   4.134  27.044  1.00  0.00     0.123 C 
BRANCH  11  12
HETATM   12  C7  UNL     1      33.939   5.384  26.740  1.00  0.00     0.005 A 
HETATM   13  C8  UNL     1      33.144   5.527  25.622  1.00  0.00     0.099 A 
HETATM   14  N3  UNL     1      32.461   6.654  25.368  1.00  0.00    -0.364 N 
HETATM   15  C9  UNL     1      32.475   7.739  26.154  1.00  0.00     0.050 A 
ATOM     16  H3  UNL     1      31.895   6.686  24.520  1.00  0.00     0.165 HD
HETATM   17  C18 UNL     1      33.272   7.615  27.289  1.00  0.00     0.073 A 
HETATM   18  C19 UNL     1      33.986   6.474  27.580  1.00  0.00     0.127 A 
HETATM   19  F1  UNL     1      34.757   6.378  28.696  1.00  0.00    -0.205 F 
BRANCH  15  20
HETATM   20  C10 UNL     1      31.737   8.969  25.889  1.00  0.00     0.053 A 
HETATM   21  C11 UNL     1      32.016   9.792  24.819  1.00  0.00     0.128 A 
HETATM   22  N4  UNL     1      31.166  10.828  24.859  1.00  0.00    -0.296 N 
HETATM   23  N5  UNL     1      30.379  10.685  25.895  1.00  0.00    -0.283 N 
HETATM   24  C17 UNL     1      30.696   9.549  26.560  1.00  0.00     0.127 A 
ATOM     25  H5  UNL     1      29.637  11.332  26.161  1.00  0.00     0.189 HD
BRANCH  22  26
HETATM   26  C12 UNL     1      31.061  11.958  23.954  1.00  0.00     0.107 C 
HETATM   27  C13 UNL     1      29.873  11.878  23.046  1.00  0.00     0.027 C 
HETATM   28  C14 UNL     1      30.361  12.273  21.664  1.00  0.00     0.002 C 
HETATM   29  C15 UNL     1      31.741  12.848  21.876  1.00  0.00     0.002 C 
HETATM   30  C16 UNL     1      32.278  12.057  23.052  1.00  0.00     0.027 C 
ENDBRANCH  22  26
BRANCH  24  31
HETATM   31  N6  UNL     1      30.113   9.116  27.623  1.00  0.00    -0.384 N 
ATOM     32  H62 UNL     1      30.049   8.139  27.909  1.00  0.00     0.157 HD
ATOM     33  H61 UNL     1      29.633   9.667  28.335  1.00  0.00     0.157 HD
ENDBRANCH  24  31
ENDBRANCH  15  20
ENDBRANCH  11  12
ENDBRANCH  10  11
ENDBRANCH   6  10
ENDBRANCH   3   6
TORSDOF 7
ENDMDL
MODEL 3
REMARK VINA RESULT: -8.660266158      3.199      9.202
REMARK  7 active torsions:
REMARK  status: ('A' for Active; 'I' for Inactive)
REMARK    1  A    between atoms: C3_3  and  C5_6 
REMARK    2  A    between atoms: C5_6  and  S1_10 
REMARK    3  A    between atoms: S1_10  and  C6_11 
REMARK    4  A    between atoms: C6_11  and  C7_12 
REMARK    5  A    between atoms: C9_16  and  C10_17 
REMARK    6  A    between atoms: N4_19  and  C12_20 
REMARK    7  A    between atoms: C17_27  and  N6_28 
ROOT
HETATM    1  C1  UNL     1      32.901  13.908  23.612  1.00  0.00     0.098 C 
HETATM    2  C2  UNL     1      32.159  13.070  23.109  1.00  0.00    -0.162 C 
HETATM    3  C3  UNL     1      31.262  12.098  22.496  1.00  0.00     0.214 C 
HETATM    4  C4  UNL     1      30.438  12.749  21.454  1.00  0.00     0.082 C 
HETATM    5  N1  UNL     1      29.778  13.249  20.645  1.00  0.00    -0.196 NA
ENDROOT
BRANCH   3   6
HETATM    6  C5  UNL     1      30.360  11.464  23.496  1.00  0.00     0.069 C 
HETATM    7  N2  UNL     1      29.096  11.396  23.265  1.00  0.00    -0.395 N 
ATOM      8  H22 UNL     1      28.737  11.781  22.392  1.00  0.00     0.156 HD
ATOM      9  H21 UNL     1      28.478  10.962  23.951  1.00  0.00     0.156 HD
BRANCH   6  10
HETATM   10  S1  UNL     1      30.981  10.798  25.006  1.00  0.00    -0.110 SA
BRANCH  10  11
HETATM   11  C6  UNL     1      30.612   9.038  25.095  1.00  0.00     0.123 C 
BRANCH  11  12
HETATM   12  C7  UNL     1      31.812   8.244  24.671  1.00  0.00     0.005 A 
HETATM   13  C8  UNL     1      32.888   8.797  24.010  1.00  0.00     0.099 A 
HETATM   14  N3  UNL     1      33.952   8.069  23.639  1.00  0.00    -0.364 N 
HETATM   15  C9  UNL     1      34.085   6.755  23.866  1.00  0.00     0.050 A 
ATOM     16  H3  UNL     1      34.710   8.548  23.151  1.00  0.00     0.165 HD
HETATM   17  C18 UNL     1      33.008   6.176  24.533  1.00  0.00     0.073 A 
HETATM   18  C19 UNL     1      31.900   6.894  24.928  1.00  0.00     0.127 A 
HETATM   19  F1  UNL     1      30.862   6.306  25.579  1.00  0.00    -0.205 F 
BRANCH  15  20
HETATM   20  C10 UNL     1      35.237   5.953  23.468  1.00  0.00     0.053 A 
HETATM   21  C11 UNL     1      35.724   4.914  24.231  1.00  0.00     0.128 A 
HETATM   22  N4  UNL     1      36.778   4.388  23.592  1.00  0.00    -0.296 N 
HETATM   23  N5  UNL     1      36.964   5.046  22.477  1.00  0.00    -0.283 N 
HETATM   24  C17 UNL     1      36.033   6.023  22.358  1.00  0.00     0.127 A 
ATOM     25  H5  UNL     1      37.700   4.853  21.797  1.00  0.00     0.189 HD
BRANCH  22  26
HETATM   26  C12 UNL     1      37.626   3.279  23.990  1.00  0.00     0.107 C 
HETATM   27  C13 UNL     1      36.858   2.029  24.294  1.00  0.00     0.027 C 
HETATM   28  C14 UNL     1      37.455   1.458  25.568  1.00  0.00     0.002 C 
HETATM   29  C15 UNL     1      38.731   2.233  25.796  1.00  0.00     0.002 C 
HETATM   30  C16 UNL     1      38.412   3.609  25.246  1.00  0.00     0.027 C 
ENDBRANCH  22  26
BRANCH  24  31
HETATM   31  N6  UNL     1      35.937   6.851  21.377  1.00  0.00    -0.384 N 
ATOM     32  H62 UNL     1      35.181   7.522  21.238  1.00  0.00     0.157 HD
ATOM     33  H61 UNL     1      36.585   6.967  20.598  1.00  0.00     0.157 HD
ENDBRANCH  24  31
ENDBRANCH  15  20
ENDBRANCH  11  12
ENDBRANCH  10  11
ENDBRANCH   6  10
ENDBRANCH   3   6
TORSDOF 7
ENDMDL
MODEL 4
REMARK VINA RESULT: -8.506534768      1.794      2.207
REMARK  7 active torsions:
REMARK  status: ('A' for Active; 'I' for Inactive)
REMARK    1  A    between atoms: C3_3  and  C5_6 
REMARK    2  A    between atoms: C5_6  and  S1_10 
REMARK    3  A    between atoms: S1_10  and  C6_11 
REMARK    4  A    between atoms: C6_11  and  C7_12 
REMARK    5  A    between atoms: C9_16  and  C10_17 
REMARK    6  A    between atoms: N4_19  and  C12_20 
REMARK    7  A    between atoms: C17_27  and  N6_28 
ROOT
HETATM    1  C1  UNL     1      36.643   1.624  28.698  1.00  0.00     0.098 C 
HETATM    2  C2  UNL     1      37.007   1.625  27.527  1.00  0.00    -0.162 C 
HETATM    3  C3  UNL     1      37.453   1.654  26.139  1.00  0.00     0.214 C 
HETATM    4  C4  UNL     1      38.451   2.731  25.946  1.00  0.00     0.082 C 
HETATM    5  N1  UNL     1      39.222   3.577  25.778  1.00  0.00    -0.196 NA
ENDROOT
BRANCH   3   6
HETATM    6  C5  UNL     1      36.324   1.871  25.194  1.00  0.00     0.069 C 
HETATM    7  N2  UNL     1      35.172   2.228  25.642  1.00  0.00    -0.395 N 
ATOM      8  H22 UNL     1      35.058   2.356  26.647  1.00  0.00     0.156 HD
ATOM      9  H21 UNL     1      34.399   2.376  24.994  1.00  0.00     0.156 HD
BRANCH   6  10
HETATM   10  S1  UNL     1      36.522   1.649  23.456  1.00  0.00    -0.110 SA
BRANCH  10  11
HETATM   11  C6  UNL     1      37.130   3.170  22.710  1.00  0.00     0.123 C 
BRANCH  11  12
HETATM   12  C7  UNL     1      36.184   4.296  23.004  1.00  0.00     0.005 A 
HETATM   13  C8  UNL     1      36.378   5.197  24.030  1.00  0.00     0.099 A 
HETATM   14  N3  UNL     1      35.520   6.197  24.278  1.00  0.00    -0.364 N 
HETATM   15  C9  UNL     1      34.404   6.428  23.571  1.00  0.00     0.050 A 
ATOM     16  H3  UNL     1      35.730   6.824  25.055  1.00  0.00     0.165 HD
HETATM   17  C18 UNL     1      34.189   5.528  22.530  1.00  0.00     0.073 A 
HETATM   18  C19 UNL     1      35.050   4.491  22.248  1.00  0.00     0.127 A 
HETATM   19  F1  UNL     1      34.817   3.626  21.225  1.00  0.00    -0.205 F 
BRANCH  15  20
HETATM   20  C10 UNL     1      33.464   7.512  23.830  1.00  0.00     0.053 A 
HETATM   21  C11 UNL     1      33.846   8.835  23.889  1.00  0.00     0.128 A 
HETATM   22  N4  UNL     1      32.755   9.572  24.141  1.00  0.00    -0.296 N 
HETATM   23  N5  UNL     1      31.723   8.773  24.238  1.00  0.00    -0.283 N 
HETATM   24  C17 UNL     1      32.115   7.490  24.053  1.00  0.00     0.127 A 
ATOM     25  H5  UNL     1      30.766   9.072  24.426  1.00  0.00     0.189 HD
BRANCH  22  26
HETATM   26  C12 UNL     1      32.641  11.011  24.294  1.00  0.00     0.107 C 
HETATM   27  C13 UNL     1      31.660  11.629  23.346  1.00  0.00     0.027 C 
HETATM   28  C14 UNL     1      32.320  12.884  22.802  1.00  0.00     0.002 C 
HETATM   29  C15 UNL     1      33.535  13.105  23.671  1.00  0.00     0.002 C 
HETATM   30  C16 UNL     1      33.969  11.700  24.039  1.00  0.00     0.027 C 
ENDBRANCH  22  26
BRANCH  24  31
HETATM   31  N6  UNL     1      31.344   6.460  24.085  1.00  0.00    -0.384 N 
ATOM     32  H62 UNL     1      30.914   6.066  24.922  1.00  0.00     0.157 HD
ATOM     33  H61 UNL     1      31.045   5.885  23.297  1.00  0.00     0.157 HD
ENDBRANCH  24  31
ENDBRANCH  15  20
ENDBRANCH  11  12
ENDBRANCH  10  11
ENDBRANCH   6  10
ENDBRANCH   3   6
TORSDOF 7
ENDMDL
MODEL 5
REMARK VINA RESULT: -8.503399509      1.643      1.852
REMARK  7 active torsions:
REMARK  status: ('A' for Active; 'I' for Inactive)
REMARK    1  A    between atoms: C3_3  and  C5_6 
REMARK    2  A    between atoms: C5_6  and  S1_10 
REMARK    3  A    between atoms: S1_10  and  C6_11 
REMARK    4  A    between atoms: C6_11  and  C7_12 
REMARK    5  A    between atoms: C9_16  and  C10_17 
REMARK    6  A    between atoms: N4_19  and  C12_20 
REMARK    7  A    between atoms: C17_27  and  N6_28 
ROOT
HETATM    1  C1  UNL     1      37.034   1.442  28.773  1.00  0.00     0.098 C 
HETATM    2  C2  UNL     1      36.681   1.793  27.653  1.00  0.00    -0.162 C 
HETATM    3  C3  UNL     1      36.246   2.182  26.316  1.00  0.00     0.214 C 
HETATM    4  C4  UNL     1      35.237   1.225  25.809  1.00  0.00     0.082 C 
HETATM    5  N1  UNL     1      34.458   0.477  25.394  1.00  0.00    -0.196 NA
ENDROOT
BRANCH   3   6
HETATM    6  C5  UNL     1      37.380   2.239  25.355  1.00  0.00     0.069 C 
HETATM    7  N2  UNL     1      38.589   2.280  25.791  1.00  0.00    -0.395 N 
ATOM      8  H22 UNL     1      38.745   2.271  26.799  1.00  0.00     0.156 HD
ATOM      9  H21 UNL     1      39.366   2.319  25.132  1.00  0.00     0.156 HD
BRANCH   6  10
HETATM   10  S1  UNL     1      37.110   2.255  23.612  1.00  0.00    -0.110 SA
BRANCH  10  11
HETATM   11  C6  UNL     1      37.622   3.839  22.928  1.00  0.00     0.123 C 
BRANCH  11  12
HETATM   12  C7  UNL     1      36.558   4.868  23.174  1.00  0.00     0.005 A 
HETATM   13  C8  UNL     1      36.133   5.227  24.436  1.00  0.00     0.099 A 
HETATM   14  N3  UNL     1      35.179   6.149  24.635  1.00  0.00    -0.364 N 
HETATM   15  C9  UNL     1      34.550   6.810  23.653  1.00  0.00     0.050 A 
ATOM     16  H3  UNL     1      34.915   6.362  25.597  1.00  0.00     0.165 HD
HETATM   17  C18 UNL     1      34.965   6.461  22.370  1.00  0.00     0.073 A 
HETATM   18  C19 UNL     1      35.941   5.519  22.130  1.00  0.00     0.127 A 
HETATM   19  F1  UNL     1      36.329   5.197  20.867  1.00  0.00    -0.205 F 
BRANCH  15  20
HETATM   20  C10 UNL     1      33.512   7.815  23.856  1.00  0.00     0.053 A 
HETATM   21  C11 UNL     1      33.780   9.166  23.904  1.00  0.00     0.128 A 
HETATM   22  N4  UNL     1      32.622   9.812  24.102  1.00  0.00    -0.296 N 
HETATM   23  N5  UNL     1      31.658   8.930  24.177  1.00  0.00    -0.283 N 
HETATM   24  C17 UNL     1      32.163   7.682  24.031  1.00  0.00     0.127 A 
ATOM     25  H5  UNL     1      30.672   9.150  24.324  1.00  0.00     0.189 HD
BRANCH  22  26
HETATM   26  C12 UNL     1      32.382  11.238  24.224  1.00  0.00     0.107 C 
HETATM   27  C13 UNL     1      31.573  11.799  23.094  1.00  0.00     0.027 C 
HETATM   28  C14 UNL     1      32.244  13.100  22.690  1.00  0.00     0.002 C 
HETATM   29  C15 UNL     1      33.240  13.394  23.787  1.00  0.00     0.002 C 
HETATM   30  C16 UNL     1      33.685  12.018  24.240  1.00  0.00     0.027 C 
ENDBRANCH  22  26
BRANCH  24  31
HETATM   31  N6  UNL     1      31.480   6.591  24.054  1.00  0.00    -0.384 N 
ATOM     32  H62 UNL     1      31.818   5.673  23.764  1.00  0.00     0.157 HD
ATOM     33  H61 UNL     1      30.515   6.470  24.361  1.00  0.00     0.157 HD
ENDBRANCH  24  31
ENDBRANCH  15  20
ENDBRANCH  11  12
ENDBRANCH  10  11
ENDBRANCH   6  10
ENDBRANCH   3   6
TORSDOF 7
ENDMDL
