MODEL 1
REMARK VINA RESULT: -8.411794787      0.000      0.000
REMARK  8 active torsions:
REMARK  status: ('A' for Active; 'I' for Inactive)
REMARK    1  A    between atoms: C3_4  and  C4_5 
REMARK    2  A    between atoms: C5_6  and  C6_7 
REMARK    3  A    between atoms: C12_13  and  O1_14 
REMARK    4  A    between atoms: C12_13  and  C13_16 
REMARK    5  A    between atoms: C13_16  and  C14_18 
REMARK    6  A    between atoms: C14_18  and  C15_19 
REMARK    7  A    between atoms: C17_21  and  O3_22 
REMARK    8  A    between atoms: C18_25  and  O5_26 
ROOT
HETATM    1  C6  UNL     1      35.797   3.513  24.543  1.00  0.00     0.008 C 
HETATM    2  C7  UNL     1      35.923   2.213  23.829  1.00  0.00     0.023 C 
HETATM    3  C8  UNL     1      36.683   4.556  23.970  1.00  0.00     0.020 C 
HETATM    4  C9  UNL     1      36.153   5.564  23.069  1.00  0.00    -0.014 C 
HETATM    5  C10 UNL     1      36.278   5.020  21.625  1.00  0.00     0.010 C 
HETATM    6  C11 UNL     1      34.825   6.144  23.156  1.00  0.00     0.053 C 
HETATM    7  C12 UNL     1      34.286   6.431  24.561  1.00  0.00     0.147 C 
HETATM    8  C19 UNL     1      34.507   5.271  25.396  1.00  0.00     0.200 A 
HETATM    9  O6  UNL     1      33.774   4.291  25.902  1.00  0.00    -0.365 OA
HETATM   10  C20 UNL     1      34.396   4.034  24.682  1.00  0.00     0.098 A 
HETATM   11  C21 UNL     1      33.394   3.395  23.843  1.00  0.00     0.050 C 
ENDROOT
BRANCH   7  12
HETATM   12  O1  UNL     1      35.137   7.487  25.009  1.00  0.00    -0.379 OA
ATOM     13  H1  UNL     1      35.797   7.021  25.508  1.00  0.00     0.211 HD
ENDBRANCH   7  12
BRANCH   7  14
HETATM   14  C13 UNL     1      32.946   7.018  24.498  1.00  0.00     0.168 C 
HETATM   15  O2  UNL     1      32.152   6.738  23.637  1.00  0.00    -0.294 OA
BRANCH  14  16
HETATM   16  C14 UNL     1      32.530   8.003  25.528  1.00  0.00     0.125 C 
BRANCH  16  17
HETATM   17  C15 UNL     1      31.947   9.204  24.891  1.00  0.00     0.012 A 
HETATM   18  C16 UNL     1      30.610   9.543  24.736  1.00  0.00     0.076 A 
HETATM   19  C17 UNL     1      30.574  10.738  24.091  1.00  0.00     0.186 A 
HETATM   20  O4  UNL     1      31.803  11.119  23.859  1.00  0.00    -0.264 OA
HETATM   21  C18 UNL     1      32.668  10.224  24.324  1.00  0.00     0.192 A 
BRANCH  19  22
HETATM   22  O3  UNL     1      29.432  11.443  23.734  1.00  0.00    -0.341 OA
ATOM     23  H3  UNL     1      29.315  11.958  22.944  1.00  0.00     0.220 HD
ENDBRANCH  19  22
BRANCH  21  24
HETATM   24  O5  UNL     1      34.055  10.288  24.260  1.00  0.00    -0.340 OA
ATOM     25  H5  UNL     1      34.584  10.004  23.524  1.00  0.00     0.220 HD
ENDBRANCH  21  24
ENDBRANCH  16  17
ENDBRANCH  14  16
ENDBRANCH   7  14
BRANCH   1  26
HETATM   26  C5  UNL     1      36.268   3.259  25.953  1.00  0.00    -0.014 C 
HETATM   27  C4  UNL     1      36.705   2.062  26.281  1.00  0.00    -0.001 C 
BRANCH  27  28
HETATM   28  C3  UNL     1      37.159   1.809  27.630  1.00  0.00     0.037 C 
HETATM   29  C2  UNL     1      36.312   1.412  28.552  1.00  0.00     0.090 C 
HETATM   30  C1  UNL     1      36.802   1.158  29.920  1.00  0.00     0.082 C 
HETATM   31  F1  UNL     1      34.997   1.246  28.210  1.00  0.00    -0.211 F 
ENDBRANCH  27  28
ENDBRANCH   1  26
TORSDOF 8
ENDMDL
MODEL 2
REMARK VINA RESULT: -8.381513615      3.161      7.988
REMARK  8 active torsions:
REMARK  status: ('A' for Active; 'I' for Inactive)
REMARK    1  A    between atoms: C3_4  and  C4_5 
REMARK    2  A    between atoms: C5_6  and  C6_7 
REMARK    3  A    between atoms: C12_13  and  O1_14 
REMARK    4  A    between atoms: C12_13  and  C13_16 
REMARK    5  A    between atoms: C13_16  and  C14_18 
REMARK    6  A    between atoms: C14_18  and  C15_19 
REMARK    7  A    between atoms: C17_21  and  O3_22 
REMARK    8  A    between atoms: C18_25  and  O5_26 
ROOT
HETATM    1  C6  UNL     1      32.014   7.850  26.122  1.00  0.00     0.008 C 
HETATM    2  C7  UNL     1      30.911   8.012  27.109  1.00  0.00     0.023 C 
HETATM    3  C8  UNL     1      33.346   8.101  26.723  1.00  0.00     0.020 C 
HETATM    4  C9  UNL     1      34.201   6.994  27.115  1.00  0.00    -0.014 C 
HETATM    5  C10 UNL     1      33.879   6.649  28.589  1.00  0.00     0.010 C 
HETATM    6  C11 UNL     1      34.287   5.722  26.423  1.00  0.00     0.053 C 
HETATM    7  C12 UNL     1      34.231   5.760  24.892  1.00  0.00     0.147 C 
HETATM    8  C19 UNL     1      33.136   6.612  24.482  1.00  0.00     0.200 A 
HETATM    9  O6  UNL     1      31.921   6.449  23.983  1.00  0.00    -0.365 OA
HETATM   10  C20 UNL     1      32.013   6.551  25.370  1.00  0.00     0.098 A 
HETATM   11  C21 UNL     1      31.161   5.503  25.911  1.00  0.00     0.050 C 
ENDROOT
BRANCH   7  12
HETATM   12  O1  UNL     1      35.462   6.402  24.556  1.00  0.00    -0.379 OA
ATOM     13  H1  UNL     1      35.274   7.315  24.740  1.00  0.00     0.211 HD
ENDBRANCH   7  12
BRANCH   7  14
HETATM   14  C13 UNL     1      34.335   4.413  24.331  1.00  0.00     0.168 C 
HETATM   15  O2  UNL     1      33.567   3.529  24.611  1.00  0.00    -0.294 OA
BRANCH  14  16
HETATM   16  C14 UNL     1      35.426   4.101  23.373  1.00  0.00     0.125 C 
BRANCH  16  17
HETATM   17  C15 UNL     1      36.637   3.654  24.096  1.00  0.00     0.012 A 
HETATM   18  C16 UNL     1      36.736   2.773  25.164  1.00  0.00     0.076 A 
HETATM   19  C17 UNL     1      38.054   2.677  25.481  1.00  0.00     0.186 A 
HETATM   20  O4  UNL     1      38.731   3.445  24.668  1.00  0.00    -0.264 OA
HETATM   21  C18 UNL     1      37.918   4.056  23.812  1.00  0.00     0.192 A 
BRANCH  19  22
HETATM   22  O3  UNL     1      38.598   1.900  26.494  1.00  0.00    -0.341 OA
ATOM     23  H3  UNL     1      38.876   2.207  27.349  1.00  0.00     0.220 HD
ENDBRANCH  19  22
BRANCH  21  24
HETATM   24  O5  UNL     1      38.276   4.944  22.805  1.00  0.00    -0.340 OA
ATOM     25  H5  UNL     1      39.134   4.999  22.401  1.00  0.00     0.220 HD
ENDBRANCH  21  24
ENDBRANCH  16  17
ENDBRANCH  14  16
ENDBRANCH   7  14
BRANCH   1  26
HETATM   26  C5  UNL     1      31.792   8.914  25.076  1.00  0.00    -0.014 C 
HETATM   27  C4  UNL     1      31.157  10.018  25.403  1.00  0.00    -0.001 C 
BRANCH  27  28
HETATM   28  C3  UNL     1      30.940  11.044  24.408  1.00  0.00     0.037 C 
HETATM   29  C2  UNL     1      29.806  11.102  23.750  1.00  0.00     0.090 C 
HETATM   30  C1  UNL     1      29.610  12.160  22.741  1.00  0.00     0.082 C 
HETATM   31  F1  UNL     1      28.837  10.173  24.024  1.00  0.00    -0.211 F 
ENDBRANCH  27  28
ENDBRANCH   1  26
TORSDOF 8
ENDMDL
MODEL 3
REMARK VINA RESULT: -8.335891819      2.801      3.665
REMARK  8 active torsions:
REMARK  status: ('A' for Active; 'I' for Inactive)
REMARK    1  A    between atoms: C3_4  and  C4_5 
REMARK    2  A    between atoms: C5_6  and  C6_7 
REMARK    3  A    between atoms: C12_13  and  O1_14 
REMARK    4  A    between atoms: C12_13  and  C13_16 
REMARK    5  A    between atoms: C13_16  and  C14_18 
REMARK    6  A    between atoms: C14_18  and  C15_19 
REMARK    7  A    between atoms: C17_21  and  O3_22 
REMARK    8  A    between atoms: C18_25  and  O5_26 
ROOT
HETATM    1  C6  UNL     1      33.727   6.319  26.010  1.00  0.00     0.008 C 
HETATM    2  C7  UNL     1      33.716   4.852  25.757  1.00  0.00     0.023 C 
HETATM    3  C8  UNL     1      34.729   7.025  25.175  1.00  0.00     0.020 C 
HETATM    4  C9  UNL     1      34.322   7.736  23.976  1.00  0.00    -0.014 C 
HETATM    5  C10 UNL     1      34.402   6.744  22.790  1.00  0.00     0.010 C 
HETATM    6  C11 UNL     1      33.066   8.444  23.811  1.00  0.00     0.053 C 
HETATM    7  C12 UNL     1      32.547   9.223  25.024  1.00  0.00     0.147 C 
HETATM    8  C19 UNL     1      32.629   8.379  26.196  1.00  0.00     0.200 A 
HETATM    9  O6  UNL     1      31.788   7.695  26.955  1.00  0.00    -0.365 OA
HETATM   10  C20 UNL     1      32.390   6.995  25.911  1.00  0.00     0.098 A 
HETATM   11  C21 UNL     1      31.333   6.224  25.276  1.00  0.00     0.050 C 
ENDROOT
BRANCH   7  12
HETATM   12  O1  UNL     1      33.504  10.275  25.148  1.00  0.00    -0.379 OA
ATOM     13  H1  UNL     1      34.323   9.799  25.224  1.00  0.00     0.211 HD
ENDBRANCH   7  12
BRANCH   7  14
HETATM   14  C13 UNL     1      31.281   9.890  24.714  1.00  0.00     0.168 C 
HETATM   15  O2  UNL     1      30.275   9.286  24.444  1.00  0.00    -0.294 OA
BRANCH  14  16
HETATM   16  C14 UNL     1      31.214  11.374  24.728  1.00  0.00     0.125 C 
BRANCH  16  17
HETATM   17  C15 UNL     1      30.898  11.890  23.378  1.00  0.00     0.012 A 
HETATM   18  C16 UNL     1      29.657  12.171  22.823  1.00  0.00     0.076 A 
HETATM   19  C17 UNL     1      29.878  12.623  21.561  1.00  0.00     0.186 A 
HETATM   20  O4  UNL     1      31.167  12.623  21.342  1.00  0.00    -0.264 OA
HETATM   21  C18 UNL     1      31.826  12.188  22.411  1.00  0.00     0.192 A 
BRANCH  19  22
HETATM   22  O3  UNL     1      28.907  13.018  20.651  1.00  0.00    -0.341 OA
ATOM     23  H3  UNL     1      28.541  13.891  20.565  1.00  0.00     0.220 HD
ENDBRANCH  19  22
BRANCH  21  24
HETATM   24  O5  UNL     1      33.202  12.052  22.550  1.00  0.00    -0.340 OA
ATOM     25  H5  UNL     1      33.727  12.452  23.233  1.00  0.00     0.220 HD
ENDBRANCH  21  24
ENDBRANCH  16  17
ENDBRANCH  14  16
ENDBRANCH   7  14
BRANCH   1  26
HETATM   26  C5  UNL     1      34.151   6.488  27.448  1.00  0.00    -0.014 C 
HETATM   27  C4  UNL     1      34.294   5.424  28.208  1.00  0.00    -0.001 C 
BRANCH  27  28
HETATM   28  C3  UNL     1      34.701   5.576  29.587  1.00  0.00     0.037 C 
HETATM   29  C2  UNL     1      34.067   4.934  30.541  1.00  0.00     0.090 C 
HETATM   30  C1  UNL     1      34.504   5.105  31.939  1.00  0.00     0.082 C 
HETATM   31  F1  UNL     1      33.017   4.122  30.203  1.00  0.00    -0.211 F 
ENDBRANCH  27  28
ENDBRANCH   1  26
TORSDOF 8
ENDMDL
MODEL 4
REMARK VINA RESULT: -8.285585229      3.514      7.916
REMARK  8 active torsions:
REMARK  status: ('A' for Active; 'I' for Inactive)
REMARK    1  A    between atoms: C3_4  and  C4_5 
REMARK    2  A    between atoms: C5_6  and  C6_7 
REMARK    3  A    between atoms: C12_13  and  O1_14 
REMARK    4  A    between atoms: C12_13  and  C13_16 
REMARK    5  A    between atoms: C13_16  and  C14_18 
REMARK    6  A    between atoms: C14_18  and  C15_19 
REMARK    7  A    between atoms: C17_21  and  O3_22 
REMARK    8  A    between atoms: C18_25  and  O5_26 
ROOT
HETATM    1  C6  UNL     1      32.163   7.769  26.430  1.00  0.00     0.008 C 
HETATM    2  C7  UNL     1      31.078   7.943  27.434  1.00  0.00     0.023 C 
HETATM    3  C8  UNL     1      33.511   7.833  27.045  1.00  0.00     0.020 C 
HETATM    4  C9  UNL     1      34.254   6.616  27.326  1.00  0.00    -0.014 C 
HETATM    5  C10 UNL     1      33.894   6.166  28.763  1.00  0.00     0.010 C 
HETATM    6  C11 UNL     1      34.219   5.412  26.516  1.00  0.00     0.053 C 
HETATM    7  C12 UNL     1      34.173   5.601  24.997  1.00  0.00     0.147 C 
HETATM    8  C19 UNL     1      33.167   6.589  24.675  1.00  0.00     0.200 A 
HETATM    9  O6  UNL     1      31.944   6.592  24.169  1.00  0.00    -0.365 OA
HETATM   10  C20 UNL     1      32.040   6.553  25.558  1.00  0.00     0.098 A 
HETATM   11  C21 UNL     1      31.088   5.546  26.002  1.00  0.00     0.050 C 
ENDROOT
BRANCH   7  12
HETATM   12  O1  UNL     1      35.462   6.149  24.716  1.00  0.00    -0.379 OA
ATOM     13  H1  UNL     1      36.006   5.373  24.654  1.00  0.00     0.211 HD
ENDBRANCH   7  12
BRANCH   7  14
HETATM   14  C13 UNL     1      34.148   4.309  24.310  1.00  0.00     0.168 C 
HETATM   15  O2  UNL     1      34.155   3.258  24.897  1.00  0.00    -0.294 OA
BRANCH  14  16
HETATM   16  C14 UNL     1      34.113   4.270  22.825  1.00  0.00     0.125 C 
BRANCH  16  17
HETATM   17  C15 UNL     1      35.128   3.327  22.308  1.00  0.00     0.012 A 
HETATM   18  C16 UNL     1      34.966   2.006  21.912  1.00  0.00     0.076 A 
HETATM   19  C17 UNL     1      36.184   1.558  21.512  1.00  0.00     0.186 A 
HETATM   20  O4  UNL     1      37.047   2.530  21.648  1.00  0.00    -0.264 OA
HETATM   21  C18 UNL     1      36.456   3.620  22.126  1.00  0.00     0.192 A 
BRANCH  19  22
HETATM   22  O3  UNL     1      36.474   0.285  21.038  1.00  0.00    -0.341 OA
ATOM     23  H3  UNL     1      36.833   0.073  20.184  1.00  0.00     0.220 HD
ENDBRANCH  19  22
BRANCH  21  24
HETATM   24  O5  UNL     1      37.053   4.845  22.400  1.00  0.00    -0.340 OA
ATOM     25  H5  UNL     1      36.897   5.651  21.920  1.00  0.00     0.220 HD
ENDBRANCH  21  24
ENDBRANCH  16  17
ENDBRANCH  14  16
ENDBRANCH   7  14
BRANCH   1  26
HETATM   26  C5  UNL     1      32.050   8.944  25.491  1.00  0.00    -0.014 C 
HETATM   27  C4  UNL     1      31.008   9.742  25.578  1.00  0.00    -0.001 C 
BRANCH  27  28
HETATM   28  C3  UNL     1      30.891  10.871  24.682  1.00  0.00     0.037 C 
HETATM   29  C2  UNL     1      29.818  11.021  23.940  1.00  0.00     0.090 C 
HETATM   30  C1  UNL     1      29.723  12.182  23.036  1.00  0.00     0.082 C 
HETATM   31  F1  UNL     1      28.819  10.089  24.031  1.00  0.00    -0.211 F 
ENDBRANCH  27  28
ENDBRANCH   1  26
TORSDOF 8
ENDMDL
MODEL 5
REMARK VINA RESULT: -8.173593813      1.385      1.527
REMARK  8 active torsions:
REMARK  status: ('A' for Active; 'I' for Inactive)
REMARK    1  A    between atoms: C3_4  and  C4_5 
REMARK    2  A    between atoms: C5_6  and  C6_7 
REMARK    3  A    between atoms: C12_13  and  O1_14 
REMARK    4  A    between atoms: C12_13  and  C13_16 
REMARK    5  A    between atoms: C13_16  and  C14_18 
REMARK    6  A    between atoms: C14_18  and  C15_19 
REMARK    7  A    between atoms: C17_21  and  O3_22 
REMARK    8  A    between atoms: C18_25  and  O5_26 
ROOT
HETATM    1  C6  UNL     1      35.594   3.113  24.919  1.00  0.00     0.008 C 
HETATM    2  C7  UNL     1      35.664   1.718  24.406  1.00  0.00     0.023 C 
HETATM    3  C8  UNL     1      36.793   3.906  24.553  1.00  0.00     0.020 C 
HETATM    4  C9  UNL     1      36.751   4.840  23.442  1.00  0.00    -0.014 C 
HETATM    5  C10 UNL     1      37.178   4.073  22.166  1.00  0.00     0.010 C 
HETATM    6  C11 UNL     1      35.594   5.628  23.058  1.00  0.00     0.053 C 
HETATM    7  C12 UNL     1      34.740   6.202  24.192  1.00  0.00     0.147 C 
HETATM    8  C19 UNL     1      34.480   5.159  25.160  1.00  0.00     0.200 A 
HETATM    9  O6  UNL     1      33.457   4.393  25.504  1.00  0.00    -0.365 OA
HETATM   10  C20 UNL     1      34.341   3.862  24.567  1.00  0.00     0.098 A 
HETATM   11  C21 UNL     1      33.519   3.271  23.522  1.00  0.00     0.050 C 
ENDROOT
BRANCH   7  12
HETATM   12  O1  UNL     1      35.615   7.166  24.779  1.00  0.00    -0.379 OA
ATOM     13  H1  UNL     1      35.019   7.695  25.297  1.00  0.00     0.211 HD
ENDBRANCH   7  12
BRANCH   7  14
HETATM   14  C13 UNL     1      33.617   6.976  23.661  1.00  0.00     0.168 C 
HETATM   15  O2  UNL     1      32.673   6.465  23.116  1.00  0.00    -0.294 OA
BRANCH  14  16
HETATM   16  C14 UNL     1      33.624   8.456  23.788  1.00  0.00     0.125 C 
BRANCH  16  17
HETATM   17  C15 UNL     1      32.565   8.900  24.722  1.00  0.00     0.012 A 
HETATM   18  C16 UNL     1      31.366   9.538  24.437  1.00  0.00     0.076 A 
HETATM   19  C17 UNL     1      30.731   9.740  25.620  1.00  0.00     0.186 A 
HETATM   20  O4  UNL     1      31.481   9.262  26.579  1.00  0.00    -0.264 OA
HETATM   21  C18 UNL     1      32.600   8.743  26.085  1.00  0.00     0.192 A 
BRANCH  19  22
HETATM   22  O3  UNL     1      29.496  10.350  25.794  1.00  0.00    -0.341 OA
ATOM     23  H3  UNL     1      28.746  10.273  25.216  1.00  0.00     0.220 HD
ENDBRANCH  19  22
BRANCH  21  24
HETATM   24  O5  UNL     1      33.633   8.146  26.798  1.00  0.00    -0.340 OA
ATOM     25  H5  UNL     1      34.003   8.476  27.609  1.00  0.00     0.220 HD
ENDBRANCH  21  24
ENDBRANCH  16  17
ENDBRANCH  14  16
ENDBRANCH   7  14
BRANCH   1  26
HETATM   26  C5  UNL     1      35.579   3.001  26.423  1.00  0.00    -0.014 C 
HETATM   27  C4  UNL     1      35.439   1.818  26.980  1.00  0.00    -0.001 C 
BRANCH  27  28
HETATM   28  C3  UNL     1      35.424   1.700  28.421  1.00  0.00     0.037 C 
HETATM   29  C2  UNL     1      36.530   1.435  29.077  1.00  0.00     0.090 C 
HETATM   30  C1  UNL     1      36.487   1.322  30.547  1.00  0.00     0.082 C 
HETATM   31  F1  UNL     1      37.692   1.271  28.371  1.00  0.00    -0.211 F 
ENDBRANCH  27  28
ENDBRANCH   1  26
TORSDOF 8
ENDMDL
