MODEL 1
REMARK VINA RESULT: -9.044973382      0.000      0.000
REMARK  6 active torsions:
REMARK  status: ('A' for Active; 'I' for Inactive)
REMARK    1  A    between atoms: C2_2  and  C3_3 
REMARK    2  A    between atoms: C6_6  and  C7_7 
REMARK    3  A    between atoms: C7_7  and  S1_8 
REMARK    4  A    between atoms: S1_8  and  C8_9 
REMARK    5  A    between atoms: N3_17  and  C12_18 
REMARK    6  A    between atoms: C15_23  and  N5_24 
ROOT
HETATM    1  C8  UNL     1      34.092   5.468  24.420  1.00  0.00     0.119 A 
HETATM    2  N1  UNL     1      35.057   4.683  24.995  1.00  0.00    -0.330 N 
ATOM      3  H1  UNL     1      35.329   4.841  25.965  1.00  0.00     0.168 HD
HETATM    4  C9  UNL     1      35.648   3.699  24.280  1.00  0.00     0.155 A 
HETATM    5  C10 UNL     1      35.321   3.442  22.974  1.00  0.00     0.153 A 
HETATM    6  N2  UNL     1      36.077   2.427  22.547  1.00  0.00    -0.335 N 
ATOM      7  H2  UNL     1      36.052   2.020  21.612  1.00  0.00     0.168 HD
HETATM    8  C11 UNL     1      36.885   2.023  23.562  1.00  0.00     0.186 A 
HETATM    9  N3  UNL     1      36.618   2.804  24.613  1.00  0.00    -0.322 N 
HETATM   10  N4  UNL     1      34.373   4.202  22.378  1.00  0.00    -0.324 N 
ATOM     11  H4  UNL     1      34.103   4.040  21.408  1.00  0.00     0.169 HD
HETATM   12  C15 UNL     1      33.791   5.187  23.112  1.00  0.00     0.135 A 
ENDROOT
BRANCH   1  13
HETATM   13  S1  UNL     1      33.387   6.823  25.330  1.00  0.00    -0.080 SA
BRANCH  13  14
HETATM   14  C7  UNL     1      33.722   8.417  24.721  1.00  0.00     0.067 C 
BRANCH  14  15
HETATM   15  C6  UNL     1      32.706   9.435  24.431  1.00  0.00     0.016 A 
HETATM   16  C4  UNL     1      33.117  10.667  23.878  1.00  0.00    -0.040 A 
HETATM   17  C3  UNL     1      32.248  11.674  23.537  1.00  0.00    -0.027 A 
HETATM   18  C5  UNL     1      34.597  10.810  23.700  1.00  0.00     0.050 C 
HETATM   19  C19 UNL     1      30.919  11.504  23.740  1.00  0.00     0.062 A 
HETATM   20  C17 UNL     1      30.456  10.323  24.276  1.00  0.00     0.002 A 
HETATM   21  N6  UNL     1      30.025  12.557  23.422  1.00  0.00    -0.101 NA
HETATM   22  C16 UNL     1      31.361   9.298  24.614  1.00  0.00     0.135 A 
HETATM   23  C18 UNL     1      28.998  10.150  24.482  1.00  0.00     0.053 C 
HETATM   24  F1  UNL     1      30.786   8.172  25.067  1.00  0.00    -0.205 F 
BRANCH  17  25
HETATM   25  C2  UNL     1      32.873  12.852  22.919  1.00  0.00     0.036 C 
HETATM   26  C1  UNL     1      33.060  14.063  23.726  1.00  0.00     0.010 C 
ENDBRANCH  17  25
ENDBRANCH  14  15
ENDBRANCH  13  14
ENDBRANCH   1  13
BRANCH  12  27
HETATM   27  N5  UNL     1      32.963   5.960  22.471  1.00  0.00    -0.383 N 
ATOM     28  H52 UNL     1      32.502   6.679  23.030  1.00  0.00     0.157 HD
ATOM     29  H51 UNL     1      32.763   5.770  21.489  1.00  0.00     0.157 HD
ENDBRANCH  12  27
BRANCH   9  30
HETATM   30  C12 UNL     1      37.246   2.760  25.935  1.00  0.00     0.084 C 
HETATM   31  C13 UNL     1      38.722   3.159  25.836  1.00  0.00     0.032 C 
HETATM   32  C14 UNL     1      37.226   1.335  26.446  1.00  0.00     0.032 C 
ENDBRANCH   9  30
TORSDOF 6
ENDMDL
MODEL 2
REMARK VINA RESULT: -9.032520231      1.284      1.374
REMARK  6 active torsions:
REMARK  status: ('A' for Active; 'I' for Inactive)
REMARK    1  A    between atoms: C2_2  and  C3_3 
REMARK    2  A    between atoms: C6_6  and  C7_7 
REMARK    3  A    between atoms: C7_7  and  S1_8 
REMARK    4  A    between atoms: S1_8  and  C8_9 
REMARK    5  A    between atoms: N3_17  and  C12_18 
REMARK    6  A    between atoms: C15_23  and  N5_24 
ROOT
HETATM    1  C8  UNL     1      34.969   5.786  23.703  1.00  0.00     0.119 A 
HETATM    2  N1  UNL     1      35.406   4.775  24.519  1.00  0.00    -0.330 N 
ATOM      3  H1  UNL     1      34.838   4.481  25.313  1.00  0.00     0.168 HD
HETATM    4  C9  UNL     1      36.589   4.167  24.274  1.00  0.00     0.155 A 
HETATM    5  C10 UNL     1      37.392   4.521  23.221  1.00  0.00     0.153 A 
HETATM    6  N2  UNL     1      38.483   3.751  23.251  1.00  0.00    -0.335 N 
ATOM      7  H2  UNL     1      39.258   3.792  22.589  1.00  0.00     0.168 HD
HETATM    8  C11 UNL     1      38.392   2.901  24.308  1.00  0.00     0.186 A 
HETATM    9  N3  UNL     1      37.236   3.163  24.925  1.00  0.00    -0.322 N 
HETATM   10  N4  UNL     1      36.988   5.518  22.399  1.00  0.00    -0.324 N 
ATOM     11  H4  UNL     1      37.559   5.809  21.605  1.00  0.00     0.169 HD
HETATM   12  C15 UNL     1      35.798   6.118  22.663  1.00  0.00     0.135 A 
ENDROOT
BRANCH   1  13
HETATM   13  S1  UNL     1      33.462   6.650  24.085  1.00  0.00    -0.080 SA
BRANCH  13  14
HETATM   14  C7  UNL     1      33.634   8.291  24.635  1.00  0.00     0.067 C 
BRANCH  14  15
HETATM   15  C6  UNL     1      32.661   9.363  24.392  1.00  0.00     0.016 A 
HETATM   16  C4  UNL     1      33.120  10.591  23.870  1.00  0.00    -0.040 A 
HETATM   17  C3  UNL     1      32.294  11.647  23.575  1.00  0.00    -0.027 A 
HETATM   18  C5  UNL     1      34.602  10.672  23.672  1.00  0.00     0.050 C 
HETATM   19  C19 UNL     1      30.961  11.532  23.794  1.00  0.00     0.062 A 
HETATM   20  C17 UNL     1      30.452  10.357  24.303  1.00  0.00     0.002 A 
HETATM   21  N6  UNL     1      30.112  12.634  23.524  1.00  0.00    -0.101 NA
HETATM   22  C16 UNL     1      31.315   9.282  24.594  1.00  0.00     0.135 A 
HETATM   23  C18 UNL     1      28.992  10.244  24.528  1.00  0.00     0.053 C 
HETATM   24  F1  UNL     1      30.695   8.170  25.022  1.00  0.00    -0.205 F 
BRANCH  17  25
HETATM   25  C2  UNL     1      32.963  12.814  22.982  1.00  0.00     0.036 C 
HETATM   26  C1  UNL     1      33.153  14.015  23.801  1.00  0.00     0.010 C 
ENDBRANCH  17  25
ENDBRANCH  14  15
ENDBRANCH  13  14
ENDBRANCH   1  13
BRANCH  12  27
HETATM   27  N5  UNL     1      35.496   7.139  21.913  1.00  0.00    -0.383 N 
ATOM     28  H52 UNL     1      34.535   7.175  21.575  1.00  0.00     0.157 HD
ATOM     29  H51 UNL     1      36.232   7.793  21.644  1.00  0.00     0.157 HD
ENDBRANCH  12  27
BRANCH   9  30
HETATM   30  C12 UNL     1      36.703   2.514  26.124  1.00  0.00     0.084 C 
HETATM   31  C13 UNL     1      37.829   1.824  26.901  1.00  0.00     0.032 C 
HETATM   32  C14 UNL     1      35.742   1.420  25.711  1.00  0.00     0.032 C 
ENDBRANCH   9  30
TORSDOF 6
ENDMDL
MODEL 3
REMARK VINA RESULT: -8.797140640      1.717      2.751
REMARK  6 active torsions:
REMARK  status: ('A' for Active; 'I' for Inactive)
REMARK    1  A    between atoms: C2_2  and  C3_3 
REMARK    2  A    between atoms: C6_6  and  C7_7 
REMARK    3  A    between atoms: C7_7  and  S1_8 
REMARK    4  A    between atoms: S1_8  and  C8_9 
REMARK    5  A    between atoms: N3_17  and  C12_18 
REMARK    6  A    between atoms: C15_23  and  N5_24 
ROOT
HETATM    1  C8  UNL     1      35.275   5.252  22.647  1.00  0.00     0.119 A 
HETATM    2  N1  UNL     1      35.881   4.553  23.657  1.00  0.00    -0.330 N 
ATOM      3  H1  UNL     1      36.286   5.052  24.449  1.00  0.00     0.168 HD
HETATM    4  C9  UNL     1      35.944   3.203  23.608  1.00  0.00     0.155 A 
HETATM    5  C10 UNL     1      35.416   2.481  22.569  1.00  0.00     0.153 A 
HETATM    6  N2  UNL     1      35.642   1.186  22.804  1.00  0.00    -0.335 N 
ATOM      7  H2  UNL     1      35.362   0.415  22.198  1.00  0.00     0.168 HD
HETATM    8  C11 UNL     1      36.306   1.062  23.984  1.00  0.00     0.186 A 
HETATM    9  N3  UNL     1      36.486   2.296  24.465  1.00  0.00    -0.322 N 
HETATM   10  N4  UNL     1      34.812   3.144  21.555  1.00  0.00    -0.324 N 
ATOM     11  H4  UNL     1      34.407   2.641  20.765  1.00  0.00     0.169 HD
HETATM   12  C15 UNL     1      34.761   4.500  21.622  1.00  0.00     0.135 A 
ENDROOT
BRANCH   1  13
HETATM   13  S1  UNL     1      35.281   7.030  22.665  1.00  0.00    -0.080 SA
BRANCH  13  14
HETATM   14  C7  UNL     1      34.551   7.789  24.049  1.00  0.00     0.067 C 
BRANCH  14  15
HETATM   15  C6  UNL     1      33.805   9.052  24.018  1.00  0.00     0.016 A 
HETATM   16  C4  UNL     1      32.430   9.038  24.334  1.00  0.00    -0.040 A 
HETATM   17  C3  UNL     1      31.646  10.164  24.368  1.00  0.00    -0.027 A 
HETATM   18  C5  UNL     1      31.868   7.679  24.618  1.00  0.00     0.050 C 
HETATM   19  C19 UNL     1      32.198  11.369  24.079  1.00  0.00     0.062 A 
HETATM   20  C17 UNL     1      33.537  11.448  23.764  1.00  0.00     0.002 A 
HETATM   21  N6  UNL     1      31.383  12.528  24.079  1.00  0.00    -0.101 NA
HETATM   22  C16 UNL     1      34.326  10.282  23.740  1.00  0.00     0.135 A 
HETATM   23  C18 UNL     1      34.127  12.773  23.460  1.00  0.00     0.053 C 
HETATM   24  F1  UNL     1      35.628  10.495  23.484  1.00  0.00    -0.205 F 
BRANCH  17  25
HETATM   25  C2  UNL     1      30.253   9.941  24.779  1.00  0.00     0.036 C 
HETATM   26  C1  UNL     1      29.884  10.151  26.182  1.00  0.00     0.010 C 
ENDBRANCH  17  25
ENDBRANCH  14  15
ENDBRANCH  13  14
ENDBRANCH   1  13
BRANCH  12  27
HETATM   27  N5  UNL     1      34.266   5.103  20.579  1.00  0.00    -0.383 N 
ATOM     28  H52 UNL     1      33.933   6.055  20.731  1.00  0.00     0.157 HD
ATOM     29  H51 UNL     1      34.170   4.586  19.705  1.00  0.00     0.157 HD
ENDBRANCH  12  27
BRANCH   9  30
HETATM   30  C12 UNL     1      37.164   2.674  25.706  1.00  0.00     0.084 C 
HETATM   31  C13 UNL     1      38.604   3.108  25.415  1.00  0.00     0.032 C 
HETATM   32  C14 UNL     1      37.262   1.462  26.607  1.00  0.00     0.032 C 
ENDBRANCH   9  30
TORSDOF 6
ENDMDL
MODEL 4
REMARK VINA RESULT: -8.746300242      2.874      8.971
REMARK  6 active torsions:
REMARK  status: ('A' for Active; 'I' for Inactive)
REMARK    1  A    between atoms: C2_2  and  C3_3 
REMARK    2  A    between atoms: C6_6  and  C7_7 
REMARK    3  A    between atoms: C7_7  and  S1_8 
REMARK    4  A    between atoms: S1_8  and  C8_9 
REMARK    5  A    between atoms: N3_17  and  C12_18 
REMARK    6  A    between atoms: C15_23  and  N5_24 
ROOT
HETATM    1  C8  UNL     1      32.891   7.966  25.721  1.00  0.00     0.119 A 
HETATM    2  N1  UNL     1      33.232   9.236  25.335  1.00  0.00    -0.330 N 
ATOM      3  H1  UNL     1      34.162   9.598  25.546  1.00  0.00     0.168 HD
HETATM    4  C9  UNL     1      32.341  10.010  24.676  1.00  0.00     0.155 A 
HETATM    5  C10 UNL     1      31.078   9.574  24.366  1.00  0.00     0.153 A 
HETATM    6  N2  UNL     1      30.442  10.560  23.728  1.00  0.00    -0.335 N 
ATOM      7  H2  UNL     1      29.484  10.521  23.380  1.00  0.00     0.168 HD
HETATM    8  C11 UNL     1      31.279  11.625  23.619  1.00  0.00     0.186 A 
HETATM    9  N3  UNL     1      32.432  11.281  24.200  1.00  0.00    -0.322 N 
HETATM   10  N4  UNL     1      30.711   8.325  24.736  1.00  0.00    -0.324 N 
ATOM     11  H4  UNL     1      29.780   7.966  24.523  1.00  0.00     0.169 HD
HETATM   12  C15 UNL     1      31.620   7.563  25.399  1.00  0.00     0.135 A 
ENDROOT
BRANCH   1  13
HETATM   13  S1  UNL     1      34.029   6.987  26.674  1.00  0.00    -0.080 SA
BRANCH  13  14
HETATM   14  C7  UNL     1      33.923   5.264  26.467  1.00  0.00     0.067 C 
BRANCH  14  15
HETATM   15  C6  UNL     1      34.656   4.276  27.268  1.00  0.00     0.016 A 
HETATM   16  C4  UNL     1      35.560   3.409  26.617  1.00  0.00    -0.040 A 
HETATM   17  C3  UNL     1      36.320   2.473  27.272  1.00  0.00    -0.027 A 
HETATM   18  C5  UNL     1      35.622   3.572  25.129  1.00  0.00     0.050 C 
HETATM   19  C19 UNL     1      36.210   2.349  28.618  1.00  0.00     0.062 A 
HETATM   20  C17 UNL     1      35.345   3.167  29.310  1.00  0.00     0.002 A 
HETATM   21  N6  UNL     1      36.967   1.358  29.291  1.00  0.00    -0.101 NA
HETATM   22  C16 UNL     1      34.577   4.127  28.621  1.00  0.00     0.135 A 
HETATM   23  C18 UNL     1      35.243   3.025  30.782  1.00  0.00     0.053 C 
HETATM   24  F1  UNL     1      33.821   4.907  29.410  1.00  0.00    -0.205 F 
BRANCH  17  25
HETATM   25  C2  UNL     1      37.244   1.712  26.418  1.00  0.00     0.036 C 
HETATM   26  C1  UNL     1      38.569   2.269  26.133  1.00  0.00     0.010 C 
ENDBRANCH  17  25
ENDBRANCH  14  15
ENDBRANCH  13  14
ENDBRANCH   1  13
BRANCH  12  27
HETATM   27  N5  UNL     1      31.192   6.411  25.828  1.00  0.00    -0.383 N 
ATOM     28  H52 UNL     1      30.698   5.837  25.145  1.00  0.00     0.157 HD
ATOM     29  H51 UNL     1      31.302   6.175  26.815  1.00  0.00     0.157 HD
ENDBRANCH  12  27
BRANCH   9  30
HETATM   30  C12 UNL     1      33.634  12.104  24.344  1.00  0.00     0.084 C 
HETATM   31  C13 UNL     1      33.330  13.560  23.974  1.00  0.00     0.032 C 
HETATM   32  C14 UNL     1      34.682  11.628  23.360  1.00  0.00     0.032 C 
ENDBRANCH   9  30
TORSDOF 6
ENDMDL
MODEL 5
REMARK VINA RESULT: -8.708362423      2.501      3.663
REMARK  6 active torsions:
REMARK  status: ('A' for Active; 'I' for Inactive)
REMARK    1  A    between atoms: C2_2  and  C3_3 
REMARK    2  A    between atoms: C6_6  and  C7_7 
REMARK    3  A    between atoms: C7_7  and  S1_8 
REMARK    4  A    between atoms: S1_8  and  C8_9 
REMARK    5  A    between atoms: N3_17  and  C12_18 
REMARK    6  A    between atoms: C15_23  and  N5_24 
ROOT
HETATM    1  C8  UNL     1      35.978   4.671  24.299  1.00  0.00     0.119 A 
HETATM    2  N1  UNL     1      35.683   4.071  25.495  1.00  0.00    -0.330 N 
ATOM      3  H1  UNL     1      34.826   4.319  25.990  1.00  0.00     0.168 HD
HETATM    4  C9  UNL     1      36.523   3.152  26.020  1.00  0.00     0.155 A 
HETATM    5  C10 UNL     1      37.687   2.780  25.398  1.00  0.00     0.153 A 
HETATM    6  N2  UNL     1      38.296   1.870  26.162  1.00  0.00    -0.335 N 
ATOM      7  H2  UNL     1      39.185   1.416  25.950  1.00  0.00     0.168 HD
HETATM    8  C11 UNL     1      37.539   1.646  27.268  1.00  0.00     0.186 A 
HETATM    9  N3  UNL     1      36.462   2.431  27.173  1.00  0.00    -0.322 N 
HETATM   10  N4  UNL     1      38.006   3.357  24.215  1.00  0.00    -0.324 N 
ATOM     11  H4  UNL     1      38.864   3.106  23.723  1.00  0.00     0.169 HD
HETATM   12  C15 UNL     1      37.150   4.280  23.705  1.00  0.00     0.135 A 
ENDROOT
BRANCH   1  13
HETATM   13  S1  UNL     1      34.921   5.950  23.659  1.00  0.00    -0.080 SA
BRANCH  13  14
HETATM   14  C7  UNL     1      34.792   7.394  24.619  1.00  0.00     0.067 C 
BRANCH  14  15
HETATM   15  C6  UNL     1      33.648   7.734  25.474  1.00  0.00     0.016 A 
HETATM   16  C4  UNL     1      32.855   8.852  25.135  1.00  0.00    -0.040 A 
HETATM   17  C3  UNL     1      31.745   9.238  25.844  1.00  0.00    -0.027 A 
HETATM   18  C5  UNL     1      33.327   9.613  23.935  1.00  0.00     0.050 C 
HETATM   19  C19 UNL     1      31.373   8.528  26.938  1.00  0.00     0.062 A 
HETATM   20  C17 UNL     1      32.106   7.426  27.319  1.00  0.00     0.002 A 
HETATM   21  N6  UNL     1      30.248   8.948  27.692  1.00  0.00    -0.101 NA
HETATM   22  C16 UNL     1      33.239   7.041  26.575  1.00  0.00     0.135 A 
HETATM   23  C18 UNL     1      31.680   6.656  28.511  1.00  0.00     0.053 C 
HETATM   24  F1  UNL     1      33.832   5.915  27.005  1.00  0.00    -0.205 F 
BRANCH  17  25
HETATM   25  C2  UNL     1      31.024  10.393  25.291  1.00  0.00     0.036 C 
HETATM   26  C1  UNL     1      29.871  10.157  24.416  1.00  0.00     0.010 C 
ENDBRANCH  17  25
ENDBRANCH  14  15
ENDBRANCH  13  14
ENDBRANCH   1  13
BRANCH  12  27
HETATM   27  N5  UNL     1      37.545   4.885  22.622  1.00  0.00    -0.383 N 
ATOM     28  H52 UNL     1      36.843   4.994  21.890  1.00  0.00     0.157 HD
ATOM     29  H51 UNL     1      38.527   5.147  22.528  1.00  0.00     0.157 HD
ENDBRANCH  12  27
BRANCH   9  30
HETATM   30  C12 UNL     1      35.364   2.552  28.133  1.00  0.00     0.084 C 
HETATM   31  C13 UNL     1      35.594   3.752  29.058  1.00  0.00     0.032 C 
HETATM   32  C14 UNL     1      35.348   1.328  29.025  1.00  0.00     0.032 C 
ENDBRANCH   9  30
TORSDOF 6
ENDMDL
