MODEL 1
REMARK VINA RESULT: -7.863840495      0.000      0.000
REMARK  8 active torsions:
REMARK  status: ('A' for Active; 'I' for Inactive)
REMARK    1  A    between atoms: O1_2  and  C2_3 
REMARK    2  A    between atoms: C5_6  and  C6_7 
REMARK    3  A    between atoms: C6_7  and  C7_8 
REMARK    4  A    between atoms: C9_11  and  C10_12 
REMARK    5  A    between atoms: N3_19  and  C13_20 
REMARK    6  A    between atoms: C13_20  and  C14_21 
REMARK    7  A    between atoms: C20_28  and  O4_29 
REMARK    8  A    between atoms: C22_31  and  O5_32 
ROOT
HETATM    1  C10 UNL     1      10.714   9.428  25.199  1.00  0.00     0.127 C 
HETATM    2  C11 UNL     1      11.698   8.519  25.672  1.00  0.00     0.090 C 
HETATM    3  N1  UNL     1      12.502   7.764  26.040  1.00  0.00    -0.192 NA
ENDROOT
BRANCH   1   4
HETATM    4  C9  UNL     1       9.840   9.098  24.264  1.00  0.00     0.099 A 
HETATM    5  C8  UNL     1       8.648   8.448  24.578  1.00  0.00     0.226 A 
HETATM    6  C7  UNL     1       7.727   8.088  23.619  1.00  0.00     0.096 A 
HETATM    7  O2  UNL     1       8.475   8.212  25.816  1.00  0.00    -0.283 OA
HETATM    8  N3  UNL     1       7.956   8.357  22.316  1.00  0.00    -0.270 N 
HETATM    9  C12 UNL     1       9.125   8.999  22.032  1.00  0.00     0.331 A 
HETATM   10  N2  UNL     1      10.018   9.347  22.966  1.00  0.00    -0.304 N 
HETATM   11  O3  UNL     1       9.435   9.325  20.829  1.00  0.00    -0.246 OA
ATOM     12  H2  UNL     1      10.871   9.824  22.673  1.00  0.00     0.171 HD
BRANCH   6  13
HETATM   13  C6  UNL     1       6.622   7.513  24.041  1.00  0.00     0.048 C 
BRANCH  13  14
HETATM   14  C5  UNL     1       5.284   8.075  24.134  1.00  0.00     0.003 A 
HETATM   15  C4  UNL     1       5.057   9.367  24.585  1.00  0.00     0.017 A 
HETATM   16  C3  UNL     1       3.785   9.862  24.615  1.00  0.00     0.040 A 
HETATM   17  C2  UNL     1       2.706   9.126  24.211  1.00  0.00     0.104 A 
HETATM   18  C22 UNL     1       2.895   7.819  23.750  1.00  0.00     0.136 A 
HETATM   19  C20 UNL     1       4.176   7.316  23.719  1.00  0.00     0.114 A 
BRANCH  17  20
HETATM   20  O1  UNL     1       1.427   9.620  24.238  1.00  0.00    -0.353 OA
HETATM   21  C1  UNL     1       0.633   9.675  25.407  1.00  0.00     0.210 C 
ENDBRANCH  17  20
BRANCH  18  22
HETATM   22  O5  UNL     1       1.832   7.064  23.342  1.00  0.00    -0.351 OA
HETATM   23  C23 UNL     1       1.115   6.157  24.127  1.00  0.00     0.210 C 
ENDBRANCH  18  22
BRANCH  19  24
HETATM   24  O4  UNL     1       4.412   6.049  23.279  1.00  0.00    -0.352 OA
HETATM   25  C21 UNL     1       4.312   5.527  21.999  1.00  0.00     0.210 C 
ENDBRANCH  19  24
ENDBRANCH  13  14
ENDBRANCH   6  13
BRANCH   8  26
HETATM   26  C13 UNL     1       7.036   8.069  21.294  1.00  0.00     0.115 C 
BRANCH  26  27
HETATM   27  C14 UNL     1       7.229   7.105  20.240  1.00  0.00     0.002 A 
HETATM   28  C15 UNL     1       7.717   5.811  20.571  1.00  0.00     0.014 A 
HETATM   29  C16 UNL     1       7.849   4.790  19.682  1.00  0.00     0.001 A 
HETATM   30  C17 UNL     1       7.505   4.956  18.364  1.00  0.00     0.002 A 
HETATM   31  C18 UNL     1       7.032   6.174  17.988  1.00  0.00     0.024 A 
HETATM   32  C19 UNL     1       6.903   7.216  18.916  1.00  0.00     0.045 A 
HETATM   33 CL1  UNL     1       6.349   8.720  18.272  1.00  0.00    -0.083 Cl
ENDBRANCH  26  27
ENDBRANCH   8  26
ENDBRANCH   1   4
TORSDOF 8
ENDMDL
MODEL 2
REMARK VINA RESULT: -7.638417583      1.065      1.142
REMARK  8 active torsions:
REMARK  status: ('A' for Active; 'I' for Inactive)
REMARK    1  A    between atoms: O1_2  and  C2_3 
REMARK    2  A    between atoms: C5_6  and  C6_7 
REMARK    3  A    between atoms: C6_7  and  C7_8 
REMARK    4  A    between atoms: C9_11  and  C10_12 
REMARK    5  A    between atoms: N3_19  and  C13_20 
REMARK    6  A    between atoms: C13_20  and  C14_21 
REMARK    7  A    between atoms: C20_28  and  O4_29 
REMARK    8  A    between atoms: C22_31  and  O5_32 
ROOT
HETATM    1  C10 UNL     1      10.024   9.138  24.506  1.00  0.00     0.127 C 
HETATM    2  C11 UNL     1      11.399   8.797  24.609  1.00  0.00     0.090 C 
HETATM    3  N1  UNL     1      12.526   8.518  24.671  1.00  0.00    -0.192 NA
ENDROOT
BRANCH   1   4
HETATM    4  C9  UNL     1       9.320   8.912  23.411  1.00  0.00     0.099 A 
HETATM    5  C8  UNL     1       8.114   8.216  23.451  1.00  0.00     0.226 A 
HETATM    6  C7  UNL     1       7.369   7.961  22.320  1.00  0.00     0.096 A 
HETATM    7  O2  UNL     1       7.754   7.831  24.609  1.00  0.00    -0.283 OA
HETATM    8  N3  UNL     1       7.793   8.387  21.112  1.00  0.00    -0.270 N 
HETATM    9  C12 UNL     1       8.973   9.072  21.097  1.00  0.00     0.331 A 
HETATM   10  N2  UNL     1       9.695   9.317  22.197  1.00  0.00    -0.304 N 
HETATM   11  O3  UNL     1       9.460   9.542  20.005  1.00  0.00    -0.246 OA
ATOM     12  H2  UNL     1      10.568   9.835  22.102  1.00  0.00     0.171 HD
BRANCH   6  13
HETATM   13  C6  UNL     1       6.229   7.328  22.488  1.00  0.00     0.048 C 
BRANCH  13  14
HETATM   14  C5  UNL     1       4.943   7.866  22.902  1.00  0.00     0.003 A 
HETATM   15  C4  UNL     1       4.674   9.226  22.887  1.00  0.00     0.017 A 
HETATM   16  C3  UNL     1       3.437   9.678  23.247  1.00  0.00     0.040 A 
HETATM   17  C2  UNL     1       2.433   8.831  23.628  1.00  0.00     0.104 A 
HETATM   18  C22 UNL     1       2.666   7.452  23.655  1.00  0.00     0.136 A 
HETATM   19  C20 UNL     1       3.913   6.992  23.295  1.00  0.00     0.114 A 
BRANCH  17  20
HETATM   20  O1  UNL     1       1.189   9.280  23.987  1.00  0.00    -0.353 OA
HETATM   21  C1  UNL     1       0.887   9.815  25.262  1.00  0.00     0.210 C 
ENDBRANCH  17  20
BRANCH  18  22
HETATM   22  O5  UNL     1       1.679   6.585  24.033  1.00  0.00    -0.351 OA
HETATM   23  C23 UNL     1       0.682   6.060  23.207  1.00  0.00     0.210 C 
ENDBRANCH  18  22
BRANCH  19  24
HETATM   24  O4  UNL     1       4.190   5.660  23.306  1.00  0.00    -0.352 OA
HETATM   25  C21 UNL     1       3.955   4.702  22.332  1.00  0.00     0.210 C 
ENDBRANCH  19  24
ENDBRANCH  13  14
ENDBRANCH   6  13
BRANCH   8  26
HETATM   26  C13 UNL     1       7.057   8.212  19.928  1.00  0.00     0.115 C 
BRANCH  26  27
HETATM   27  C14 UNL     1       7.223   7.131  18.989  1.00  0.00     0.002 A 
HETATM   28  C15 UNL     1       8.144   6.091  19.293  1.00  0.00     0.014 A 
HETATM   29  C16 UNL     1       8.318   4.974  18.537  1.00  0.00     0.001 A 
HETATM   30  C17 UNL     1       7.585   4.779  17.393  1.00  0.00     0.002 A 
HETATM   31  C18 UNL     1       6.688   5.741  17.051  1.00  0.00     0.024 A 
HETATM   32  C19 UNL     1       6.522   6.886  17.840  1.00  0.00     0.045 A 
HETATM   33 CL1  UNL     1       5.391   8.045  17.241  1.00  0.00    -0.083 Cl
ENDBRANCH  26  27
ENDBRANCH   8  26
ENDBRANCH   1   4
TORSDOF 8
ENDMDL
MODEL 3
REMARK VINA RESULT: -7.626886252      3.535      6.500
REMARK  8 active torsions:
REMARK  status: ('A' for Active; 'I' for Inactive)
REMARK    1  A    between atoms: O1_2  and  C2_3 
REMARK    2  A    between atoms: C5_6  and  C6_7 
REMARK    3  A    between atoms: C6_7  and  C7_8 
REMARK    4  A    between atoms: C9_11  and  C10_12 
REMARK    5  A    between atoms: N3_19  and  C13_20 
REMARK    6  A    between atoms: C13_20  and  C14_21 
REMARK    7  A    between atoms: C20_28  and  O4_29 
REMARK    8  A    between atoms: C22_31  and  O5_32 
ROOT
HETATM    1  C10 UNL     1       2.908   4.052  21.784  1.00  0.00     0.127 C 
HETATM    2  C11 UNL     1       2.720   3.637  23.129  1.00  0.00     0.090 C 
HETATM    3  N1  UNL     1       2.585   3.305  24.236  1.00  0.00    -0.192 NA
ENDROOT
BRANCH   1   4
HETATM    4  C9  UNL     1       4.110   4.208  21.256  1.00  0.00     0.099 A 
HETATM    5  C8  UNL     1       4.602   5.470  20.926  1.00  0.00     0.226 A 
HETATM    6  C7  UNL     1       5.847   5.655  20.366  1.00  0.00     0.096 A 
HETATM    7  O2  UNL     1       3.815   6.436  21.180  1.00  0.00    -0.283 OA
HETATM    8  N3  UNL     1       6.646   4.598  20.113  1.00  0.00    -0.270 N 
HETATM    9  C12 UNL     1       6.148   3.374  20.449  1.00  0.00     0.331 A 
HETATM   10  N2  UNL     1       4.937   3.197  20.992  1.00  0.00    -0.304 N 
HETATM   11  O3  UNL     1       6.831   2.301  20.272  1.00  0.00    -0.246 OA
ATOM     12  H2  UNL     1       4.635   2.248  21.213  1.00  0.00     0.171 HD
BRANCH   6  13
HETATM   13  C6  UNL     1       6.217   6.895  20.134  1.00  0.00     0.048 C 
BRANCH  13  14
HETATM   14  C5  UNL     1       7.002   7.782  20.978  1.00  0.00     0.003 A 
HETATM   15  C4  UNL     1       7.480   7.388  22.219  1.00  0.00     0.017 A 
HETATM   16  C3  UNL     1       8.246   8.244  22.955  1.00  0.00     0.040 A 
HETATM   17  C2  UNL     1       8.570   9.497  22.513  1.00  0.00     0.104 A 
HETATM   18  C22 UNL     1       8.107   9.931  21.267  1.00  0.00     0.136 A 
HETATM   19  C20 UNL     1       7.332   9.071  20.522  1.00  0.00     0.114 A 
BRANCH  17  20
HETATM   20  O1  UNL     1       9.342  10.360  23.248  1.00  0.00    -0.353 OA
HETATM   21  C1  UNL     1      10.294   9.937  24.206  1.00  0.00     0.210 C 
ENDBRANCH  17  20
BRANCH  18  22
HETATM   22  O5  UNL     1       8.417  11.179  20.804  1.00  0.00    -0.351 OA
HETATM   23  C23 UNL     1       7.733  12.361  21.100  1.00  0.00     0.210 C 
ENDBRANCH  18  22
BRANCH  19  24
HETATM   24  O4  UNL     1       6.857   9.446  19.303  1.00  0.00    -0.352 OA
HETATM   25  C21 UNL     1       5.705  10.149  18.984  1.00  0.00     0.210 C 
ENDBRANCH  19  24
ENDBRANCH  13  14
ENDBRANCH   6  13
BRANCH   8  26
HETATM   26  C13 UNL     1       7.948   4.718  19.597  1.00  0.00     0.115 C 
BRANCH  26  27
HETATM   27  C14 UNL     1       8.408   4.170  18.346  1.00  0.00     0.002 A 
HETATM   28  C15 UNL     1       9.463   3.216  18.359  1.00  0.00     0.014 A 
HETATM   29  C16 UNL     1       9.917   2.559  17.258  1.00  0.00     0.001 A 
HETATM   30  C17 UNL     1       9.361   2.786  16.024  1.00  0.00     0.002 A 
HETATM   31  C18 UNL     1       8.347   3.689  15.950  1.00  0.00     0.024 A 
HETATM   32  C19 UNL     1       7.892   4.358  17.093  1.00  0.00     0.045 A 
HETATM   33 CL1  UNL     1       6.642   5.520  16.826  1.00  0.00    -0.083 Cl
ENDBRANCH  26  27
ENDBRANCH   8  26
ENDBRANCH   1   4
TORSDOF 8
ENDMDL
MODEL 4
REMARK VINA RESULT: -7.565462040      3.173      5.558
REMARK  8 active torsions:
REMARK  status: ('A' for Active; 'I' for Inactive)
REMARK    1  A    between atoms: O1_2  and  C2_3 
REMARK    2  A    between atoms: C5_6  and  C6_7 
REMARK    3  A    between atoms: C6_7  and  C7_8 
REMARK    4  A    between atoms: C9_11  and  C10_12 
REMARK    5  A    between atoms: N3_19  and  C13_20 
REMARK    6  A    between atoms: C13_20  and  C14_21 
REMARK    7  A    between atoms: C20_28  and  O4_29 
REMARK    8  A    between atoms: C22_31  and  O5_32 
ROOT
HETATM    1  C10 UNL     1      10.244   8.840  25.563  1.00  0.00     0.127 C 
HETATM    2  C11 UNL     1      10.685   7.838  26.468  1.00  0.00     0.090 C 
HETATM    3  N1  UNL     1      11.039   7.003  27.196  1.00  0.00    -0.192 NA
ENDROOT
BRANCH   1   4
HETATM    4  C9  UNL     1       9.257   8.633  24.708  1.00  0.00     0.099 A 
HETATM    5  C8  UNL     1       9.330   9.079  23.390  1.00  0.00     0.226 A 
HETATM    6  C7  UNL     1       8.310   8.883  22.485  1.00  0.00     0.096 A 
HETATM    7  O2  UNL     1      10.409   9.681  23.086  1.00  0.00    -0.283 OA
HETATM    8  N3  UNL     1       7.183   8.240  22.855  1.00  0.00    -0.270 N 
HETATM    9  C12 UNL     1       7.135   7.807  24.147  1.00  0.00     0.331 A 
HETATM   10  N2  UNL     1       8.127   8.000  25.024  1.00  0.00    -0.304 N 
HETATM   11  O3  UNL     1       6.120   7.164  24.601  1.00  0.00    -0.246 OA
ATOM     12  H2  UNL     1       8.015   7.647  25.974  1.00  0.00     0.171 HD
BRANCH   6  13
HETATM   13  C6  UNL     1       8.510   9.315  21.259  1.00  0.00     0.048 C 
BRANCH  13  14
HETATM   14  C5  UNL     1       7.825  10.383  20.549  1.00  0.00     0.003 A 
HETATM   15  C4  UNL     1       7.646  11.641  21.104  1.00  0.00     0.017 A 
HETATM   16  C3  UNL     1       7.031  12.622  20.381  1.00  0.00     0.040 A 
HETATM   17  C2  UNL     1       6.576  12.413  19.109  1.00  0.00     0.104 A 
HETATM   18  C22 UNL     1       6.738  11.158  18.514  1.00  0.00     0.136 A 
HETATM   19  C20 UNL     1       7.357  10.166  19.241  1.00  0.00     0.114 A 
BRANCH  17  20
HETATM   20  O1  UNL     1       5.960  13.396  18.377  1.00  0.00    -0.353 OA
HETATM   21  C1  UNL     1       4.824  14.111  18.826  1.00  0.00     0.210 C 
ENDBRANCH  17  20
BRANCH  18  22
HETATM   22  O5  UNL     1       6.291  10.925  17.244  1.00  0.00    -0.351 OA
HETATM   23  C23 UNL     1       6.999  11.165  16.063  1.00  0.00     0.210 C 
ENDBRANCH  18  22
BRANCH  19  24
HETATM   24  O4  UNL     1       7.537   8.927  18.708  1.00  0.00    -0.352 OA
HETATM   25  C21 UNL     1       6.617   7.908  18.511  1.00  0.00     0.210 C 
ENDBRANCH  19  24
ENDBRANCH  13  14
ENDBRANCH   6  13
BRANCH   8  26
HETATM   26  C13 UNL     1       6.129   7.956  21.970  1.00  0.00     0.115 C 
BRANCH  26  27
HETATM   27  C14 UNL     1       4.791   8.484  22.064  1.00  0.00     0.002 A 
HETATM   28  C15 UNL     1       4.577   9.867  21.813  1.00  0.00     0.014 A 
HETATM   29  C16 UNL     1       3.354  10.461  21.777  1.00  0.00     0.001 A 
HETATM   30  C17 UNL     1       2.211   9.731  21.987  1.00  0.00     0.002 A 
HETATM   31  C18 UNL     1       2.353   8.401  22.232  1.00  0.00     0.024 A 
HETATM   32  C19 UNL     1       3.620   7.805  22.268  1.00  0.00     0.045 A 
HETATM   33 CL1  UNL     1       3.640   6.122  22.654  1.00  0.00    -0.083 Cl
ENDBRANCH  26  27
ENDBRANCH   8  26
ENDBRANCH   1   4
TORSDOF 8
ENDMDL
MODEL 5
REMARK VINA RESULT: -7.512630454      3.104      6.750
REMARK  8 active torsions:
REMARK  status: ('A' for Active; 'I' for Inactive)
REMARK    1  A    between atoms: O1_2  and  C2_3 
REMARK    2  A    between atoms: C5_6  and  C6_7 
REMARK    3  A    between atoms: C6_7  and  C7_8 
REMARK    4  A    between atoms: C9_11  and  C10_12 
REMARK    5  A    between atoms: N3_19  and  C13_20 
REMARK    6  A    between atoms: C13_20  and  C14_21 
REMARK    7  A    between atoms: C20_28  and  O4_29 
REMARK    8  A    between atoms: C22_31  and  O5_32 
ROOT
HETATM    1  C10 UNL     1       8.752   8.577  23.458  1.00  0.00     0.127 C 
HETATM    2  C11 UNL     1       9.130   8.417  24.818  1.00  0.00     0.090 C 
HETATM    3  N1  UNL     1       9.430   8.267  25.932  1.00  0.00    -0.192 NA
ENDROOT
BRANCH   1   4
HETATM    4  C9  UNL     1       7.687   7.984  22.948  1.00  0.00     0.099 A 
HETATM    5  C8  UNL     1       7.674   7.512  21.637  1.00  0.00     0.226 A 
HETATM    6  C7  UNL     1       6.572   6.899  21.082  1.00  0.00     0.096 A 
HETATM    7  O2  UNL     1       8.756   7.690  20.991  1.00  0.00    -0.283 OA
HETATM    8  N3  UNL     1       5.445   6.734  21.805  1.00  0.00    -0.270 N 
HETATM    9  C12 UNL     1       5.481   7.198  23.087  1.00  0.00     0.331 A 
HETATM   10  N2  UNL     1       6.553   7.793  23.623  1.00  0.00    -0.304 N 
HETATM   11  O3  UNL     1       4.473   7.073  23.873  1.00  0.00    -0.246 OA
ATOM     12  H2  UNL     1       6.500   8.115  24.590  1.00  0.00     0.171 HD
BRANCH   6  13
HETATM   13  C6  UNL     1       6.693   6.461  19.847  1.00  0.00     0.048 C 
BRANCH  13  14
HETATM   14  C5  UNL     1       7.255   5.203  19.381  1.00  0.00     0.003 A 
HETATM   15  C4  UNL     1       7.547   4.160  20.246  1.00  0.00     0.017 A 
HETATM   16  C3  UNL     1       8.036   2.985  19.753  1.00  0.00     0.040 A 
HETATM   17  C2  UNL     1       8.254   2.788  18.418  1.00  0.00     0.104 A 
HETATM   18  C22 UNL     1       7.971   3.817  17.513  1.00  0.00     0.136 A 
HETATM   19  C20 UNL     1       7.479   5.004  18.007  1.00  0.00     0.114 A 
BRANCH  17  20
HETATM   20  O1  UNL     1       8.742   1.609  17.918  1.00  0.00    -0.353 OA
HETATM   21  C1  UNL     1      10.103   1.228  17.998  1.00  0.00     0.210 C 
ENDBRANCH  17  20
BRANCH  18  22
HETATM   22  O5  UNL     1       8.181   3.645  16.174  1.00  0.00    -0.351 OA
HETATM   23  C23 UNL     1       7.336   2.973  15.286  1.00  0.00     0.210 C 
ENDBRANCH  18  22
BRANCH  19  24
HETATM   24  O4  UNL     1       7.190   6.036  17.168  1.00  0.00    -0.352 OA
HETATM   25  C21 UNL     1       6.072   6.240  16.374  1.00  0.00     0.210 C 
ENDBRANCH  19  24
ENDBRANCH  13  14
ENDBRANCH   6  13
BRANCH   8  26
HETATM   26  C13 UNL     1       4.306   6.068  21.321  1.00  0.00     0.115 C 
BRANCH  26  27
HETATM   27  C14 UNL     1       4.131   4.638  21.268  1.00  0.00     0.002 A 
HETATM   28  C15 UNL     1       4.170   3.894  22.479  1.00  0.00     0.014 A 
HETATM   29  C16 UNL     1       3.924   2.559  22.568  1.00  0.00     0.001 A 
HETATM   30  C17 UNL     1       3.611   1.826  21.451  1.00  0.00     0.002 A 
HETATM   31  C18 UNL     1       3.558   2.484  20.264  1.00  0.00     0.024 A 
HETATM   32  C19 UNL     1       3.816   3.859  20.188  1.00  0.00     0.045 A 
HETATM   33 CL1  UNL     1       3.773   4.538  18.601  1.00  0.00    -0.083 Cl
ENDBRANCH  26  27
ENDBRANCH   8  26
ENDBRANCH   1   4
TORSDOF 8
ENDMDL
