MODEL 1
REMARK VINA RESULT: -10.146446164      0.000      0.000
REMARK  7 active torsions:
REMARK  status: ('A' for Active; 'I' for Inactive)
REMARK    1  A    between atoms: C10_17  and  N4_18 
REMARK    2  A    between atoms: N4_18  and  C12_20 
REMARK    3  A    between atoms: C12_20  and  C13_21 
REMARK    4  A    between atoms: C13_21  and  C14_22 
REMARK    5  A    between atoms: C14_22  and  O2_23 
REMARK    6  A    between atoms: O2_23  and  N5_24 
REMARK    7  A    between atoms: N5_24  and  C15_25 
ROOT
HETATM    1  C1  UNL     1      11.034   9.507  24.144  1.00  0.00     0.050 C 
HETATM    2  C2  UNL     1       9.589   9.237  24.348  1.00  0.00    -0.039 A 
HETATM    3  C3  UNL     1       8.671   9.772  23.433  1.00  0.00     0.027 A 
HETATM    4  C4  UNL     1       7.322   9.519  23.575  1.00  0.00     0.052 A 
HETATM    5  C5  UNL     1       6.946   8.734  24.658  1.00  0.00     0.122 A 
HETATM    6  N1  UNL     1       7.879   8.240  25.519  1.00  0.00    -0.345 N 
ATOM      7  H1  UNL     1       7.556   7.668  26.299  1.00  0.00     0.167 HD
HETATM    8  C6  UNL     1       9.189   8.460  25.405  1.00  0.00     0.013 A 
HETATM    9  C7  UNL     1      10.131   7.855  26.395  1.00  0.00     0.068 C 
HETATM   10  N2  UNL     1       5.772   8.431  25.086  1.00  0.00    -0.311 N 
ATOM     11  H2  UNL     1       5.749   7.830  25.910  1.00  0.00     0.170 HD
HETATM   12  C8  UNL     1       4.520   8.812  24.581  1.00  0.00     0.240 C 
HETATM   13  O1  UNL     1       3.536   8.244  25.097  1.00  0.00    -0.271 OA
HETATM   14  C9  UNL     1       4.145   9.792  23.518  1.00  0.00     0.224 C 
HETATM   15  N3  UNL     1       5.152   9.849  22.512  1.00  0.00    -0.367 N 
ATOM     16  H3  UNL     1       4.792   9.781  21.560  1.00  0.00     0.161 HD
HETATM   17  C10 UNL     1       6.587   9.983  22.591  1.00  0.00     0.113 C 
ENDROOT
BRANCH  17  18
HETATM   18  N4  UNL     1       7.177  10.632  21.489  1.00  0.00    -0.371 N 
HETATM   19  C11 UNL     1       7.790  11.929  21.546  1.00  0.00     0.151 C 
BRANCH  18  20
HETATM   20  C12 UNL     1       7.238   9.895  20.264  1.00  0.00     0.126 C 
BRANCH  20  21
HETATM   21  C13 UNL     1       8.565   9.587  19.664  1.00  0.00     0.050 C 
BRANCH  21  22
HETATM   22  C14 UNL     1       8.980   8.206  20.234  1.00  0.00     0.219 C 
BRANCH  22  23
HETATM   23  O2  UNL     1       7.816   7.402  20.377  1.00  0.00    -0.209 OA
BRANCH  23  24
HETATM   24  N5  UNL     1       7.523   6.236  20.224  1.00  0.00    -0.285 NA
BRANCH  24  25
HETATM   25  C15 UNL     1       7.246   5.048  20.052  1.00  0.00     0.128 C 
HETATM   26  C16 UNL     1       6.066   4.242  20.466  1.00  0.00     0.081 C 
HETATM   27  C17 UNL     1       6.708   2.884  20.725  1.00  0.00     0.047 C 
HETATM   28  C18 UNL     1       7.777   2.789  19.711  1.00  0.00    -0.043 A 
HETATM   29  C19 UNL     1       8.447   1.700  19.148  1.00  0.00     0.031 A 
HETATM   30  C23 UNL     1       8.084   4.054  19.334  1.00  0.00     0.009 A 
HETATM   31  C20 UNL     1       9.423   1.917  18.208  1.00  0.00     0.034 A 
HETATM   32 CL1  UNL     1      10.327   0.606  17.446  1.00  0.00    -0.084 Cl
HETATM   33  C21 UNL     1       9.724   3.217  17.834  1.00  0.00     0.025 A 
HETATM   34  C22 UNL     1       9.069   4.299  18.383  1.00  0.00     0.017 A 
ENDBRANCH  24  25
ENDBRANCH  23  24
ENDBRANCH  22  23
ENDBRANCH  21  22
ENDBRANCH  20  21
ENDBRANCH  18  20
ENDBRANCH  17  18
TORSDOF 7
ENDMDL
MODEL 2
REMARK VINA RESULT: -9.952830266      1.488      3.196
REMARK  7 active torsions:
REMARK  status: ('A' for Active; 'I' for Inactive)
REMARK    1  A    between atoms: C10_17  and  N4_18 
REMARK    2  A    between atoms: N4_18  and  C12_20 
REMARK    3  A    between atoms: C12_20  and  C13_21 
REMARK    4  A    between atoms: C13_21  and  C14_22 
REMARK    5  A    between atoms: C14_22  and  O2_23 
REMARK    6  A    between atoms: O2_23  and  N5_24 
REMARK    7  A    between atoms: N5_24  and  C15_25 
ROOT
HETATM    1  C1  UNL     1       3.387   9.669  22.333  1.00  0.00     0.050 C 
HETATM    2  C2  UNL     1       4.616   9.413  23.126  1.00  0.00    -0.039 A 
HETATM    3  C3  UNL     1       5.858   9.733  22.558  1.00  0.00     0.027 A 
HETATM    4  C4  UNL     1       7.020   9.535  23.276  1.00  0.00     0.052 A 
HETATM    5  C5  UNL     1       6.881   9.003  24.552  1.00  0.00     0.122 A 
HETATM    6  N1  UNL     1       5.650   8.707  25.055  1.00  0.00    -0.345 N 
ATOM      7  H1  UNL     1       5.597   8.320  25.997  1.00  0.00     0.167 HD
HETATM    8  C6  UNL     1       4.509   8.894  24.390  1.00  0.00     0.013 A 
HETATM    9  C7  UNL     1       3.209   8.553  25.042  1.00  0.00     0.068 C 
HETATM   10  N2  UNL     1       7.782   8.623  25.387  1.00  0.00    -0.311 N 
ATOM     11  H2  UNL     1       7.432   8.263  26.274  1.00  0.00     0.170 HD
HETATM   12  C8  UNL     1       9.178   8.633  25.249  1.00  0.00     0.240 C 
HETATM   13  O1  UNL     1       9.823   8.355  26.280  1.00  0.00    -0.271 OA
HETATM   14  C9  UNL     1      10.048   8.923  24.069  1.00  0.00     0.224 C 
HETATM   15  N3  UNL     1       9.432   9.886  23.218  1.00  0.00    -0.367 N 
ATOM     16  H3  UNL     1      10.048  10.652  22.944  1.00  0.00     0.161 HD
HETATM   17  C10 UNL     1       8.099   9.980  22.674  1.00  0.00     0.113 C 
ENDROOT
BRANCH  17  18
HETATM   18  N4  UNL     1       8.018  10.635  21.430  1.00  0.00    -0.371 N 
HETATM   19  C11 UNL     1       7.574  11.988  21.255  1.00  0.00     0.151 C 
BRANCH  18  20
HETATM   20  C12 UNL     1       8.499   9.915  20.291  1.00  0.00     0.126 C 
BRANCH  20  21
HETATM   21  C13 UNL     1       7.750   9.996  19.007  1.00  0.00     0.050 C 
BRANCH  21  22
HETATM   22  C14 UNL     1       6.816   8.758  18.981  1.00  0.00     0.219 C 
BRANCH  22  23
HETATM   23  O2  UNL     1       7.616   7.584  18.937  1.00  0.00    -0.209 OA
BRANCH  23  24
HETATM   24  N5  UNL     1       7.442   6.391  19.065  1.00  0.00    -0.285 NA
BRANCH  24  25
HETATM   25  C15 UNL     1       7.239   5.182  19.195  1.00  0.00     0.128 C 
HETATM   26  C16 UNL     1       6.104   4.434  19.799  1.00  0.00     0.081 C 
HETATM   27  C17 UNL     1       6.822   3.225  20.387  1.00  0.00     0.047 C 
HETATM   28  C18 UNL     1       7.909   2.947  19.426  1.00  0.00    -0.043 A 
HETATM   29  C19 UNL     1       8.650   1.795  19.151  1.00  0.00     0.031 A 
HETATM   30  C23 UNL     1       8.144   4.095  18.745  1.00  0.00     0.009 A 
HETATM   31  C20 UNL     1       9.624   1.831  18.185  1.00  0.00     0.034 A 
HETATM   32 CL1  UNL     1      10.615   0.430  17.772  1.00  0.00    -0.084 Cl
HETATM   33  C21 UNL     1       9.851   3.013  17.498  1.00  0.00     0.025 A 
HETATM   34  C22 UNL     1       9.125   4.155  17.762  1.00  0.00     0.017 A 
ENDBRANCH  24  25
ENDBRANCH  23  24
ENDBRANCH  22  23
ENDBRANCH  21  22
ENDBRANCH  20  21
ENDBRANCH  18  20
ENDBRANCH  17  18
TORSDOF 7
ENDMDL
MODEL 3
REMARK VINA RESULT: -9.489727560      1.978      4.383
REMARK  7 active torsions:
REMARK  status: ('A' for Active; 'I' for Inactive)
REMARK    1  A    between atoms: C10_17  and  N4_18 
REMARK    2  A    between atoms: N4_18  and  C12_20 
REMARK    3  A    between atoms: C12_20  and  C13_21 
REMARK    4  A    between atoms: C13_21  and  C14_22 
REMARK    5  A    between atoms: C14_22  and  O2_23 
REMARK    6  A    between atoms: O2_23  and  N5_24 
REMARK    7  A    between atoms: N5_24  and  C15_25 
ROOT
HETATM    1  C1  UNL     1       4.892  11.159  20.480  1.00  0.00     0.050 C 
HETATM    2  C2  UNL     1       6.073  10.742  21.279  1.00  0.00    -0.039 A 
HETATM    3  C3  UNL     1       5.874   9.884  22.369  1.00  0.00     0.027 A 
HETATM    4  C4  UNL     1       6.951   9.453  23.117  1.00  0.00     0.052 A 
HETATM    5  C5  UNL     1       8.202   9.922  22.736  1.00  0.00     0.122 A 
HETATM    6  N1  UNL     1       8.338  10.757  21.668  1.00  0.00    -0.345 N 
ATOM      7  H1  UNL     1       9.277  11.074  21.425  1.00  0.00     0.167 HD
HETATM    8  C6  UNL     1       7.320  11.184  20.921  1.00  0.00     0.013 A 
HETATM    9  C7  UNL     1       7.582  12.085  19.759  1.00  0.00     0.068 C 
HETATM   10  N2  UNL     1       9.345   9.771  23.305  1.00  0.00    -0.311 N 
ATOM     11  H2  UNL     1      10.132  10.212  22.829  1.00  0.00     0.170 HD
HETATM   12  C8  UNL     1       9.663   9.085  24.487  1.00  0.00     0.240 C 
HETATM   13  O1  UNL     1      10.881   8.962  24.728  1.00  0.00    -0.271 OA
HETATM   14  C9  UNL     1       8.790   8.465  25.529  1.00  0.00     0.224 C 
HETATM   15  N3  UNL     1       7.589   7.969  24.945  1.00  0.00    -0.367 N 
ATOM     16  H3  UNL     1       7.356   7.015  25.220  1.00  0.00     0.161 HD
HETATM   17  C10 UNL     1       6.640   8.567  24.036  1.00  0.00     0.113 C 
ENDROOT
BRANCH  17  18
HETATM   18  N4  UNL     1       5.320   8.097  24.172  1.00  0.00    -0.371 N 
HETATM   19  C11 UNL     1       4.291   8.775  24.908  1.00  0.00     0.151 C 
BRANCH  18  20
HETATM   20  C12 UNL     1       4.981   6.910  23.448  1.00  0.00     0.126 C 
BRANCH  20  21
HETATM   21  C13 UNL     1       3.733   6.882  22.636  1.00  0.00     0.050 C 
BRANCH  21  22
HETATM   22  C14 UNL     1       3.420   5.384  22.389  1.00  0.00     0.219 C 
BRANCH  22  23
HETATM   23  O2  UNL     1       4.117   4.958  21.225  1.00  0.00    -0.209 OA
BRANCH  23  24
HETATM   24  N5  UNL     1       5.231   5.086  20.767  1.00  0.00    -0.285 NA
BRANCH  24  25
HETATM   25  C15 UNL     1       6.366   5.240  20.310  1.00  0.00     0.128 C 
HETATM   26  C16 UNL     1       7.209   6.455  20.160  1.00  0.00     0.081 C 
HETATM   27  C17 UNL     1       7.961   6.141  18.872  1.00  0.00     0.047 C 
HETATM   28  C18 UNL     1       8.172   4.680  18.923  1.00  0.00    -0.043 A 
HETATM   29  C19 UNL     1       9.098   3.839  18.300  1.00  0.00     0.031 A 
HETATM   30  C23 UNL     1       7.234   4.169  19.758  1.00  0.00     0.009 A 
HETATM   31  C20 UNL     1       9.054   2.488  18.536  1.00  0.00     0.034 A 
HETATM   32 CL1  UNL     1      10.176   1.349  17.791  1.00  0.00    -0.084 Cl
HETATM   33  C21 UNL     1       8.089   1.984  19.393  1.00  0.00     0.025 A 
HETATM   34  C22 UNL     1       7.170   2.804  20.013  1.00  0.00     0.017 A 
ENDBRANCH  24  25
ENDBRANCH  23  24
ENDBRANCH  22  23
ENDBRANCH  21  22
ENDBRANCH  20  21
ENDBRANCH  18  20
ENDBRANCH  17  18
TORSDOF 7
ENDMDL
MODEL 4
REMARK VINA RESULT: -9.480135872      1.757      3.557
REMARK  7 active torsions:
REMARK  status: ('A' for Active; 'I' for Inactive)
REMARK    1  A    between atoms: C10_17  and  N4_18 
REMARK    2  A    between atoms: N4_18  and  C12_20 
REMARK    3  A    between atoms: C12_20  and  C13_21 
REMARK    4  A    between atoms: C13_21  and  C14_22 
REMARK    5  A    between atoms: C14_22  and  O2_23 
REMARK    6  A    between atoms: O2_23  and  N5_24 
REMARK    7  A    between atoms: N5_24  and  C15_25 
ROOT
HETATM    1  C1  UNL     1       9.268   7.957  26.321  1.00  0.00     0.050 C 
HETATM    2  C2  UNL     1       9.128   8.493  24.944  1.00  0.00    -0.039 A 
HETATM    3  C3  UNL     1       7.847   8.559  24.378  1.00  0.00     0.027 A 
HETATM    4  C4  UNL     1       7.675   9.078  23.111  1.00  0.00     0.052 A 
HETATM    5  C5  UNL     1       8.821   9.504  22.450  1.00  0.00     0.122 A 
HETATM    6  N1  UNL     1      10.043   9.415  23.046  1.00  0.00    -0.345 N 
ATOM      7  H1  UNL     1      10.856   9.742  22.524  1.00  0.00     0.167 HD
HETATM    8  C6  UNL     1      10.241   8.927  24.271  1.00  0.00     0.013 A 
HETATM    9  C7  UNL     1      11.623   8.891  24.839  1.00  0.00     0.068 C 
HETATM   10  N2  UNL     1       8.967   9.923  21.244  1.00  0.00    -0.311 N 
ATOM     11  H2  UNL     1       9.918  10.185  20.984  1.00  0.00     0.170 HD
HETATM   12  C8  UNL     1       8.004  10.071  20.235  1.00  0.00     0.240 C 
HETATM   13  O1  UNL     1       8.392  10.651  19.201  1.00  0.00    -0.271 OA
HETATM   14  C9  UNL     1       6.571   9.650  20.173  1.00  0.00     0.224 C 
HETATM   15  N3  UNL     1       5.981   9.696  21.469  1.00  0.00    -0.367 N 
ATOM     16  H3  UNL     1       5.083  10.179  21.499  1.00  0.00     0.161 HD
HETATM   17  C10 UNL     1       6.418   9.186  22.746  1.00  0.00     0.113 C 
ENDROOT
BRANCH  17  18
HETATM   18  N4  UNL     1       5.375   8.836  23.626  1.00  0.00    -0.371 N 
HETATM   19  C11 UNL     1       4.698   9.761  24.489  1.00  0.00     0.151 C 
BRANCH  18  20
HETATM   20  C12 UNL     1       4.916   7.481  23.573  1.00  0.00     0.126 C 
BRANCH  20  21
HETATM   21  C13 UNL     1       3.990   7.067  22.483  1.00  0.00     0.050 C 
BRANCH  21  22
HETATM   22  C14 UNL     1       3.789   5.539  22.654  1.00  0.00     0.219 C 
BRANCH  22  23
HETATM   23  O2  UNL     1       4.495   4.867  21.618  1.00  0.00    -0.209 OA
BRANCH  23  24
HETATM   24  N5  UNL     1       5.564   4.981  21.060  1.00  0.00    -0.285 NA
BRANCH  24  25
HETATM   25  C15 UNL     1       6.652   5.123  20.499  1.00  0.00     0.128 C 
HETATM   26  C16 UNL     1       7.502   6.325  20.287  1.00  0.00     0.081 C 
HETATM   27  C17 UNL     1       8.120   6.020  18.928  1.00  0.00     0.047 C 
HETATM   28  C18 UNL     1       8.306   4.555  18.936  1.00  0.00    -0.043 A 
HETATM   29  C19 UNL     1       9.151   3.709  18.213  1.00  0.00     0.031 A 
HETATM   30  C23 UNL     1       7.442   4.047  19.848  1.00  0.00     0.009 A 
HETATM   31  C20 UNL     1       9.103   2.355  18.430  1.00  0.00     0.034 A 
HETATM   32 CL1  UNL     1      10.126   1.209  17.562  1.00  0.00    -0.084 Cl
HETATM   33  C21 UNL     1       8.214   1.853  19.368  1.00  0.00     0.025 A 
HETATM   34  C22 UNL     1       7.375   2.679  20.086  1.00  0.00     0.017 A 
ENDBRANCH  24  25
ENDBRANCH  23  24
ENDBRANCH  22  23
ENDBRANCH  21  22
ENDBRANCH  20  21
ENDBRANCH  18  20
ENDBRANCH  17  18
TORSDOF 7
ENDMDL
MODEL 5
REMARK VINA RESULT: -9.441050869      1.799      3.535
REMARK  7 active torsions:
REMARK  status: ('A' for Active; 'I' for Inactive)
REMARK    1  A    between atoms: C10_17  and  N4_18 
REMARK    2  A    between atoms: N4_18  and  C12_20 
REMARK    3  A    between atoms: C12_20  and  C13_21 
REMARK    4  A    between atoms: C13_21  and  C14_22 
REMARK    5  A    between atoms: C14_22  and  O2_23 
REMARK    6  A    between atoms: O2_23  and  N5_24 
REMARK    7  A    between atoms: N5_24  and  C15_25 
ROOT
HETATM    1  C1  UNL     1       9.428   8.159  26.465  1.00  0.00     0.050 C 
HETATM    2  C2  UNL     1       9.363   8.462  25.013  1.00  0.00    -0.039 A 
HETATM    3  C3  UNL     1       8.117   8.408  24.372  1.00  0.00     0.027 A 
HETATM    4  C4  UNL     1       8.014   8.710  23.030  1.00  0.00     0.052 A 
HETATM    5  C5  UNL     1       9.192   9.048  22.375  1.00  0.00     0.122 A 
HETATM    6  N1  UNL     1      10.377   9.083  23.045  1.00  0.00    -0.345 N 
ATOM      7  H1  UNL     1      11.215   9.337  22.523  1.00  0.00     0.167 HD
HETATM    8  C6  UNL     1      10.508   8.804  24.342  1.00  0.00     0.013 A 
HETATM    9  C7  UNL     1      11.854   8.891  24.985  1.00  0.00     0.068 C 
HETATM   10  N2  UNL     1       9.404   9.268  21.126  1.00  0.00    -0.311 N 
ATOM     11  H2  UNL     1      10.365   9.505  20.881  1.00  0.00     0.170 HD
HETATM   12  C8  UNL     1       8.500   9.229  20.054  1.00  0.00     0.240 C 
HETATM   13  O1  UNL     1       8.942   9.642  18.962  1.00  0.00    -0.271 OA
HETATM   14  C9  UNL     1       7.079   8.774  19.981  1.00  0.00     0.224 C 
HETATM   15  N3  UNL     1       6.412   9.017  21.216  1.00  0.00    -0.367 N 
ATOM     16  H3  UNL     1       5.508   9.479  21.116  1.00  0.00     0.161 HD
HETATM   17  C10 UNL     1       6.779   8.731  22.582  1.00  0.00     0.113 C 
ENDROOT
BRANCH  17  18
HETATM   18  N4  UNL     1       5.691   8.506  23.447  1.00  0.00    -0.371 N 
HETATM   19  C11 UNL     1       5.052   9.526  24.229  1.00  0.00     0.151 C 
BRANCH  18  20
HETATM   20  C12 UNL     1       5.145   7.183  23.464  1.00  0.00     0.126 C 
BRANCH  20  21
HETATM   21  C13 UNL     1       3.677   6.997  23.293  1.00  0.00     0.050 C 
BRANCH  21  22
HETATM   22  C14 UNL     1       3.396   7.196  21.781  1.00  0.00     0.219 C 
BRANCH  22  23
HETATM   23  O2  UNL     1       4.475   6.642  21.039  1.00  0.00    -0.209 OA
BRANCH  23  24
HETATM   24  N5  UNL     1       4.947   5.541  20.855  1.00  0.00    -0.285 NA
BRANCH  24  25
HETATM   25  C15 UNL     1       5.436   4.429  20.644  1.00  0.00     0.128 C 
HETATM   26  C16 UNL     1       5.019   3.071  21.084  1.00  0.00     0.081 C 
HETATM   27  C17 UNL     1       6.369   2.381  21.246  1.00  0.00     0.047 C 
HETATM   28  C18 UNL     1       7.202   2.961  20.173  1.00  0.00    -0.043 A 
HETATM   29  C19 UNL     1       8.354   2.506  19.526  1.00  0.00     0.031 A 
HETATM   30  C23 UNL     1       6.652   4.153  19.838  1.00  0.00     0.009 A 
HETATM   31  C20 UNL     1       8.929   3.275  18.546  1.00  0.00     0.034 A 
HETATM   32 CL1  UNL     1      10.387   2.787  17.678  1.00  0.00    -0.084 Cl
HETATM   33  C21 UNL     1       8.353   4.490  18.215  1.00  0.00     0.025 A 
HETATM   34  C22 UNL     1       7.216   4.949  18.848  1.00  0.00     0.017 A 
ENDBRANCH  24  25
ENDBRANCH  23  24
ENDBRANCH  22  23
ENDBRANCH  21  22
ENDBRANCH  20  21
ENDBRANCH  18  20
ENDBRANCH  17  18
TORSDOF 7
ENDMDL
