MODEL 1
REMARK VINA RESULT: -9.172749288      0.000      0.000
REMARK  6 active torsions:
REMARK  status: ('A' for Active; 'I' for Inactive)
REMARK    1  A    between atoms: C2_2  and  N1_3 
REMARK    2  A    between atoms: C4_6  and  C5_7 
REMARK    3  A    between atoms: C4_6  and  C9_13 
REMARK    4  A    between atoms: N3_22  and  C16_23 
REMARK    5  A    between atoms: C16_23  and  C17_24 
REMARK    6  A    between atoms: C17_24  and  N4_25 
ROOT
HETATM    1  N1  UNL     1       6.082   6.440  18.755  1.00  0.00    -0.255 N 
HETATM    2  C3  UNL     1       6.616   5.300  18.024  1.00  0.00     0.267 C 
HETATM    3  O1  UNL     1       6.894   5.331  16.807  1.00  0.00    -0.269 OA
HETATM    4  C4  UNL     1       6.714   4.228  19.042  1.00  0.00     0.193 C 
HETATM    5  C15 UNL     1       6.871   4.968  20.283  1.00  0.00     0.267 C 
HETATM    6  O2  UNL     1       7.439   4.612  21.330  1.00  0.00    -0.269 OA
HETATM    7  N3  UNL     1       6.238   6.249  20.110  1.00  0.00    -0.253 N 
ENDROOT
BRANCH   4   8
HETATM    8  C5  UNL     1       7.904   3.373  18.780  1.00  0.00     0.033 C 
HETATM    9  C6  UNL     1       7.956   2.075  18.993  1.00  0.00     0.002 C 
HETATM   10  C7  UNL     1       9.281   1.515  18.632  1.00  0.00     0.048 C 
HETATM   11  C8  UNL     1       9.922   2.626  17.832  1.00  0.00     0.123 C 
HETATM   12  N2  UNL     1       9.173   3.778  18.270  1.00  0.00    -0.391 N 
ATOM     13  H2  UNL     1       9.503   4.742  18.222  1.00  0.00     0.159 HD
ENDBRANCH   4   8
BRANCH   4  14
HETATM   14  C9  UNL     1       5.499   3.420  18.955  1.00  0.00    -0.022 A 
HETATM   15  C10 UNL     1       4.939   2.977  17.775  1.00  0.00     0.009 A 
HETATM   16  C11 UNL     1       3.795   2.215  17.714  1.00  0.00     0.004 A 
HETATM   17  C12 UNL     1       3.164   1.869  18.883  1.00  0.00     0.042 A 
HETATM   18  C13 UNL     1       3.688   2.289  20.066  1.00  0.00     0.117 A 
HETATM   19  F1  UNL     1       3.043   1.931  21.217  1.00  0.00    -0.206 F 
HETATM   20  C14 UNL     1       4.853   3.064  20.119  1.00  0.00     0.051 A 
ENDBRANCH   4  14
BRANCH   1  21
HETATM   21  C2  UNL     1       5.435   7.569  18.060  1.00  0.00     0.148 C 
HETATM   22  C1  UNL     1       3.975   7.193  17.771  1.00  0.00     0.028 C 
ENDBRANCH   1  21
BRANCH   7  23
HETATM   23  C16 UNL     1       5.807   7.122  21.185  1.00  0.00     0.173 C 
BRANCH  23  24
HETATM   24  C17 UNL     1       6.540   8.392  21.337  1.00  0.00     0.157 C 
BRANCH  24  25
HETATM   25  N4  UNL     1       7.533   8.465  22.356  1.00  0.00    -0.278 N 
HETATM   26  C18 UNL     1       8.872   8.989  22.258  1.00  0.00     0.261 A 
HETATM   27  O3  UNL     1       9.353   9.472  21.198  1.00  0.00    -0.267 OA
HETATM   28  C19 UNL     1       9.508   8.851  23.561  1.00  0.00     0.048 A 
HETATM   29  C20 UNL     1      10.760   9.180  24.032  1.00  0.00     0.018 A 
HETATM   30  C24 UNL     1       8.634   8.272  24.448  1.00  0.00     0.048 A 
HETATM   31  C21 UNL     1      11.098   8.930  25.339  1.00  0.00     0.001 A 
HETATM   32  C22 UNL     1      10.207   8.353  26.199  1.00  0.00     0.001 A 
HETATM   33  C23 UNL     1       8.957   8.014  25.763  1.00  0.00     0.018 A 
HETATM   34  C25 UNL     1       7.415   8.029  23.723  1.00  0.00     0.261 A 
HETATM   35  O4  UNL     1       6.366   7.503  24.202  1.00  0.00    -0.267 OA
ENDBRANCH  24  25
ENDBRANCH  23  24
ENDBRANCH   7  23
TORSDOF 6
ENDMDL
MODEL 2
REMARK VINA RESULT: -9.158683182      0.105      1.504
REMARK  6 active torsions:
REMARK  status: ('A' for Active; 'I' for Inactive)
REMARK    1  A    between atoms: C2_2  and  N1_3 
REMARK    2  A    between atoms: C4_6  and  C5_7 
REMARK    3  A    between atoms: C4_6  and  C9_13 
REMARK    4  A    between atoms: N3_22  and  C16_23 
REMARK    5  A    between atoms: C16_23  and  C17_24 
REMARK    6  A    between atoms: C17_24  and  N4_25 
ROOT
HETATM    1  N1  UNL     1       6.054   6.437  18.694  1.00  0.00    -0.255 N 
HETATM    2  C3  UNL     1       6.591   5.288  17.978  1.00  0.00     0.267 C 
HETATM    3  O1  UNL     1       6.868   5.304  16.761  1.00  0.00    -0.269 OA
HETATM    4  C4  UNL     1       6.694   4.231  19.011  1.00  0.00     0.193 C 
HETATM    5  C15 UNL     1       6.850   4.989  20.241  1.00  0.00     0.267 C 
HETATM    6  O2  UNL     1       7.420   4.649  21.293  1.00  0.00    -0.269 OA
HETATM    7  N3  UNL     1       6.212   6.265  20.051  1.00  0.00    -0.253 N 
ENDROOT
BRANCH   4   8
HETATM    8  C5  UNL     1       7.887   3.377  18.759  1.00  0.00     0.033 C 
HETATM    9  C6  UNL     1       7.935   2.077  18.963  1.00  0.00     0.002 C 
HETATM   10  C7  UNL     1       9.264   1.518  18.616  1.00  0.00     0.048 C 
HETATM   11  C8  UNL     1       9.918   2.636  17.834  1.00  0.00     0.123 C 
HETATM   12  N2  UNL     1       9.164   3.785  18.271  1.00  0.00    -0.391 N 
ATOM     13  H2  UNL     1       9.495   4.748  18.236  1.00  0.00     0.159 HD
ENDBRANCH   4   8
BRANCH   4  14
HETATM   14  C9  UNL     1       5.482   3.418  18.936  1.00  0.00    -0.022 A 
HETATM   15  C10 UNL     1       4.904   2.984  17.762  1.00  0.00     0.009 A 
HETATM   16  C11 UNL     1       3.763   2.216  17.713  1.00  0.00     0.004 A 
HETATM   17  C12 UNL     1       3.154   1.855  18.889  1.00  0.00     0.042 A 
HETATM   18  C13 UNL     1       3.696   2.266  20.067  1.00  0.00     0.117 A 
HETATM   19  F1  UNL     1       3.073   1.893  21.225  1.00  0.00    -0.206 F 
HETATM   20  C14 UNL     1       4.858   3.047  20.108  1.00  0.00     0.051 A 
ENDBRANCH   4  14
BRANCH   1  21
HETATM   21  C2  UNL     1       5.402   7.554  17.985  1.00  0.00     0.148 C 
HETATM   22  C1  UNL     1       3.919   7.212  17.793  1.00  0.00     0.028 C 
ENDBRANCH   1  21
BRANCH   7  23
HETATM   23  C16 UNL     1       5.779   7.151  21.115  1.00  0.00     0.173 C 
BRANCH  23  24
HETATM   24  C17 UNL     1       6.571   8.378  21.314  1.00  0.00     0.157 C 
BRANCH  24  25
HETATM   25  N4  UNL     1       7.482   8.408  22.409  1.00  0.00    -0.278 N 
HETATM   26  C18 UNL     1       7.273   7.930  23.754  1.00  0.00     0.261 A 
HETATM   27  O3  UNL     1       6.199   7.399  24.143  1.00  0.00    -0.267 OA
HETATM   28  C19 UNL     1       8.490   8.176  24.514  1.00  0.00     0.048 A 
HETATM   29  C20 UNL     1       8.844   7.927  25.823  1.00  0.00     0.018 A 
HETATM   30  C24 UNL     1       9.429   8.778  23.713  1.00  0.00     0.048 A 
HETATM   31  C21 UNL     1      10.091   8.274  26.282  1.00  0.00     0.001 A 
HETATM   32  C22 UNL     1      11.004   8.871  25.461  1.00  0.00     0.001 A 
HETATM   33  C23 UNL     1      10.684   9.133  24.158  1.00  0.00     0.018 A 
HETATM   34  C25 UNL     1       8.825   8.928  22.415  1.00  0.00     0.261 A 
HETATM   35  O4  UNL     1       9.380   9.443  21.400  1.00  0.00    -0.267 OA
ENDBRANCH  24  25
ENDBRANCH  23  24
ENDBRANCH   7  23
TORSDOF 6
ENDMDL
MODEL 3
REMARK VINA RESULT: -9.092524026      0.840      1.899
REMARK  6 active torsions:
REMARK  status: ('A' for Active; 'I' for Inactive)
REMARK    1  A    between atoms: C2_2  and  N1_3 
REMARK    2  A    between atoms: C4_6  and  C5_7 
REMARK    3  A    between atoms: C4_6  and  C9_13 
REMARK    4  A    between atoms: N3_22  and  C16_23 
REMARK    5  A    between atoms: C16_23  and  C17_24 
REMARK    6  A    between atoms: C17_24  and  N4_25 
ROOT
HETATM    1  N1  UNL     1       6.055   6.401  18.749  1.00  0.00    -0.255 N 
HETATM    2  C3  UNL     1       6.593   5.260  18.021  1.00  0.00     0.267 C 
HETATM    3  O1  UNL     1       6.871   5.288  16.805  1.00  0.00    -0.269 OA
HETATM    4  C4  UNL     1       6.696   4.193  19.043  1.00  0.00     0.193 C 
HETATM    5  C15 UNL     1       6.850   4.938  20.281  1.00  0.00     0.267 C 
HETATM    6  O2  UNL     1       7.420   4.587  21.330  1.00  0.00    -0.269 OA
HETATM    7  N3  UNL     1       6.212   6.215  20.104  1.00  0.00    -0.253 N 
ENDROOT
BRANCH   4   8
HETATM    8  C5  UNL     1       7.890   3.342  18.784  1.00  0.00     0.033 C 
HETATM    9  C6  UNL     1       7.956   2.049  19.024  1.00  0.00     0.002 C 
HETATM   10  C7  UNL     1       9.280   1.492  18.657  1.00  0.00     0.048 C 
HETATM   11  C8  UNL     1       9.902   2.592  17.826  1.00  0.00     0.123 C 
HETATM   12  N2  UNL     1       9.149   3.747  18.250  1.00  0.00    -0.391 N 
ATOM     13  H2  UNL     1       9.471   4.712  18.178  1.00  0.00     0.159 HD
ENDBRANCH   4   8
BRANCH   4  14
HETATM   14  C9  UNL     1       5.485   3.379  18.959  1.00  0.00    -0.022 A 
HETATM   15  C10 UNL     1       4.698   3.035  20.038  1.00  0.00     0.009 A 
HETATM   16  C11 UNL     1       3.559   2.269  19.937  1.00  0.00     0.004 A 
HETATM   17  C12 UNL     1       3.173   1.814  18.701  1.00  0.00     0.042 A 
HETATM   18  C13 UNL     1       3.924   2.133  17.614  1.00  0.00     0.117 A 
HETATM   19  F1  UNL     1       3.519   1.670  16.394  1.00  0.00    -0.206 F 
HETATM   20  C14 UNL     1       5.082   2.914  17.726  1.00  0.00     0.051 A 
ENDBRANCH   4  14
BRANCH   1  21
HETATM   21  C2  UNL     1       5.403   7.525  18.050  1.00  0.00     0.148 C 
HETATM   22  C1  UNL     1       3.914   7.195  17.877  1.00  0.00     0.028 C 
ENDBRANCH   1  21
BRANCH   7  23
HETATM   23  C16 UNL     1       5.777   7.090  21.176  1.00  0.00     0.173 C 
BRANCH  23  24
HETATM   24  C17 UNL     1       6.541   8.337  21.360  1.00  0.00     0.157 C 
BRANCH  24  25
HETATM   25  N4  UNL     1       7.471   8.391  22.438  1.00  0.00    -0.278 N 
HETATM   26  C18 UNL     1       7.300   7.912  23.787  1.00  0.00     0.261 A 
HETATM   27  O3  UNL     1       6.246   7.356  24.197  1.00  0.00    -0.267 OA
HETATM   28  C19 UNL     1       8.525   8.188  24.524  1.00  0.00     0.048 A 
HETATM   29  C20 UNL     1       8.909   7.950  25.826  1.00  0.00     0.018 A 
HETATM   30  C24 UNL     1       9.433   8.810  23.704  1.00  0.00     0.048 A 
HETATM   31  C21 UNL     1      10.155   8.328  26.261  1.00  0.00     0.001 A 
HETATM   32  C22 UNL     1      11.038   8.945  25.421  1.00  0.00     0.001 A 
HETATM   33  C23 UNL     1      10.687   9.196  24.124  1.00  0.00     0.018 A 
HETATM   34  C25 UNL     1       8.801   8.943  22.417  1.00  0.00     0.261 A 
HETATM   35  O4  UNL     1       9.325   9.469  21.391  1.00  0.00    -0.267 OA
ENDBRANCH  24  25
ENDBRANCH  23  24
ENDBRANCH   7  23
TORSDOF 6
ENDMDL
MODEL 4
REMARK VINA RESULT: -9.068028589      2.271      3.484
REMARK  6 active torsions:
REMARK  status: ('A' for Active; 'I' for Inactive)
REMARK    1  A    between atoms: C2_2  and  N1_3 
REMARK    2  A    between atoms: C4_6  and  C5_7 
REMARK    3  A    between atoms: C4_6  and  C9_13 
REMARK    4  A    between atoms: N3_22  and  C16_23 
REMARK    5  A    between atoms: C16_23  and  C17_24 
REMARK    6  A    between atoms: C17_24  and  N4_25 
ROOT
HETATM    1  N1  UNL     1       4.487   5.314  20.322  1.00  0.00    -0.255 N 
HETATM    2  C3  UNL     1       4.605   4.908  18.929  1.00  0.00     0.267 C 
HETATM    3  O1  UNL     1       3.695   4.327  18.302  1.00  0.00    -0.269 OA
HETATM    4  C4  UNL     1       5.966   5.342  18.537  1.00  0.00     0.193 C 
HETATM    5  C15 UNL     1       6.222   6.460  19.429  1.00  0.00     0.267 C 
HETATM    6  O2  UNL     1       6.961   7.444  19.245  1.00  0.00    -0.269 OA
HETATM    7  N3  UNL     1       5.451   6.250  20.625  1.00  0.00    -0.253 N 
ENDROOT
BRANCH   4   8
HETATM    8  C5  UNL     1       5.978   5.784  17.115  1.00  0.00     0.033 C 
HETATM    9  C6  UNL     1       6.282   5.012  16.092  1.00  0.00     0.002 C 
HETATM   10  C7  UNL     1       6.202   5.750  14.809  1.00  0.00     0.048 C 
HETATM   11  C8  UNL     1       5.459   7.015  15.179  1.00  0.00     0.123 C 
HETATM   12  N2  UNL     1       5.680   7.082  16.603  1.00  0.00    -0.391 N 
ATOM     13  H2  UNL     1       5.630   7.933  17.162  1.00  0.00     0.159 HD
ENDBRANCH   4   8
BRANCH   4  14
HETATM   14  C9  UNL     1       6.862   4.200  18.704  1.00  0.00    -0.022 A 
HETATM   15  C10 UNL     1       6.498   2.999  19.276  1.00  0.00     0.009 A 
HETATM   16  C11 UNL     1       7.357   1.934  19.423  1.00  0.00     0.004 A 
HETATM   17  C12 UNL     1       8.651   2.059  18.981  1.00  0.00     0.042 A 
HETATM   18  C13 UNL     1       9.045   3.229  18.412  1.00  0.00     0.117 A 
HETATM   19  F1  UNL     1      10.338   3.329  17.980  1.00  0.00    -0.206 F 
HETATM   20  C14 UNL     1       8.164   4.308  18.267  1.00  0.00     0.051 A 
ENDBRANCH   4  14
BRANCH   1  21
HETATM   21  C2  UNL     1       3.481   4.715  21.219  1.00  0.00     0.148 C 
HETATM   22  C1  UNL     1       4.133   3.548  21.973  1.00  0.00     0.028 C 
ENDBRANCH   1  21
BRANCH   7  23
HETATM   23  C16 UNL     1       5.706   6.878  21.907  1.00  0.00     0.173 C 
BRANCH  23  24
HETATM   24  C17 UNL     1       6.471   8.138  21.883  1.00  0.00     0.157 C 
BRANCH  24  25
HETATM   25  N4  UNL     1       7.544   8.278  22.810  1.00  0.00    -0.278 N 
HETATM   26  C18 UNL     1       8.850   8.846  22.582  1.00  0.00     0.261 A 
HETATM   27  O3  UNL     1       9.219   9.311  21.471  1.00  0.00    -0.267 OA
HETATM   28  C19 UNL     1       9.599   8.771  23.828  1.00  0.00     0.048 A 
HETATM   29  C20 UNL     1      10.874   9.158  24.179  1.00  0.00     0.018 A 
HETATM   30  C24 UNL     1       8.828   8.190  24.803  1.00  0.00     0.048 A 
HETATM   31  C21 UNL     1      11.332   8.961  25.458  1.00  0.00     0.001 A 
HETATM   32  C22 UNL     1      10.540   8.381  26.408  1.00  0.00     0.001 A 
HETATM   33  C23 UNL     1       9.271   7.985  26.092  1.00  0.00     0.018 A 
HETATM   34  C25 UNL     1       7.560   7.881  24.194  1.00  0.00     0.261 A 
HETATM   35  O4  UNL     1       6.578   7.334  24.777  1.00  0.00    -0.267 OA
ENDBRANCH  24  25
ENDBRANCH  23  24
ENDBRANCH   7  23
TORSDOF 6
ENDMDL
MODEL 5
REMARK VINA RESULT: -8.985159819      2.922      7.542
REMARK  6 active torsions:
REMARK  status: ('A' for Active; 'I' for Inactive)
REMARK    1  A    between atoms: C2_2  and  N1_3 
REMARK    2  A    between atoms: C4_6  and  C5_7 
REMARK    3  A    between atoms: C4_6  and  C9_13 
REMARK    4  A    between atoms: N3_22  and  C16_23 
REMARK    5  A    between atoms: C16_23  and  C17_24 
REMARK    6  A    between atoms: C17_24  and  N4_25 
ROOT
HETATM    1  N1  UNL     1       5.203   7.989  23.359  1.00  0.00    -0.255 N 
HETATM    2  C3  UNL     1       6.287   8.861  23.790  1.00  0.00     0.267 C 
HETATM    3  O1  UNL     1       6.160   9.728  24.679  1.00  0.00    -0.269 OA
HETATM    4  C4  UNL     1       7.438   8.451  22.953  1.00  0.00     0.193 C 
HETATM    5  C15 UNL     1       7.140   7.063  22.642  1.00  0.00     0.267 C 
HETATM    6  O2  UNL     1       7.932   6.139  22.388  1.00  0.00    -0.269 OA
HETATM    7  N3  UNL     1       5.710   6.907  22.675  1.00  0.00    -0.253 N 
ENDROOT
BRANCH   4   8
HETATM    8  C5  UNL     1       8.705   8.560  23.728  1.00  0.00     0.033 C 
HETATM    9  C6  UNL     1       9.852   8.981  23.235  1.00  0.00     0.002 C 
HETATM   10  C7  UNL     1      10.923   8.973  24.260  1.00  0.00     0.048 C 
HETATM   11  C8  UNL     1      10.162   8.808  25.557  1.00  0.00     0.123 C 
HETATM   12  N2  UNL     1       8.918   8.238  25.101  1.00  0.00    -0.391 N 
ATOM     13  H2  UNL     1       8.283   7.686  25.677  1.00  0.00     0.159 HD
ENDBRANCH   4   8
BRANCH   4  14
HETATM   14  C9  UNL     1       7.489   9.345  21.799  1.00  0.00    -0.022 A 
HETATM   15  C10 UNL     1       7.077   9.005  20.527  1.00  0.00     0.009 A 
HETATM   16  C11 UNL     1       7.131   9.863  19.453  1.00  0.00     0.004 A 
HETATM   17  C12 UNL     1       7.620  11.132  19.641  1.00  0.00     0.042 A 
HETATM   18  C13 UNL     1       8.037  11.503  20.881  1.00  0.00     0.117 A 
HETATM   19  F1  UNL     1       8.520  12.771  21.044  1.00  0.00    -0.206 F 
HETATM   20  C14 UNL     1       7.978  10.623  21.969  1.00  0.00     0.051 A 
ENDBRANCH   4  14
BRANCH   1  21
HETATM   21  C2  UNL     1       3.790   8.328  23.616  1.00  0.00     0.148 C 
HETATM   22  C1  UNL     1       3.338   7.601  24.890  1.00  0.00     0.028 C 
ENDBRANCH   1  21
BRANCH   7  23
HETATM   23  C16 UNL     1       4.971   5.829  22.046  1.00  0.00     0.173 C 
BRANCH  23  24
HETATM   24  C17 UNL     1       5.081   5.722  20.580  1.00  0.00     0.157 C 
BRANCH  24  25
HETATM   25  N4  UNL     1       6.074   4.845  20.053  1.00  0.00    -0.278 N 
HETATM   26  C18 UNL     1       6.318   3.467  20.397  1.00  0.00     0.261 A 
HETATM   27  O3  UNL     1       5.644   2.836  21.255  1.00  0.00    -0.267 OA
HETATM   28  C19 UNL     1       7.434   2.991  19.593  1.00  0.00     0.048 A 
HETATM   29  C20 UNL     1       8.080   1.776  19.512  1.00  0.00     0.018 A 
HETATM   30  C24 UNL     1       7.888   3.999  18.779  1.00  0.00     0.048 A 
HETATM   31  C21 UNL     1       9.130   1.605  18.644  1.00  0.00     0.001 A 
HETATM   32  C22 UNL     1       9.558   2.628  17.846  1.00  0.00     0.001 A 
HETATM   33  C23 UNL     1       8.940   3.845  17.903  1.00  0.00     0.018 A 
HETATM   34  C25 UNL     1       7.061   5.147  19.049  1.00  0.00     0.261 A 
HETATM   35  O4  UNL     1       7.169   6.279  18.491  1.00  0.00    -0.267 OA
ENDBRANCH  24  25
ENDBRANCH  23  24
ENDBRANCH   7  23
TORSDOF 6
ENDMDL
