MODEL 1
REMARK VINA RESULT: -9.922822975      0.000      0.000
REMARK  8 active torsions:
REMARK  status: ('A' for Active; 'I' for Inactive)
REMARK    1  A    between atoms: C2_2  and  C3_3 
REMARK    2  A    between atoms: C2_2  and  N3_25 
REMARK    3  A    between atoms: C3_3  and  O1_4 
REMARK    4  A    between atoms: O1_4  and  C4_5 
REMARK    5  A    between atoms: C7_8  and  C8_9 
REMARK    6  A    between atoms: C8_9  and  C9_10 
REMARK    7  A    between atoms: N2_18  and  O2_19 
REMARK    8  A    between atoms: C16_22  and  O3_23 
ROOT
HETATM    1  C4  UNL     1       5.970   6.555  22.057  1.00  0.00     0.102 A 
HETATM    2  C5  UNL     1       5.584   7.386  23.082  1.00  0.00     0.040 A 
HETATM    3  C6  UNL     1       6.414   8.396  23.566  1.00  0.00     0.010 A 
HETATM    4  C7  UNL     1       7.664   8.615  23.039  1.00  0.00    -0.050 A 
HETATM    5  C15 UNL     1       8.071   7.798  22.014  1.00  0.00     0.047 A 
HETATM    6  C16 UNL     1       7.258   6.799  21.531  1.00  0.00     0.099 A 
ENDROOT
BRANCH   1   7
HETATM    7  O1  UNL     1       5.248   5.543  21.514  1.00  0.00    -0.346 OA
BRANCH   7   8
HETATM    8  C3  UNL     1       4.851   4.304  21.886  1.00  0.00     0.201 C 
BRANCH   8   9
HETATM    9  C2  UNL     1       4.379   3.497  20.693  1.00  0.00     0.116 C 
HETATM   10  C1  UNL     1       3.666   2.282  21.154  1.00  0.00     0.035 C 
BRANCH   9  11
HETATM   11  N3  UNL     1       5.515   3.283  19.854  1.00  0.00    -0.273 N 
HETATM   12  C17 UNL     1       6.634   2.497  20.247  1.00  0.00     0.262 A 
HETATM   13  O4  UNL     1       6.824   1.883  21.331  1.00  0.00    -0.267 OA
HETATM   14  C18 UNL     1       7.606   2.487  19.162  1.00  0.00     0.050 A 
HETATM   15  C19 UNL     1       8.837   1.889  19.029  1.00  0.00     0.018 A 
HETATM   16  C23 UNL     1       7.074   3.262  18.127  1.00  0.00     0.070 A 
HETATM   17  C20 UNL     1       9.518   2.082  17.846  1.00  0.00     0.003 A 
HETATM   18  C21 UNL     1       9.025   2.839  16.805  1.00  0.00     0.025 A 
HETATM   19  C22 UNL     1       7.800   3.428  16.951  1.00  0.00     0.050 A 
HETATM   20 CL1  UNL     1       7.059   4.414  15.704  1.00  0.00    -0.083 Cl
HETATM   21  C24 UNL     1       5.776   3.756  18.558  1.00  0.00     0.263 A 
HETATM   22  O5  UNL     1       5.024   4.474  17.894  1.00  0.00    -0.267 OA
ENDBRANCH   9  11
ENDBRANCH   8   9
ENDBRANCH   7   8
ENDBRANCH   1   7
BRANCH   6  23
HETATM   23  O3  UNL     1       7.695   5.996  20.500  1.00  0.00    -0.358 OA
ATOM     24  H3  UNL     1       8.631   5.859  20.411  1.00  0.00     0.217 HD
ENDBRANCH   6  23
BRANCH   4  25
HETATM   25  C8  UNL     1       8.558   9.686  23.544  1.00  0.00     0.101 C 
BRANCH  25  26
HETATM   26  C9  UNL     1       9.687   9.102  24.349  1.00  0.00     0.074 A 
HETATM   27  C10 UNL     1       9.812   8.366  25.433  1.00  0.00     0.087 A 
HETATM   28  N1  UNL     1       9.214   7.697  26.456  1.00  0.00    -0.362 N 
HETATM   29  C14 UNL     1      11.184   8.368  25.353  1.00  0.00     0.091 A 
HETATM   30  C11 UNL     1       9.957   7.063  27.354  1.00  0.00     0.088 A 
ATOM     31  H1  UNL     1       8.197   7.682  26.532  1.00  0.00     0.165 HD
HETATM   32  C12 UNL     1      11.355   7.039  27.312  1.00  0.00     0.019 A 
HETATM   33  C13 UNL     1      11.968   7.709  26.288  1.00  0.00     0.036 A 
HETATM   34  N2  UNL     1      11.090   9.089  24.289  1.00  0.00    -0.224 N 
BRANCH  34  35
HETATM   35  O2  UNL     1      12.028   9.638  23.426  1.00  0.00    -0.282 OA
ATOM     36  H2  UNL     1      12.660  10.344  23.495  1.00  0.00     0.245 HD
ENDBRANCH  34  35
ENDBRANCH  25  26
ENDBRANCH   4  25
TORSDOF 8
ENDMDL
MODEL 2
REMARK VINA RESULT: -9.726276171      0.497      1.162
REMARK  8 active torsions:
REMARK  status: ('A' for Active; 'I' for Inactive)
REMARK    1  A    between atoms: C2_2  and  C3_3 
REMARK    2  A    between atoms: C2_2  and  N3_25 
REMARK    3  A    between atoms: C3_3  and  O1_4 
REMARK    4  A    between atoms: O1_4  and  C4_5 
REMARK    5  A    between atoms: C7_8  and  C8_9 
REMARK    6  A    between atoms: C8_9  and  C9_10 
REMARK    7  A    between atoms: N2_18  and  O2_19 
REMARK    8  A    between atoms: C16_22  and  O3_23 
ROOT
HETATM    1  C4  UNL     1       5.988   6.490  22.008  1.00  0.00     0.102 A 
HETATM    2  C5  UNL     1       7.233   6.775  21.499  1.00  0.00     0.040 A 
HETATM    3  C6  UNL     1       8.026   7.798  22.017  1.00  0.00     0.010 A 
HETATM    4  C7  UNL     1       7.603   8.573  23.069  1.00  0.00    -0.050 A 
HETATM    5  C15 UNL     1       6.364   8.306  23.595  1.00  0.00     0.047 A 
HETATM    6  C16 UNL     1       5.575   7.299  23.089  1.00  0.00     0.099 A 
ENDROOT
BRANCH   1   7
HETATM    7  O1  UNL     1       5.135   5.525  21.579  1.00  0.00    -0.346 OA
BRANCH   7   8
HETATM    8  C3  UNL     1       4.872   4.234  21.885  1.00  0.00     0.201 C 
BRANCH   8   9
HETATM    9  C2  UNL     1       4.402   3.466  20.666  1.00  0.00     0.116 C 
HETATM   10  C1  UNL     1       3.667   2.249  21.085  1.00  0.00     0.035 C 
BRANCH   9  11
HETATM   11  N3  UNL     1       5.543   3.259  19.832  1.00  0.00    -0.273 N 
HETATM   12  C17 UNL     1       6.667   2.485  20.233  1.00  0.00     0.262 A 
HETATM   13  O4  UNL     1       6.859   1.877  21.321  1.00  0.00    -0.267 OA
HETATM   14  C18 UNL     1       7.644   2.479  19.152  1.00  0.00     0.050 A 
HETATM   15  C19 UNL     1       8.881   1.892  19.027  1.00  0.00     0.018 A 
HETATM   16  C23 UNL     1       7.109   3.244  18.111  1.00  0.00     0.070 A 
HETATM   17  C20 UNL     1       9.565   2.085  17.845  1.00  0.00     0.003 A 
HETATM   18  C21 UNL     1       9.069   2.833  16.799  1.00  0.00     0.025 A 
HETATM   19  C22 UNL     1       7.838   3.412  16.937  1.00  0.00     0.050 A 
HETATM   20 CL1  UNL     1       7.093   4.386  15.683  1.00  0.00    -0.083 Cl
HETATM   21  C24 UNL     1       5.805   3.728  18.534  1.00  0.00     0.263 A 
HETATM   22  O5  UNL     1       5.048   4.436  17.865  1.00  0.00    -0.267 OA
ENDBRANCH   9  11
ENDBRANCH   8   9
ENDBRANCH   7   8
ENDBRANCH   1   7
BRANCH   6  23
HETATM   23  O3  UNL     1       4.335   7.056  23.639  1.00  0.00    -0.358 OA
ATOM     24  H3  UNL     1       3.644   7.686  23.472  1.00  0.00     0.217 HD
ENDBRANCH   6  23
BRANCH   4  25
HETATM   25  C8  UNL     1       8.437   9.665  23.632  1.00  0.00     0.101 C 
BRANCH  25  26
HETATM   26  C9  UNL     1       9.591   9.102  24.416  1.00  0.00     0.074 A 
HETATM   27  C10 UNL     1       9.749   8.337  25.475  1.00  0.00     0.087 A 
HETATM   28  N1  UNL     1       9.183   7.610  26.477  1.00  0.00    -0.362 N 
HETATM   29  C14 UNL     1      11.121   8.399  25.394  1.00  0.00     0.091 A 
HETATM   30  C11 UNL     1       9.955   6.980  27.353  1.00  0.00     0.088 A 
ATOM     31  H1  UNL     1       8.168   7.551  26.554  1.00  0.00     0.165 HD
HETATM   32  C12 UNL     1      11.353   7.016  27.308  1.00  0.00     0.019 A 
HETATM   33  C13 UNL     1      11.934   7.743  26.305  1.00  0.00     0.036 A 
HETATM   34  N2  UNL     1      10.993   9.150  24.354  1.00  0.00    -0.224 N 
BRANCH  34  35
HETATM   35  O2  UNL     1      11.905   9.765  23.507  1.00  0.00    -0.282 OA
ATOM     36  H2  UNL     1      12.610   9.453  22.953  1.00  0.00     0.245 HD
ENDBRANCH  34  35
ENDBRANCH  25  26
ENDBRANCH   4  25
TORSDOF 8
ENDMDL
MODEL 3
REMARK VINA RESULT: -9.525478825      1.909      2.678
REMARK  8 active torsions:
REMARK  status: ('A' for Active; 'I' for Inactive)
REMARK    1  A    between atoms: C2_2  and  C3_3 
REMARK    2  A    between atoms: C2_2  and  N3_25 
REMARK    3  A    between atoms: C3_3  and  O1_4 
REMARK    4  A    between atoms: O1_4  and  C4_5 
REMARK    5  A    between atoms: C7_8  and  C8_9 
REMARK    6  A    between atoms: C8_9  and  C9_10 
REMARK    7  A    between atoms: N2_18  and  O2_19 
REMARK    8  A    between atoms: C16_22  and  O3_23 
ROOT
HETATM    1  C4  UNL     1       6.846   7.795  20.715  1.00  0.00     0.102 A 
HETATM    2  C5  UNL     1       5.858   7.672  21.664  1.00  0.00     0.040 A 
HETATM    3  C6  UNL     1       6.038   8.103  22.978  1.00  0.00     0.010 A 
HETATM    4  C7  UNL     1       7.216   8.676  23.392  1.00  0.00    -0.050 A 
HETATM    5  C15 UNL     1       8.216   8.810  22.462  1.00  0.00     0.047 A 
HETATM    6  C16 UNL     1       8.047   8.387  21.164  1.00  0.00     0.099 A 
ENDROOT
BRANCH   1   7
HETATM    7  O1  UNL     1       6.780   7.408  19.416  1.00  0.00    -0.346 OA
BRANCH   7   8
HETATM    8  C3  UNL     1       5.956   7.621  18.364  1.00  0.00     0.201 C 
BRANCH   8   9
HETATM    9  C2  UNL     1       5.157   6.377  18.032  1.00  0.00     0.116 C 
HETATM   10  C1  UNL     1       3.951   6.305  18.892  1.00  0.00     0.035 C 
BRANCH   9  11
HETATM   11  N3  UNL     1       6.053   5.267  18.108  1.00  0.00    -0.273 N 
HETATM   12  C17 UNL     1       6.893   4.872  17.029  1.00  0.00     0.262 A 
HETATM   13  O4  UNL     1       7.000   5.388  15.884  1.00  0.00    -0.267 OA
HETATM   14  C18 UNL     1       7.673   3.713  17.440  1.00  0.00     0.050 A 
HETATM   15  C19 UNL     1       8.616   2.954  16.787  1.00  0.00     0.018 A 
HETATM   16  C23 UNL     1       7.303   3.414  18.755  1.00  0.00     0.070 A 
HETATM   17  C20 UNL     1       9.178   1.899  17.475  1.00  0.00     0.003 A 
HETATM   18  C21 UNL     1       8.837   1.576  18.771  1.00  0.00     0.025 A 
HETATM   19  C22 UNL     1       7.897   2.338  19.408  1.00  0.00     0.050 A 
HETATM   20 CL1  UNL     1       7.375   2.035  21.055  1.00  0.00    -0.083 Cl
HETATM   21  C24 UNL     1       6.298   4.380  19.168  1.00  0.00     0.263 A 
HETATM   22  O5  UNL     1       5.746   4.416  20.271  1.00  0.00    -0.267 OA
ENDBRANCH   9  11
ENDBRANCH   8   9
ENDBRANCH   7   8
ENDBRANCH   1   7
BRANCH   6  23
HETATM   23  O3  UNL     1       9.071   8.535  20.254  1.00  0.00    -0.358 OA
ATOM     24  H3  UNL     1       9.637   9.293  20.342  1.00  0.00     0.217 HD
ENDBRANCH   6  23
BRANCH   4  25
HETATM   25  C8  UNL     1       7.422   9.140  24.787  1.00  0.00     0.101 C 
BRANCH  25  26
HETATM   26  C9  UNL     1       8.853   8.940  25.208  1.00  0.00     0.074 A 
HETATM   27  C10 UNL     1       9.520   8.098  25.967  1.00  0.00     0.087 A 
HETATM   28  N1  UNL     1       9.506   7.009  26.782  1.00  0.00    -0.362 N 
HETATM   29  C14 UNL     1      10.718   8.727  25.720  1.00  0.00     0.091 A 
HETATM   30  C11 UNL     1      10.637   6.574  27.323  1.00  0.00     0.088 A 
ATOM     31  H1  UNL     1       8.628   6.527  26.976  1.00  0.00     0.165 HD
HETATM   32  C12 UNL     1      11.877   7.183  27.099  1.00  0.00     0.019 A 
HETATM   33  C13 UNL     1      11.903   8.279  26.282  1.00  0.00     0.036 A 
HETATM   34  N2  UNL     1      10.087   9.565  24.971  1.00  0.00    -0.224 N 
BRANCH  34  35
HETATM   35  O2  UNL     1      10.490  10.663  24.223  1.00  0.00    -0.282 OA
ATOM     36  H2  UNL     1      11.056  11.407  24.390  1.00  0.00     0.245 HD
ENDBRANCH  34  35
ENDBRANCH  25  26
ENDBRANCH   4  25
TORSDOF 8
ENDMDL
MODEL 4
REMARK VINA RESULT: -9.418548936      1.446      2.029
REMARK  8 active torsions:
REMARK  status: ('A' for Active; 'I' for Inactive)
REMARK    1  A    between atoms: C2_2  and  C3_3 
REMARK    2  A    between atoms: C2_2  and  N3_25 
REMARK    3  A    between atoms: C3_3  and  O1_4 
REMARK    4  A    between atoms: O1_4  and  C4_5 
REMARK    5  A    between atoms: C7_8  and  C8_9 
REMARK    6  A    between atoms: C8_9  and  C9_10 
REMARK    7  A    between atoms: N2_18  and  O2_19 
REMARK    8  A    between atoms: C16_22  and  O3_23 
ROOT
HETATM    1  C4  UNL     1       4.763   5.740  22.402  1.00  0.00     0.102 A 
HETATM    2  C5  UNL     1       5.793   6.540  21.964  1.00  0.00     0.040 A 
HETATM    3  C6  UNL     1       6.268   7.611  22.719  1.00  0.00     0.010 A 
HETATM    4  C7  UNL     1       5.731   7.921  23.945  1.00  0.00    -0.050 A 
HETATM    5  C15 UNL     1       4.702   7.137  24.403  1.00  0.00     0.047 A 
HETATM    6  C16 UNL     1       4.227   6.078  23.663  1.00  0.00     0.099 A 
ENDROOT
BRANCH   1   7
HETATM    7  O1  UNL     1       4.222   4.680  21.749  1.00  0.00    -0.346 OA
BRANCH   7   8
HETATM    8  C3  UNL     1       3.927   4.355  20.469  1.00  0.00     0.201 C 
BRANCH   8   9
HETATM    9  C2  UNL     1       4.038   2.861  20.243  1.00  0.00     0.116 C 
HETATM   10  C1  UNL     1       3.931   2.143  21.536  1.00  0.00     0.035 C 
BRANCH   9  11
HETATM   11  N3  UNL     1       5.233   2.636  19.494  1.00  0.00    -0.273 N 
HETATM   12  C17 UNL     1       6.498   2.397  20.101  1.00  0.00     0.262 A 
HETATM   13  O4  UNL     1       6.786   2.342  21.327  1.00  0.00    -0.267 OA
HETATM   14  C18 UNL     1       7.494   2.210  19.055  1.00  0.00     0.050 A 
HETATM   15  C19 UNL     1       8.845   1.956  19.100  1.00  0.00     0.018 A 
HETATM   16  C23 UNL     1       6.832   2.336  17.830  1.00  0.00     0.070 A 
HETATM   17  C20 UNL     1       9.513   1.830  17.900  1.00  0.00     0.003 A 
HETATM   18  C21 UNL     1       8.893   1.949  16.675  1.00  0.00     0.025 A 
HETATM   19  C22 UNL     1       7.549   2.202  16.645  1.00  0.00     0.050 A 
HETATM   20 CL1  UNL     1       6.641   2.374  15.154  1.00  0.00    -0.083 Cl
HETATM   21  C24 UNL     1       5.429   2.600  18.104  1.00  0.00     0.263 A 
HETATM   22  O5  UNL     1       4.550   2.767  17.254  1.00  0.00    -0.267 OA
ENDBRANCH   9  11
ENDBRANCH   8   9
ENDBRANCH   7   8
ENDBRANCH   1   7
BRANCH   6  23
HETATM   23  O3  UNL     1       3.193   5.309  24.151  1.00  0.00    -0.358 OA
ATOM     24  H3  UNL     1       3.208   5.078  25.072  1.00  0.00     0.217 HD
ENDBRANCH   6  23
BRANCH   4  25
HETATM   25  C8  UNL     1       6.227   9.058  24.760  1.00  0.00     0.101 C 
BRANCH  25  26
HETATM   26  C9  UNL     1       7.731   9.063  24.806  1.00  0.00     0.074 A 
HETATM   27  C10 UNL     1       8.671   8.476  25.516  1.00  0.00     0.087 A 
HETATM   28  N1  UNL     1       9.002   7.617  26.518  1.00  0.00    -0.362 N 
HETATM   29  C14 UNL     1       9.677   9.105  24.822  1.00  0.00     0.091 A 
HETATM   30  C11 UNL     1      10.279   7.403  26.809  1.00  0.00     0.088 A 
ATOM     31  H1  UNL     1       8.271   7.139  27.044  1.00  0.00     0.165 HD
HETATM   32  C12 UNL     1      11.334   8.021  26.130  1.00  0.00     0.019 A 
HETATM   33  C13 UNL     1      11.013   8.887  25.120  1.00  0.00     0.036 A 
HETATM   34  N2  UNL     1       8.776   9.694  24.112  1.00  0.00    -0.224 N 
BRANCH  34  35
HETATM   35  O2  UNL     1       8.834  10.603  23.065  1.00  0.00    -0.282 OA
ATOM     36  H2  UNL     1       9.033  11.530  23.002  1.00  0.00     0.245 HD
ENDBRANCH  34  35
ENDBRANCH  25  26
ENDBRANCH   4  25
TORSDOF 8
ENDMDL
MODEL 5
REMARK VINA RESULT: -9.414379689      1.807      2.718
REMARK  8 active torsions:
REMARK  status: ('A' for Active; 'I' for Inactive)
REMARK    1  A    between atoms: C2_2  and  C3_3 
REMARK    2  A    between atoms: C2_2  and  N3_25 
REMARK    3  A    between atoms: C3_3  and  O1_4 
REMARK    4  A    between atoms: O1_4  and  C4_5 
REMARK    5  A    between atoms: C7_8  and  C8_9 
REMARK    6  A    between atoms: C8_9  and  C9_10 
REMARK    7  A    between atoms: N2_18  and  O2_19 
REMARK    8  A    between atoms: C16_22  and  O3_23 
ROOT
HETATM    1  C4  UNL     1       7.137   7.869  20.310  1.00  0.00     0.102 A 
HETATM    2  C5  UNL     1       8.131   8.818  20.367  1.00  0.00     0.040 A 
HETATM    3  C6  UNL     1       8.481   9.450  21.560  1.00  0.00     0.010 A 
HETATM    4  C7  UNL     1       7.849   9.154  22.743  1.00  0.00    -0.050 A 
HETATM    5  C15 UNL     1       6.853   8.210  22.711  1.00  0.00     0.047 A 
HETATM    6  C16 UNL     1       6.502   7.582  21.538  1.00  0.00     0.099 A 
ENDROOT
BRANCH   1   7
HETATM    7  O1  UNL     1       6.715   7.199  19.209  1.00  0.00    -0.346 OA
BRANCH   7   8
HETATM    8  C3  UNL     1       5.851   7.418  18.190  1.00  0.00     0.201 C 
BRANCH   8   9
HETATM    9  C2  UNL     1       5.138   6.143  17.791  1.00  0.00     0.116 C 
HETATM   10  C1  UNL     1       3.886   5.997  18.571  1.00  0.00     0.035 C 
BRANCH   9  11
HETATM   11  N3  UNL     1       6.082   5.077  17.906  1.00  0.00    -0.273 N 
HETATM   12  C17 UNL     1       6.981   4.720  16.863  1.00  0.00     0.262 A 
HETATM   13  O4  UNL     1       7.109   5.238  15.721  1.00  0.00    -0.267 OA
HETATM   14  C18 UNL     1       7.798   3.600  17.309  1.00  0.00     0.050 A 
HETATM   15  C19 UNL     1       8.801   2.886  16.698  1.00  0.00     0.018 A 
HETATM   16  C23 UNL     1       7.391   3.287  18.610  1.00  0.00     0.070 A 
HETATM   17  C20 UNL     1       9.384   1.860  17.412  1.00  0.00     0.003 A 
HETATM   18  C21 UNL     1       9.008   1.524  18.695  1.00  0.00     0.025 A 
HETATM   19  C22 UNL     1       8.009   2.242  19.291  1.00  0.00     0.050 A 
HETATM   20 CL1  UNL     1       7.437   1.918  20.917  1.00  0.00    -0.083 Cl
HETATM   21  C24 UNL     1       6.325   4.205  18.979  1.00  0.00     0.263 A 
HETATM   22  O5  UNL     1       5.729   4.218  20.060  1.00  0.00    -0.267 OA
ENDBRANCH   9  11
ENDBRANCH   8   9
ENDBRANCH   7   8
ENDBRANCH   1   7
BRANCH   6  23
HETATM   23  O3  UNL     1       5.498   6.638  21.539  1.00  0.00    -0.358 OA
ATOM     24  H3  UNL     1       5.715   5.759  21.254  1.00  0.00     0.217 HD
ENDBRANCH   6  23
BRANCH   4  25
HETATM   25  C8  UNL     1       8.211   9.818  24.020  1.00  0.00     0.101 C 
BRANCH  25  26
HETATM   26  C9  UNL     1       9.417   9.163  24.638  1.00  0.00     0.074 A 
HETATM   27  C10 UNL     1       9.657   8.350  25.644  1.00  0.00     0.087 A 
HETATM   28  N1  UNL     1       9.174   7.618  26.685  1.00  0.00    -0.362 N 
HETATM   29  C14 UNL     1      11.009   8.340  25.396  1.00  0.00     0.091 A 
HETATM   30  C11 UNL     1      10.008   6.912  27.439  1.00  0.00     0.088 A 
ATOM     31  H1  UNL     1       8.174   7.611  26.884  1.00  0.00     0.165 HD
HETATM   32  C12 UNL     1      11.390   6.873  27.222  1.00  0.00     0.019 A 
HETATM   33  C13 UNL     1      11.886   7.606  26.179  1.00  0.00     0.036 A 
HETATM   34  N2  UNL     1      10.801   9.136  24.404  1.00  0.00    -0.224 N 
BRANCH  34  35
HETATM   35  O2  UNL     1      11.638   9.733  23.471  1.00  0.00    -0.282 OA
ATOM     36  H2  UNL     1      12.479  10.172  23.520  1.00  0.00     0.245 HD
ENDBRANCH  34  35
ENDBRANCH  25  26
ENDBRANCH   4  25
TORSDOF 8
ENDMDL
