MODEL 1
REMARK VINA RESULT: -7.725873324      0.000      0.000
REMARK  6 active torsions:
REMARK  status: ('A' for Active; 'I' for Inactive)
REMARK    1  A    between atoms: N1_2  and  S1_4 
REMARK    2  A    between atoms: S1_4  and  C2_7 
REMARK    3  A    between atoms: C6_12  and  S2_13 
REMARK    4  A    between atoms: S2_13  and  N2_16 
REMARK    5  A    between atoms: N2_16  and  C8_18 
REMARK    6  A    between atoms: C8_18  and  C9_19 
ROOT
HETATM    1  S2  UNL     1       8.138   9.765  20.779  1.00  0.00     0.243 S 
HETATM    2  O3  UNL     1       9.173   8.990  19.998  1.00  0.00    -0.206 OA
HETATM    3  O4  UNL     1       8.530  11.233  20.694  1.00  0.00    -0.206 OA
ENDROOT
BRANCH   1   4
HETATM    4  C6  UNL     1       8.131   9.230  22.441  1.00  0.00     0.077 A 
HETATM    5  C5  UNL     1       6.974   8.798  23.026  1.00  0.00     0.044 A 
HETATM    6  C4  UNL     1       6.918   8.363  24.346  1.00  0.00     0.013 A 
HETATM    7  C3  UNL     1       8.070   8.365  25.102  1.00  0.00     0.044 A 
HETATM    8 BR1  UNL     1       5.239   7.783  25.050  1.00  0.00    -0.051 Br
HETATM    9  C2  UNL     1       9.252   8.797  24.535  1.00  0.00     0.082 A 
HETATM   10  C15 UNL     1       9.271   9.223  23.216  1.00  0.00     0.050 A 
BRANCH   9  11
HETATM   11  S1  UNL     1      10.732   8.807  25.482  1.00  0.00     0.258 S 
HETATM   12  O1  UNL     1      11.846   8.294  24.606  1.00  0.00    -0.201 OA
HETATM   13  O2  UNL     1      11.069  10.209  25.859  1.00  0.00    -0.201 OA
BRANCH  11  14
HETATM   14  N1  UNL     1      10.626   7.801  26.860  1.00  0.00    -0.320 N 
HETATM   15  C1  UNL     1      11.877   7.162  27.144  1.00  0.00     0.159 C 
ATOM     16  H1  UNL     1       9.779   7.671  27.412  1.00  0.00     0.171 HD
ENDBRANCH  11  14
ENDBRANCH   9  11
ENDBRANCH   1   4
BRANCH   1  17
HETATM   17  N2  UNL     1       6.641   9.562  20.009  1.00  0.00    -0.204 NA
HETATM   18  C7  UNL     1       6.048  10.743  19.474  1.00  0.00     0.130 C 
BRANCH  17  19
HETATM   19  C8  UNL     1       6.727   8.528  19.016  1.00  0.00     0.183 C 
BRANCH  19  20
HETATM   20  C9  UNL     1       6.629   7.147  19.596  1.00  0.00     0.096 A 
HETATM   21  N3  UNL     1       5.734   6.854  20.556  1.00  0.00    -0.349 N 
HETATM   22  C10 UNL     1       5.644   5.616  21.076  1.00  0.00     0.008 A 
ATOM     23  H3  UNL     1       5.110   7.586  20.897  1.00  0.00     0.167 HD
HETATM   24  C11 UNL     1       4.667   5.253  22.139  1.00  0.00     0.068 C 
HETATM   25  C12 UNL     1       6.478   4.608  20.634  1.00  0.00     0.049 A 
HETATM   26  C13 UNL     1       7.388   4.902  19.660  1.00  0.00     0.008 A 
HETATM   27  C14 UNL     1       8.308   3.829  19.156  1.00  0.00     0.068 C 
HETATM   28  N4  UNL     1       7.432   6.153  19.178  1.00  0.00    -0.349 N 
ATOM     29  H4  UNL     1       8.116   6.363  18.450  1.00  0.00     0.167 HD
ENDBRANCH  19  20
ENDBRANCH  17  19
ENDBRANCH   1  17
TORSDOF 6
ENDMDL
MODEL 2
REMARK VINA RESULT: -7.710571990      0.061      1.642
REMARK  6 active torsions:
REMARK  status: ('A' for Active; 'I' for Inactive)
REMARK    1  A    between atoms: N1_2  and  S1_4 
REMARK    2  A    between atoms: S1_4  and  C2_7 
REMARK    3  A    between atoms: C6_12  and  S2_13 
REMARK    4  A    between atoms: S2_13  and  N2_16 
REMARK    5  A    between atoms: N2_16  and  C8_18 
REMARK    6  A    between atoms: C8_18  and  C9_19 
ROOT
HETATM    1  S2  UNL     1       8.143   9.746  20.785  1.00  0.00     0.243 S 
HETATM    2  O3  UNL     1       9.191   8.975  20.018  1.00  0.00    -0.206 OA
HETATM    3  O4  UNL     1       8.522  11.217  20.693  1.00  0.00    -0.206 OA
ENDROOT
BRANCH   1   4
HETATM    4  C6  UNL     1       8.130   9.223  22.451  1.00  0.00     0.077 A 
HETATM    5  C5  UNL     1       6.967   8.808  23.038  1.00  0.00     0.044 A 
HETATM    6  C4  UNL     1       6.906   8.383  24.362  1.00  0.00     0.013 A 
HETATM    7  C3  UNL     1       8.058   8.377  25.118  1.00  0.00     0.044 A 
HETATM    8 BR1  UNL     1       5.221   7.826  25.069  1.00  0.00    -0.051 Br
HETATM    9  C2  UNL     1       9.245   8.791  24.549  1.00  0.00     0.082 A 
HETATM   10  C15 UNL     1       9.269   9.208  23.227  1.00  0.00     0.050 A 
BRANCH   9  11
HETATM   11  S1  UNL     1      10.724   8.791  25.496  1.00  0.00     0.258 S 
HETATM   12  O1  UNL     1      11.836   8.275  24.619  1.00  0.00    -0.201 OA
HETATM   13  O2  UNL     1      11.068  10.190  25.878  1.00  0.00    -0.201 OA
BRANCH  11  14
HETATM   14  N1  UNL     1      10.613   7.781  26.872  1.00  0.00    -0.320 N 
HETATM   15  C1  UNL     1      11.860   7.132  27.152  1.00  0.00     0.159 C 
ATOM     16  H1  UNL     1       9.766   7.657  27.424  1.00  0.00     0.171 HD
ENDBRANCH  11  14
ENDBRANCH   9  11
ENDBRANCH   1   4
BRANCH   1  17
HETATM   17  N2  UNL     1       6.653   9.523  20.007  1.00  0.00    -0.204 NA
HETATM   18  C7  UNL     1       6.055  10.695  19.457  1.00  0.00     0.130 C 
BRANCH  17  19
HETATM   19  C8  UNL     1       6.755   8.481  19.024  1.00  0.00     0.183 C 
BRANCH  19  20
HETATM   20  C9  UNL     1       6.658   7.105  19.614  1.00  0.00     0.096 A 
HETATM   21  N3  UNL     1       7.476   6.115  19.216  1.00  0.00    -0.349 N 
HETATM   22  C10 UNL     1       7.391   4.880  19.745  1.00  0.00     0.008 A 
ATOM     23  H3  UNL     1       8.176   6.304  18.498  1.00  0.00     0.167 HD
HETATM   24  C11 UNL     1       8.278   3.758  19.332  1.00  0.00     0.068 C 
HETATM   25  C12 UNL     1       6.452   4.598  20.718  1.00  0.00     0.049 A 
HETATM   26  C13 UNL     1       5.620   5.601  21.124  1.00  0.00     0.008 A 
HETATM   27  C14 UNL     1       4.589   5.327  22.180  1.00  0.00     0.068 C 
HETATM   28  N4  UNL     1       5.750   6.812  20.562  1.00  0.00    -0.349 N 
ATOM     29  H4  UNL     1       5.124   7.555  20.872  1.00  0.00     0.167 HD
ENDBRANCH  19  20
ENDBRANCH  17  19
ENDBRANCH   1  17
TORSDOF 6
ENDMDL
MODEL 3
REMARK VINA RESULT: -7.643212117      1.429      1.811
REMARK  6 active torsions:
REMARK  status: ('A' for Active; 'I' for Inactive)
REMARK    1  A    between atoms: N1_2  and  S1_4 
REMARK    2  A    between atoms: S1_4  and  C2_7 
REMARK    3  A    between atoms: C6_12  and  S2_13 
REMARK    4  A    between atoms: S2_13  and  N2_16 
REMARK    5  A    between atoms: N2_16  and  C8_18 
REMARK    6  A    between atoms: C8_18  and  C9_19 
ROOT
HETATM    1  S2  UNL     1       7.742   8.505  20.864  1.00  0.00     0.243 S 
HETATM    2  O3  UNL     1       9.127   8.322  20.290  1.00  0.00    -0.206 OA
HETATM    3  O4  UNL     1       7.215   9.831  20.335  1.00  0.00    -0.206 OA
ENDROOT
BRANCH   1   4
HETATM    4  C6  UNL     1       7.827   8.535  22.608  1.00  0.00     0.077 A 
HETATM    5  C5  UNL     1       6.687   8.477  23.360  1.00  0.00     0.044 A 
HETATM    6  C4  UNL     1       6.703   8.499  24.751  1.00  0.00     0.013 A 
HETATM    7  C3  UNL     1       7.914   8.581  25.405  1.00  0.00     0.044 A 
HETATM    8 BR1  UNL     1       5.042   8.412  25.689  1.00  0.00    -0.051 Br
HETATM    9  C2  UNL     1       9.080   8.641  24.670  1.00  0.00     0.082 A 
HETATM   10  C15 UNL     1       9.025   8.617  23.285  1.00  0.00     0.050 A 
BRANCH   9  11
HETATM   11  S1  UNL     1      10.632   8.746  25.486  1.00  0.00     0.258 S 
HETATM   12  O1  UNL     1      11.696   8.294  24.518  1.00  0.00    -0.201 OA
HETATM   13  O2  UNL     1      10.915  10.169  25.829  1.00  0.00    -0.201 OA
BRANCH  11  14
HETATM   14  N1  UNL     1      10.706   7.746  26.870  1.00  0.00    -0.320 N 
HETATM   15  C1  UNL     1      12.019   7.204  27.061  1.00  0.00     0.159 C 
ATOM     16  H1  UNL     1       9.914   7.558  27.484  1.00  0.00     0.171 HD
ENDBRANCH  11  14
ENDBRANCH   9  11
ENDBRANCH   1   4
BRANCH   1  17
HETATM   17  N2  UNL     1       6.758   7.258  20.269  1.00  0.00    -0.204 NA
HETATM   18  C7  UNL     1       5.407   7.612  19.984  1.00  0.00     0.130 C 
BRANCH  17  19
HETATM   19  C8  UNL     1       7.381   6.629  19.137  1.00  0.00     0.183 C 
BRANCH  19  20
HETATM   20  C9  UNL     1       7.614   5.160  19.337  1.00  0.00     0.096 A 
HETATM   21  N3  UNL     1       6.928   4.464  20.260  1.00  0.00    -0.349 N 
HETATM   22  C10 UNL     1       7.134   3.145  20.440  1.00  0.00     0.008 A 
ATOM     23  H3  UNL     1       6.237   4.944  20.837  1.00  0.00     0.167 HD
HETATM   24  C11 UNL     1       6.396   2.340  21.450  1.00  0.00     0.068 C 
HETATM   25  C12 UNL     1       8.065   2.472  19.674  1.00  0.00     0.049 A 
HETATM   26  C13 UNL     1       8.763   3.176  18.736  1.00  0.00     0.008 A 
HETATM   27  C14 UNL     1       9.781   2.473  17.886  1.00  0.00     0.068 C 
HETATM   28  N4  UNL     1       8.515   4.487  18.600  1.00  0.00    -0.349 N 
ATOM     29  H4  UNL     1       9.042   5.005  17.897  1.00  0.00     0.167 HD
ENDBRANCH  19  20
ENDBRANCH  17  19
ENDBRANCH   1  17
TORSDOF 6
ENDMDL
MODEL 4
REMARK VINA RESULT: -7.603568484      1.448      2.445
REMARK  6 active torsions:
REMARK  status: ('A' for Active; 'I' for Inactive)
REMARK    1  A    between atoms: N1_2  and  S1_4 
REMARK    2  A    between atoms: S1_4  and  C2_7 
REMARK    3  A    between atoms: C6_12  and  S2_13 
REMARK    4  A    between atoms: S2_13  and  N2_16 
REMARK    5  A    between atoms: N2_16  and  C8_18 
REMARK    6  A    between atoms: C8_18  and  C9_19 
ROOT
HETATM    1  S2  UNL     1       7.665   8.484  20.862  1.00  0.00     0.243 S 
HETATM    2  O3  UNL     1       9.053   8.369  20.276  1.00  0.00    -0.206 OA
HETATM    3  O4  UNL     1       7.065   9.776  20.326  1.00  0.00    -0.206 OA
ENDROOT
BRANCH   1   4
HETATM    4  C6  UNL     1       7.763   8.533  22.604  1.00  0.00     0.077 A 
HETATM    5  C5  UNL     1       6.627   8.498  23.364  1.00  0.00     0.044 A 
HETATM    6  C4  UNL     1       6.654   8.535  24.755  1.00  0.00     0.013 A 
HETATM    7  C3  UNL     1       7.869   8.610  25.400  1.00  0.00     0.044 A 
HETATM    8 BR1  UNL     1       4.998   8.480  25.706  1.00  0.00    -0.051 Br
HETATM    9  C2  UNL     1       9.031   8.647  24.656  1.00  0.00     0.082 A 
HETATM   10  C15 UNL     1       8.966   8.608  23.272  1.00  0.00     0.050 A 
BRANCH   9  11
HETATM   11  S1  UNL     1      10.590   8.743  25.460  1.00  0.00     0.258 S 
HETATM   12  O1  UNL     1      11.642   8.274  24.488  1.00  0.00    -0.201 OA
HETATM   13  O2  UNL     1      10.889  10.165  25.791  1.00  0.00    -0.201 OA
BRANCH  11  14
HETATM   14  N1  UNL     1      10.665   7.752  26.851  1.00  0.00    -0.320 N 
HETATM   15  C1  UNL     1      11.996   7.279  27.091  1.00  0.00     0.159 C 
ATOM     16  H1  UNL     1       9.862   7.524  27.436  1.00  0.00     0.171 HD
ENDBRANCH  11  14
ENDBRANCH   9  11
ENDBRANCH   1   4
BRANCH   1  17
HETATM   17  N2  UNL     1       6.743   7.183  20.284  1.00  0.00    -0.204 NA
HETATM   18  C7  UNL     1       5.371   7.461  20.014  1.00  0.00     0.130 C 
BRANCH  17  19
HETATM   19  C8  UNL     1       7.385   6.582  19.148  1.00  0.00     0.183 C 
BRANCH  19  20
HETATM   20  C9  UNL     1       7.626   5.111  19.320  1.00  0.00     0.096 A 
HETATM   21  N3  UNL     1       8.528   4.458  18.564  1.00  0.00    -0.349 N 
HETATM   22  C10 UNL     1       8.746   3.139  18.717  1.00  0.00     0.008 A 
ATOM     23  H3  UNL     1       9.056   4.975  17.861  1.00  0.00     0.167 HD
HETATM   24  C11 UNL     1       9.734   2.381  17.902  1.00  0.00     0.068 C 
HETATM   25  C12 UNL     1       8.042   2.417  19.661  1.00  0.00     0.049 A 
HETATM   26  C13 UNL     1       7.127   3.077  20.429  1.00  0.00     0.008 A 
HETATM   27  C14 UNL     1       6.346   2.322  21.465  1.00  0.00     0.068 C 
HETATM   28  N4  UNL     1       6.951   4.392  20.233  1.00  0.00    -0.349 N 
ATOM     29  H4  UNL     1       6.264   4.876  20.812  1.00  0.00     0.167 HD
ENDBRANCH  19  20
ENDBRANCH  17  19
ENDBRANCH   1  17
TORSDOF 6
ENDMDL
MODEL 5
REMARK VINA RESULT: -7.455709555      1.680      2.710
REMARK  6 active torsions:
REMARK  status: ('A' for Active; 'I' for Inactive)
REMARK    1  A    between atoms: N1_2  and  S1_4 
REMARK    2  A    between atoms: S1_4  and  C2_7 
REMARK    3  A    between atoms: C6_12  and  S2_13 
REMARK    4  A    between atoms: S2_13  and  N2_16 
REMARK    5  A    between atoms: N2_16  and  C8_18 
REMARK    6  A    between atoms: C8_18  and  C9_19 
ROOT
HETATM    1  S2  UNL     1       7.227   8.595  20.141  1.00  0.00     0.243 S 
HETATM    2  O3  UNL     1       8.447   9.115  19.419  1.00  0.00    -0.206 OA
HETATM    3  O4  UNL     1       6.056   9.468  19.716  1.00  0.00    -0.206 OA
ENDROOT
BRANCH   1   4
HETATM    4  C6  UNL     1       7.473   8.702  21.867  1.00  0.00     0.077 A 
HETATM    5  C5  UNL     1       6.460   8.396  22.732  1.00  0.00     0.044 A 
HETATM    6  C4  UNL     1       6.607   8.468  24.114  1.00  0.00     0.013 A 
HETATM    7  C3  UNL     1       7.819   8.862  24.640  1.00  0.00     0.044 A 
HETATM    8 BR1  UNL     1       5.117   8.014  25.219  1.00  0.00    -0.051 Br
HETATM    9  C2  UNL     1       8.858   9.177  23.787  1.00  0.00     0.082 A 
HETATM   10  C15 UNL     1       8.675   9.094  22.416  1.00  0.00     0.050 A 
BRANCH   9  11
HETATM   11  S1  UNL     1      10.409   9.681  24.438  1.00  0.00     0.258 S 
HETATM   12  O1  UNL     1      11.489   9.116  23.550  1.00  0.00    -0.201 OA
HETATM   13  O2  UNL     1      10.512  11.166  24.377  1.00  0.00    -0.201 OA
BRANCH  11  14
HETATM   14  N1  UNL     1      10.665   9.104  26.027  1.00  0.00    -0.320 N 
HETATM   15  C1  UNL     1      11.642   8.056  26.058  1.00  0.00     0.159 C 
ATOM     16  H1  UNL     1      10.181   9.461  26.851  1.00  0.00     0.171 HD
ENDBRANCH  11  14
ENDBRANCH   9  11
ENDBRANCH   1   4
BRANCH   1  17
HETATM   17  N2  UNL     1       6.938   7.011  19.609  1.00  0.00    -0.204 NA
HETATM   18  C7  UNL     1       6.254   6.885  18.365  1.00  0.00     0.130 C 
BRANCH  17  19
HETATM   19  C8  UNL     1       8.159   6.254  19.609  1.00  0.00     0.183 C 
BRANCH  19  20
HETATM   20  C9  UNL     1       7.933   4.774  19.705  1.00  0.00     0.096 A 
HETATM   21  N3  UNL     1       8.625   3.911  18.940  1.00  0.00    -0.349 N 
HETATM   22  C10 UNL     1       8.425   2.582  19.025  1.00  0.00     0.008 A 
ATOM     23  H3  UNL     1       9.317   4.271  18.281  1.00  0.00     0.167 HD
HETATM   24  C11 UNL     1       9.170   1.596  18.197  1.00  0.00     0.068 C 
HETATM   25  C12 UNL     1       7.494   2.070  19.908  1.00  0.00     0.049 A 
HETATM   26  C13 UNL     1       6.790   2.943  20.685  1.00  0.00     0.008 A 
HETATM   27  C14 UNL     1       5.772   2.418  21.655  1.00  0.00     0.068 C 
HETATM   28  N4  UNL     1       7.032   4.256  20.558  1.00  0.00    -0.349 N 
ATOM     29  H4  UNL     1       6.501   4.901  21.144  1.00  0.00     0.167 HD
ENDBRANCH  19  20
ENDBRANCH  17  19
ENDBRANCH   1  17
TORSDOF 6
ENDMDL
