MODEL 1
REMARK VINA RESULT: -8.913808467      0.000      0.000
REMARK  6 active torsions:
REMARK  status: ('A' for Active; 'I' for Inactive)
REMARK    1  A    between atoms: C2_2  and  S1_3 
REMARK    2  A    between atoms: S1_3  and  C3_6 
REMARK    3  A    between atoms: C6_11  and  S2_12 
REMARK    4  A    between atoms: S2_12  and  C7_15 
REMARK    5  A    between atoms: C7_15  and  C8_16 
REMARK    6  A    between atoms: C8_16  and  C9_17 
REMARK       I    between atoms: C9_17  and  N2_19 
ROOT
HETATM    1  S2  UNL     1       7.637   9.488  21.262  1.00  0.00     0.177 S 
HETATM    2  O3  UNL     1       6.167   9.475  21.028  1.00  0.00    -0.223 OA
HETATM    3  O4  UNL     1       8.115  10.933  21.260  1.00  0.00    -0.223 OA
ENDROOT
BRANCH   1   4
HETATM    4  C6  UNL     1       7.970   8.787  22.860  1.00  0.00     0.076 A 
HETATM    5  C5  UNL     1       6.995   8.046  23.501  1.00  0.00     0.111 A 
HETATM    6  N1  UNL     1       7.238   7.507  24.721  1.00  0.00    -0.372 N 
HETATM    7  C4  UNL     1       8.446   7.705  25.297  1.00  0.00     0.111 A 
ATOM      8  H1  UNL     1       6.521   6.960  25.198  1.00  0.00     0.164 HD
HETATM    9  C3  UNL     1       9.442   8.440  24.685  1.00  0.00     0.076 A 
HETATM   10  C15 UNL     1       9.207   9.001  23.429  1.00  0.00     0.049 A 
BRANCH   9  11
HETATM   11  S1  UNL     1      10.979   8.677  25.445  1.00  0.00     0.176 S 
HETATM   12  O1  UNL     1      12.122   8.420  24.518  1.00  0.00    -0.223 OA
HETATM   13  O2  UNL     1      11.124  10.092  25.951  1.00  0.00    -0.223 OA
BRANCH  11  14
HETATM   14  C2  UNL     1      11.167   7.586  26.856  1.00  0.00     0.141 C 
HETATM   15  C1  UNL     1      12.631   7.210  27.003  1.00  0.00     0.021 C 
ENDBRANCH  11  14
ENDBRANCH   9  11
ENDBRANCH   1   4
BRANCH   1  16
HETATM   16  C7  UNL     1       8.501   8.597  20.024  1.00  0.00     0.155 C 
BRANCH  16  17
HETATM   17  C8  UNL     1       8.523   7.125  20.130  1.00  0.00     0.118 C 
BRANCH  17  18
HETATM   18  C9  UNL     1       7.423   6.391  19.540  1.00  0.00     0.224 C 
HETATM   19  O5  UNL     1       6.686   6.877  18.659  1.00  0.00    -0.273 OA
HETATM   20  N2  UNL     1       7.134   5.063  19.958  1.00  0.00    -0.312 N 
HETATM   21  C10 UNL     1       7.783   4.082  19.476  1.00  0.00     0.125 A 
ATOM     22  H2  UNL     1       6.401   4.896  20.648  1.00  0.00     0.170 HD
HETATM   23  N3  UNL     1       8.750   4.248  18.570  1.00  0.00    -0.351 N 
HETATM   24  C14 UNL     1       7.507   2.781  19.877  1.00  0.00     0.055 A 
HETATM   25  C11 UNL     1       9.430   3.181  18.069  1.00  0.00     0.090 A 
ATOM     26  H3  UNL     1       8.982   5.188  18.249  1.00  0.00     0.166 HD
HETATM   27  C12 UNL     1       9.169   1.885  18.458  1.00  0.00     0.018 A 
HETATM   28  C13 UNL     1       8.179   1.710  19.385  1.00  0.00     0.024 A 
HETATM   29 BR1  UNL     1       6.130   2.547  21.166  1.00  0.00    -0.047 Br
ENDBRANCH  17  18
ENDBRANCH  16  17
ENDBRANCH   1  16
TORSDOF 6
ENDMDL
MODEL 2
REMARK VINA RESULT: -8.339769738      1.823      2.032
REMARK  6 active torsions:
REMARK  status: ('A' for Active; 'I' for Inactive)
REMARK    1  A    between atoms: C2_2  and  S1_3 
REMARK    2  A    between atoms: S1_3  and  C3_6 
REMARK    3  A    between atoms: C6_11  and  S2_12 
REMARK    4  A    between atoms: S2_12  and  C7_15 
REMARK    5  A    between atoms: C7_15  and  C8_16 
REMARK    6  A    between atoms: C8_16  and  C9_17 
REMARK       I    between atoms: C9_17  and  N2_19 
ROOT
HETATM    1  S2  UNL     1       7.632   9.130  21.688  1.00  0.00     0.177 S 
HETATM    2  O3  UNL     1       6.154   9.040  21.533  1.00  0.00    -0.223 OA
HETATM    3  O4  UNL     1       8.042  10.592  21.576  1.00  0.00    -0.223 OA
ENDROOT
BRANCH   1   4
HETATM    4  C6  UNL     1       8.075   8.542  23.305  1.00  0.00     0.076 A 
HETATM    5  C5  UNL     1       7.146   7.856  24.064  1.00  0.00     0.111 A 
HETATM    6  N1  UNL     1       7.474   7.403  25.299  1.00  0.00    -0.372 N 
HETATM    7  C4  UNL     1       8.720   7.633  25.773  1.00  0.00     0.111 A 
ATOM      8  H1  UNL     1       6.792   6.896  25.864  1.00  0.00     0.164 HD
HETATM    9  C3  UNL     1       9.672   8.315  25.042  1.00  0.00     0.076 A 
HETATM   10  C15 UNL     1       9.350   8.788  23.768  1.00  0.00     0.049 A 
BRANCH   9  11
HETATM   11  S1  UNL     1      11.260   8.595  25.673  1.00  0.00     0.176 S 
HETATM   12  O1  UNL     1      12.326   8.404  24.645  1.00  0.00    -0.223 OA
HETATM   13  O2  UNL     1      11.396  10.003  26.200  1.00  0.00    -0.223 OA
BRANCH  11  14
HETATM   14  C2  UNL     1      11.609   7.481  27.034  1.00  0.00     0.141 C 
HETATM   15  C1  UNL     1      13.112   7.300  27.155  1.00  0.00     0.021 C 
ENDBRANCH  11  14
ENDBRANCH   9  11
ENDBRANCH   1   4
BRANCH   1  16
HETATM   16  C7  UNL     1       8.473   8.203  20.461  1.00  0.00     0.155 C 
BRANCH  16  17
HETATM   17  C8  UNL     1       7.655   7.456  19.487  1.00  0.00     0.118 C 
BRANCH  17  18
HETATM   18  C9  UNL     1       7.354   6.071  19.782  1.00  0.00     0.224 C 
HETATM   19  O5  UNL     1       6.565   5.732  20.687  1.00  0.00    -0.273 OA
HETATM   20  N2  UNL     1       7.966   5.024  19.038  1.00  0.00    -0.312 N 
HETATM   21  C10 UNL     1       7.494   4.677  17.910  1.00  0.00     0.125 A 
ATOM     22  H2  UNL     1       8.788   4.549  19.412  1.00  0.00     0.170 HD
HETATM   23  N3  UNL     1       6.420   5.267  17.379  1.00  0.00    -0.351 N 
HETATM   24  C14 UNL     1       8.084   3.656  17.177  1.00  0.00     0.055 A 
HETATM   25  C11 UNL     1       5.934   4.876  16.169  1.00  0.00     0.090 A 
ATOM     26  H3  UNL     1       5.958   6.020  17.886  1.00  0.00     0.166 HD
HETATM   27  C12 UNL     1       6.509   3.866  15.429  1.00  0.00     0.018 A 
HETATM   28  C13 UNL     1       7.609   3.258  15.970  1.00  0.00     0.024 A 
HETATM   29 BR1  UNL     1       9.611   2.817  17.935  1.00  0.00    -0.047 Br
ENDBRANCH  17  18
ENDBRANCH  16  17
ENDBRANCH   1  16
TORSDOF 6
ENDMDL
MODEL 3
REMARK VINA RESULT: -8.303868980      1.165      1.225
REMARK  6 active torsions:
REMARK  status: ('A' for Active; 'I' for Inactive)
REMARK    1  A    between atoms: C2_2  and  S1_3 
REMARK    2  A    between atoms: S1_3  and  C3_6 
REMARK    3  A    between atoms: C6_11  and  S2_12 
REMARK    4  A    between atoms: S2_12  and  C7_15 
REMARK    5  A    between atoms: C7_15  and  C8_16 
REMARK    6  A    between atoms: C8_16  and  C9_17 
REMARK       I    between atoms: C9_17  and  N2_19 
ROOT
HETATM    1  S2  UNL     1       7.983   8.981  21.082  1.00  0.00     0.177 S 
HETATM    2  O3  UNL     1       6.764   9.829  20.983  1.00  0.00    -0.223 OA
HETATM    3  O4  UNL     1       9.185   9.808  20.649  1.00  0.00    -0.223 OA
ENDROOT
BRANCH   1   4
HETATM    4  C6  UNL     1       8.210   8.498  22.777  1.00  0.00     0.076 A 
HETATM    5  C5  UNL     1       7.174   7.892  23.462  1.00  0.00     0.111 A 
HETATM    6  N1  UNL     1       7.337   7.520  24.756  1.00  0.00    -0.372 N 
HETATM    7  C4  UNL     1       8.525   7.752  25.360  1.00  0.00     0.111 A 
ATOM      8  H1  UNL     1       6.575   7.072  25.266  1.00  0.00     0.164 HD
HETATM    9  C3  UNL     1       9.579   8.355  24.705  1.00  0.00     0.076 A 
HETATM   10  C15 UNL     1       9.427   8.743  23.373  1.00  0.00     0.049 A 
BRANCH   9  11
HETATM   11  S1  UNL     1      11.089   8.639  25.505  1.00  0.00     0.176 S 
HETATM   12  O1  UNL     1      12.262   8.410  24.609  1.00  0.00    -0.223 OA
HETATM   13  O2  UNL     1      11.181  10.059  26.007  1.00  0.00    -0.223 OA
BRANCH  11  14
HETATM   14  C2  UNL     1      11.270   7.559  26.925  1.00  0.00     0.141 C 
HETATM   15  C1  UNL     1      12.738   7.212  27.102  1.00  0.00     0.021 C 
ENDBRANCH  11  14
ENDBRANCH   9  11
ENDBRANCH   1   4
BRANCH   1  16
HETATM   16  C7  UNL     1       7.870   7.558  20.063  1.00  0.00     0.155 C 
BRANCH  16  17
HETATM   17  C8  UNL     1       6.524   7.017  19.791  1.00  0.00     0.118 C 
BRANCH  17  18
HETATM   18  C9  UNL     1       6.275   6.459  18.478  1.00  0.00     0.224 C 
HETATM   19  O5  UNL     1       6.315   7.146  17.437  1.00  0.00    -0.273 OA
HETATM   20  N2  UNL     1       5.964   5.080  18.325  1.00  0.00    -0.312 N 
HETATM   21  C10 UNL     1       6.891   4.211  18.298  1.00  0.00     0.125 A 
ATOM     22  H2  UNL     1       4.991   4.786  18.237  1.00  0.00     0.170 HD
HETATM   23  N3  UNL     1       8.179   4.545  18.408  1.00  0.00    -0.351 N 
HETATM   24  C14 UNL     1       6.596   2.862  18.149  1.00  0.00     0.055 A 
HETATM   25  C11 UNL     1       9.154   3.595  18.375  1.00  0.00     0.090 A 
ATOM     26  H3  UNL     1       8.437   5.525  18.518  1.00  0.00     0.166 HD
HETATM   27  C12 UNL     1       8.878   2.253  18.229  1.00  0.00     0.018 A 
HETATM   28  C13 UNL     1       7.559   1.906  18.115  1.00  0.00     0.024 A 
HETATM   29 BR1  UNL     1       4.763   2.389  17.991  1.00  0.00    -0.047 Br
ENDBRANCH  17  18
ENDBRANCH  16  17
ENDBRANCH   1  16
TORSDOF 6
ENDMDL
MODEL 4
REMARK VINA RESULT: -8.148614044      1.737      1.932
REMARK  6 active torsions:
REMARK  status: ('A' for Active; 'I' for Inactive)
REMARK    1  A    between atoms: C2_2  and  S1_3 
REMARK    2  A    between atoms: S1_3  and  C3_6 
REMARK    3  A    between atoms: C6_11  and  S2_12 
REMARK    4  A    between atoms: S2_12  and  C7_15 
REMARK    5  A    between atoms: C7_15  and  C8_16 
REMARK    6  A    between atoms: C8_16  and  C9_17 
REMARK       I    between atoms: C9_17  and  N2_19 
ROOT
HETATM    1  S2  UNL     1       7.783   9.075  20.934  1.00  0.00     0.177 S 
HETATM    2  O3  UNL     1       6.776  10.139  20.669  1.00  0.00    -0.223 OA
HETATM    3  O4  UNL     1       9.124   9.527  20.373  1.00  0.00    -0.223 OA
ENDROOT
BRANCH   1   4
HETATM    4  C6  UNL     1       7.947   8.866  22.691  1.00  0.00     0.076 A 
HETATM    5  C5  UNL     1       6.821   8.671  23.467  1.00  0.00     0.111 A 
HETATM    6  N1  UNL     1       6.935   8.511  24.809  1.00  0.00    -0.372 N 
HETATM    7  C4  UNL     1       8.165   8.545  25.370  1.00  0.00     0.111 A 
ATOM      8  H1  UNL     1       6.106   8.368  25.386  1.00  0.00     0.164 HD
HETATM    9  C3  UNL     1       9.311   8.737  24.625  1.00  0.00     0.076 A 
HETATM   10  C15 UNL     1       9.209   8.903  23.243  1.00  0.00     0.049 A 
BRANCH   9  11
HETATM   11  S1  UNL     1      10.873   8.775  25.371  1.00  0.00     0.176 S 
HETATM   12  O1  UNL     1      11.976   8.506  24.402  1.00  0.00    -0.223 OA
HETATM   13  O2  UNL     1      11.145  10.122  25.995  1.00  0.00    -0.223 OA
BRANCH  11  14
HETATM   14  C2  UNL     1      10.984   7.550  26.676  1.00  0.00     0.141 C 
HETATM   15  C1  UNL     1      12.447   7.249  26.952  1.00  0.00     0.021 C 
ENDBRANCH  11  14
ENDBRANCH   9  11
ENDBRANCH   1   4
BRANCH   1  16
HETATM   16  C7  UNL     1       7.333   7.553  20.188  1.00  0.00     0.155 C 
BRANCH  16  17
HETATM   17  C8  UNL     1       8.104   6.352  20.563  1.00  0.00     0.118 C 
BRANCH  17  18
HETATM   18  C9  UNL     1       7.440   5.069  20.471  1.00  0.00     0.224 C 
HETATM   19  O5  UNL     1       6.404   4.800  21.113  1.00  0.00    -0.273 OA
HETATM   20  N2  UNL     1       7.959   4.045  19.632  1.00  0.00    -0.312 N 
HETATM   21  C10 UNL     1       7.702   4.041  18.387  1.00  0.00     0.125 A 
ATOM     22  H2  UNL     1       8.542   3.308  20.032  1.00  0.00     0.170 HD
HETATM   23  N3  UNL     1       6.944   4.982  17.818  1.00  0.00    -0.351 N 
HETATM   24  C14 UNL     1       8.204   3.045  17.561  1.00  0.00     0.055 A 
HETATM   25  C11 UNL     1       6.683   4.955  16.482  1.00  0.00     0.090 A 
ATOM     26  H3  UNL     1       6.556   5.730  18.391  1.00  0.00     0.166 HD
HETATM   27  C12 UNL     1       7.175   3.975  15.649  1.00  0.00     0.018 A 
HETATM   28  C13 UNL     1       7.951   3.008  16.228  1.00  0.00     0.024 A 
HETATM   29 BR1  UNL     1       9.281   1.707  18.374  1.00  0.00    -0.047 Br
ENDBRANCH  17  18
ENDBRANCH  16  17
ENDBRANCH   1  16
TORSDOF 6
ENDMDL
MODEL 5
REMARK VINA RESULT: -8.046527166      3.323      7.164
REMARK  6 active torsions:
REMARK  status: ('A' for Active; 'I' for Inactive)
REMARK    1  A    between atoms: C2_2  and  S1_3 
REMARK    2  A    between atoms: S1_3  and  C3_6 
REMARK    3  A    between atoms: C6_11  and  S2_12 
REMARK    4  A    between atoms: S2_12  and  C7_15 
REMARK    5  A    between atoms: C7_15  and  C8_16 
REMARK    6  A    between atoms: C8_16  and  C9_17 
REMARK       I    between atoms: C9_17  and  N2_19 
ROOT
HETATM    1  S2  UNL     1       6.004   7.921  19.360  1.00  0.00     0.177 S 
HETATM    2  O3  UNL     1       5.097   7.845  18.182  1.00  0.00    -0.223 OA
HETATM    3  O4  UNL     1       5.182   8.321  20.578  1.00  0.00    -0.223 OA
ENDROOT
BRANCH   1   4
HETATM    4  C6  UNL     1       6.700   6.313  19.652  1.00  0.00     0.076 A 
HETATM    5  C5  UNL     1       6.895   5.875  20.948  1.00  0.00     0.111 A 
HETATM    6  N1  UNL     1       7.427   4.649  21.182  1.00  0.00    -0.372 N 
HETATM    7  C4  UNL     1       7.760   3.867  20.129  1.00  0.00     0.111 A 
ATOM      8  H1  UNL     1       7.573   4.321  22.137  1.00  0.00     0.164 HD
HETATM    9  C3  UNL     1       7.578   4.274  18.822  1.00  0.00     0.076 A 
HETATM   10  C15 UNL     1       7.033   5.533  18.566  1.00  0.00     0.049 A 
BRANCH   9  11
HETATM   11  S1  UNL     1       8.014   3.252  17.495  1.00  0.00     0.176 S 
HETATM   12  O1  UNL     1       7.140   2.045  17.391  1.00  0.00    -0.223 OA
HETATM   13  O2  UNL     1       7.912   3.991  16.182  1.00  0.00    -0.223 OA
BRANCH  11  14
HETATM   14  C2  UNL     1       9.708   2.685  17.657  1.00  0.00     0.141 C 
HETATM   15  C1  UNL     1       9.713   1.313  18.309  1.00  0.00     0.021 C 
ENDBRANCH  11  14
ENDBRANCH   9  11
ENDBRANCH   1   4
BRANCH   1  16
HETATM   16  C7  UNL     1       7.284   9.095  19.121  1.00  0.00     0.155 C 
BRANCH  16  17
HETATM   17  C8  UNL     1       8.453   9.025  20.018  1.00  0.00     0.118 C 
BRANCH  17  18
HETATM   18  C9  UNL     1       8.531   9.984  21.100  1.00  0.00     0.224 C 
HETATM   19  O5  UNL     1       8.145  11.164  20.980  1.00  0.00    -0.273 OA
HETATM   20  N2  UNL     1       9.069   9.609  22.361  1.00  0.00    -0.312 N 
HETATM   21  C10 UNL     1       8.345   9.008  23.216  1.00  0.00     0.125 A 
ATOM     22  H2  UNL     1      10.042   9.824  22.583  1.00  0.00     0.170 HD
HETATM   23  N3  UNL     1       7.067   8.706  22.974  1.00  0.00    -0.351 N 
HETATM   24  C14 UNL     1       8.861   8.638  24.451  1.00  0.00     0.055 A 
HETATM   25  C11 UNL     1       6.312   8.062  23.906  1.00  0.00     0.090 A 
ATOM     26  H3  UNL     1       6.650   8.961  22.079  1.00  0.00     0.166 HD
HETATM   27  C12 UNL     1       6.810   7.687  25.135  1.00  0.00     0.018 A 
HETATM   28  C13 UNL     1       8.119   7.996  25.387  1.00  0.00     0.024 A 
HETATM   29 BR1  UNL     1      10.680   9.070  24.793  1.00  0.00    -0.047 Br
ENDBRANCH  17  18
ENDBRANCH  16  17
ENDBRANCH   1  16
TORSDOF 6
ENDMDL
