MODEL 1
REMARK VINA RESULT: -9.334249616      0.000      0.000
REMARK  7 active torsions:
REMARK  status: ('A' for Active; 'I' for Inactive)
REMARK    1  A    between atoms: O1_2  and  C2_3 
REMARK    2  A    between atoms: C2_3  and  C3_4 
REMARK    3  A    between atoms: C3_4  and  C4_5 
REMARK    4  A    between atoms: C4_5  and  O2_6 
REMARK    5  A    between atoms: O2_6  and  C5_7 
REMARK    6  A    between atoms: C11_20  and  C12_21 
REMARK    7  A    between atoms: C12_21  and  C13_22 
ROOT
HETATM    1  C5  UNL     1       8.801   8.395  20.730  1.00  0.00     0.167 A 
HETATM    2  N1  UNL     1       9.631   8.941  21.678  1.00  0.00    -0.320 N 
ATOM      3  H1  UNL     1      10.361   9.583  21.373  1.00  0.00     0.169 HD
HETATM    4  C6  UNL     1       9.527   8.673  22.966  1.00  0.00     0.137 A 
HETATM    5  N2  UNL     1      10.392   9.262  23.811  1.00  0.00    -0.308 N 
ATOM      6  H2  UNL     1      11.100   9.893  23.439  1.00  0.00     0.170 HD
HETATM    7  C7  UNL     1      10.345   9.037  25.128  1.00  0.00     0.246 A 
HETATM    8  O3  UNL     1      11.164   9.592  25.931  1.00  0.00    -0.268 OA
HETATM    9  C8  UNL     1       9.369   8.169  25.602  1.00  0.00     0.077 A 
HETATM   10  C9  UNL     1       8.462   7.550  24.738  1.00  0.00     0.039 A 
HETATM   11  C10 UNL     1       8.545   7.809  23.387  1.00  0.00     0.077 A 
HETATM   12  N3  UNL     1       7.719   7.260  22.489  1.00  0.00    -0.353 N 
ATOM     13  H3  UNL     1       6.992   6.620  22.809  1.00  0.00     0.166 HD
HETATM   14  C11 UNL     1       7.824   7.533  21.152  1.00  0.00     0.066 A 
ENDROOT
BRANCH  14  15
HETATM   15  C12 UNL     1       6.917   6.831  20.244  1.00  0.00     0.106 C 
BRANCH  15  16
HETATM   16  C13 UNL     1       6.481   5.468  20.679  1.00  0.00     0.028 A 
HETATM   17  C14 UNL     1       7.040   4.317  20.229  1.00  0.00     0.004 A 
HETATM   18  C15 UNL     1       8.065   4.115  19.330  1.00  0.00     0.033 A 
HETATM   19  C19 UNL     1       6.457   3.229  20.793  1.00  0.00     0.046 A 
HETATM   20  C16 UNL     1       8.479   2.825  19.019  1.00  0.00     0.011 A 
HETATM   21 BR1  UNL     1       9.895   2.573  17.776  1.00  0.00    -0.051 Br
HETATM   22  C17 UNL     1       7.889   1.722  19.589  1.00  0.00     0.021 A 
HETATM   23  C18 UNL     1       6.869   1.916  20.484  1.00  0.00     0.032 A 
HETATM   24  N4  UNL     1       5.527   3.599  21.606  1.00  0.00    -0.322 N 
HETATM   25  C20 UNL     1       5.459   5.045  21.607  1.00  0.00     0.253 A 
ATOM     26  H4  UNL     1       4.937   2.976  22.158  1.00  0.00     0.169 HD
HETATM   27  O4  UNL     1       4.663   5.706  22.287  1.00  0.00    -0.268 OA
ENDBRANCH  15  16
ENDBRANCH  14  15
BRANCH   1  28
HETATM   28  O2  UNL     1       8.985   8.747  19.399  1.00  0.00    -0.334 OA
BRANCH  28  29
HETATM   29  C4  UNL     1       8.171   9.746  18.845  1.00  0.00     0.179 C 
BRANCH  29  30
HETATM   30  C3  UNL     1       8.086  11.011  19.617  1.00  0.00     0.053 C 
BRANCH  30  31
HETATM   31  C2  UNL     1       6.828  11.739  19.247  1.00  0.00     0.169 C 
BRANCH  31  32
HETATM   32  O1  UNL     1       6.794  13.050  19.658  1.00  0.00    -0.396 OA
HETATM   33  C1  UNL     1       7.824  13.411  20.504  1.00  0.00     0.201 C 
ENDBRANCH  31  32
ENDBRANCH  30  31
ENDBRANCH  29  30
ENDBRANCH  28  29
ENDBRANCH   1  28
TORSDOF 7
ENDMDL
MODEL 2
REMARK VINA RESULT: -9.143798050      1.275      1.656
REMARK  7 active torsions:
REMARK  status: ('A' for Active; 'I' for Inactive)
REMARK    1  A    between atoms: O1_2  and  C2_3 
REMARK    2  A    between atoms: C2_3  and  C3_4 
REMARK    3  A    between atoms: C3_4  and  C4_5 
REMARK    4  A    between atoms: C4_5  and  O2_6 
REMARK    5  A    between atoms: O2_6  and  C5_7 
REMARK    6  A    between atoms: C11_20  and  C12_21 
REMARK    7  A    between atoms: C12_21  and  C13_22 
ROOT
HETATM    1  C5  UNL     1       8.775   8.381  20.699  1.00  0.00     0.167 A 
HETATM    2  N1  UNL     1       9.603   8.942  21.639  1.00  0.00    -0.320 N 
ATOM      3  H1  UNL     1      10.324   9.591  21.326  1.00  0.00     0.169 HD
HETATM    4  C6  UNL     1       9.510   8.679  22.929  1.00  0.00     0.137 A 
HETATM    5  N2  UNL     1      10.373   9.283  23.766  1.00  0.00    -0.308 N 
ATOM      6  H2  UNL     1      11.071   9.921  23.386  1.00  0.00     0.170 HD
HETATM    7  C7  UNL     1      10.336   9.064  25.084  1.00  0.00     0.246 A 
HETATM    8  O3  UNL     1      11.152   9.633  25.880  1.00  0.00    -0.268 OA
HETATM    9  C8  UNL     1       9.373   8.187  25.568  1.00  0.00     0.077 A 
HETATM   10  C9  UNL     1       8.469   7.552  24.713  1.00  0.00     0.039 A 
HETATM   11  C10 UNL     1       8.541   7.806  23.360  1.00  0.00     0.077 A 
HETATM   12  N3  UNL     1       7.717   7.241  22.470  1.00  0.00    -0.353 N 
ATOM     13  H3  UNL     1       7.000   6.595  22.797  1.00  0.00     0.166 HD
HETATM   14  C11 UNL     1       7.811   7.509  21.131  1.00  0.00     0.066 A 
ENDROOT
BRANCH  14  15
HETATM   15  C12 UNL     1       6.907   6.791  20.231  1.00  0.00     0.106 C 
BRANCH  15  16
HETATM   16  C13 UNL     1       6.491   5.426  20.676  1.00  0.00     0.028 A 
HETATM   17  C14 UNL     1       7.059   4.279  20.226  1.00  0.00     0.004 A 
HETATM   18  C15 UNL     1       8.079   4.085  19.320  1.00  0.00     0.033 A 
HETATM   19  C19 UNL     1       6.493   3.187  20.799  1.00  0.00     0.046 A 
HETATM   20  C16 UNL     1       8.506   2.799  19.011  1.00  0.00     0.011 A 
HETATM   21 BR1  UNL     1       9.914   2.557  17.758  1.00  0.00    -0.051 Br
HETATM   22  C17 UNL     1       7.932   1.691  19.591  1.00  0.00     0.021 A 
HETATM   23  C18 UNL     1       6.918   1.878  20.493  1.00  0.00     0.032 A 
HETATM   24  N4  UNL     1       5.565   3.550  21.619  1.00  0.00    -0.322 N 
HETATM   25  C20 UNL     1       5.481   4.995  21.614  1.00  0.00     0.253 A 
ATOM     26  H4  UNL     1       4.987   2.923  22.178  1.00  0.00     0.169 HD
HETATM   27  O4  UNL     1       4.683   5.650  22.298  1.00  0.00    -0.268 OA
ENDBRANCH  15  16
ENDBRANCH  14  15
BRANCH   1  28
HETATM   28  O2  UNL     1       8.947   8.728  19.365  1.00  0.00    -0.334 OA
BRANCH  28  29
HETATM   29  C4  UNL     1       8.222   9.814  18.850  1.00  0.00     0.179 C 
BRANCH  29  30
HETATM   30  C3  UNL     1       7.080   9.466  17.968  1.00  0.00     0.053 C 
BRANCH  30  31
HETATM   31  C2  UNL     1       6.984  10.469  16.857  1.00  0.00     0.169 C 
BRANCH  31  32
HETATM   32  O1  UNL     1       7.230   9.952  15.608  1.00  0.00    -0.396 OA
HETATM   33  C1  UNL     1       7.895  10.811  14.754  1.00  0.00     0.201 C 
ENDBRANCH  31  32
ENDBRANCH  30  31
ENDBRANCH  29  30
ENDBRANCH  28  29
ENDBRANCH   1  28
TORSDOF 7
ENDMDL
MODEL 3
REMARK VINA RESULT: -8.741392740      3.390      5.989
REMARK  7 active torsions:
REMARK  status: ('A' for Active; 'I' for Inactive)
REMARK    1  A    between atoms: O1_2  and  C2_3 
REMARK    2  A    between atoms: C2_3  and  C3_4 
REMARK    3  A    between atoms: C3_4  and  C4_5 
REMARK    4  A    between atoms: C4_5  and  O2_6 
REMARK    5  A    between atoms: O2_6  and  C5_7 
REMARK    6  A    between atoms: C11_20  and  C12_21 
REMARK    7  A    between atoms: C12_21  and  C13_22 
ROOT
HETATM    1  C5  UNL     1       7.232   9.183  23.554  1.00  0.00     0.167 A 
HETATM    2  N1  UNL     1       7.623   8.382  24.596  1.00  0.00    -0.320 N 
ATOM      3  H1  UNL     1       6.907   7.874  25.115  1.00  0.00     0.169 HD
HETATM    4  C6  UNL     1       8.884   8.236  24.960  1.00  0.00     0.137 A 
HETATM    5  N2  UNL     1       9.159   7.425  25.997  1.00  0.00    -0.308 N 
ATOM      6  H2  UNL     1       8.393   6.949  26.473  1.00  0.00     0.170 HD
HETATM    7  C7  UNL     1      10.412   7.231  26.419  1.00  0.00     0.246 A 
HETATM    8  O3  UNL     1      10.676   6.465  27.402  1.00  0.00    -0.268 OA
HETATM    9  C8  UNL     1      11.431   7.898  25.750  1.00  0.00     0.077 A 
HETATM   10  C9  UNL     1      11.163   8.743  24.670  1.00  0.00     0.039 A 
HETATM   11  C10 UNL     1       9.856   8.915  24.267  1.00  0.00     0.077 A 
HETATM   12  N3  UNL     1       9.509   9.706  23.244  1.00  0.00    -0.353 N 
ATOM     13  H3  UNL     1      10.236  10.206  22.734  1.00  0.00     0.166 HD
HETATM   14  C11 UNL     1       8.203   9.861  22.865  1.00  0.00     0.066 A 
ENDROOT
BRANCH  14  15
HETATM   15  C12 UNL     1       7.920  10.799  21.779  1.00  0.00     0.106 C 
BRANCH  15  16
HETATM   16  C13 UNL     1       7.908  10.219  20.401  1.00  0.00     0.028 A 
HETATM   17  C14 UNL     1       7.183  10.730  19.373  1.00  0.00     0.004 A 
HETATM   18  C15 UNL     1       6.340  11.819  19.331  1.00  0.00     0.033 A 
HETATM   19  C19 UNL     1       7.363  10.012  18.235  1.00  0.00     0.046 A 
HETATM   20  C16 UNL     1       5.698  12.161  18.147  1.00  0.00     0.011 A 
HETATM   21 BR1  UNL     1       4.540  13.668  18.114  1.00  0.00    -0.051 Br
HETATM   22  C17 UNL     1       5.879  11.435  16.993  1.00  0.00     0.021 A 
HETATM   23  C18 UNL     1       6.716  10.351  17.029  1.00  0.00     0.032 A 
HETATM   24  N4  UNL     1       8.180   9.038  18.452  1.00  0.00    -0.322 N 
HETATM   25  C20 UNL     1       8.597   9.082  19.838  1.00  0.00     0.253 A 
ATOM     26  H4  UNL     1       8.483   8.351  17.762  1.00  0.00     0.169 HD
HETATM   27  O4  UNL     1       9.381   8.276  20.358  1.00  0.00    -0.268 OA
ENDBRANCH  15  16
ENDBRANCH  14  15
BRANCH   1  28
HETATM   28  O2  UNL     1       5.880   9.263  23.243  1.00  0.00    -0.334 OA
BRANCH  28  29
HETATM   29  C4  UNL     1       5.229   8.118  22.759  1.00  0.00     0.179 C 
BRANCH  29  30
HETATM   30  C3  UNL     1       5.223   7.954  21.284  1.00  0.00     0.053 C 
BRANCH  30  31
HETATM   31  C2  UNL     1       6.004   6.729  20.914  1.00  0.00     0.169 C 
BRANCH  31  32
HETATM   32  O1  UNL     1       6.292   6.626  19.574  1.00  0.00    -0.396 OA
HETATM   33  C1  UNL     1       7.197   5.631  19.258  1.00  0.00     0.201 C 
ENDBRANCH  31  32
ENDBRANCH  30  31
ENDBRANCH  29  30
ENDBRANCH  28  29
ENDBRANCH   1  28
TORSDOF 7
ENDMDL
MODEL 4
REMARK VINA RESULT: -8.731438044      3.752      6.247
REMARK  7 active torsions:
REMARK  status: ('A' for Active; 'I' for Inactive)
REMARK    1  A    between atoms: O1_2  and  C2_3 
REMARK    2  A    between atoms: C2_3  and  C3_4 
REMARK    3  A    between atoms: C3_4  and  C4_5 
REMARK    4  A    between atoms: C4_5  and  O2_6 
REMARK    5  A    between atoms: O2_6  and  C5_7 
REMARK    6  A    between atoms: C11_20  and  C12_21 
REMARK    7  A    between atoms: C12_21  and  C13_22 
ROOT
HETATM    1  C5  UNL     1       7.188   9.039  23.669  1.00  0.00     0.167 A 
HETATM    2  N1  UNL     1       7.661   8.271  24.703  1.00  0.00    -0.320 N 
ATOM      3  H1  UNL     1       6.992   7.745  25.264  1.00  0.00     0.169 HD
HETATM    4  C6  UNL     1       8.943   8.181  25.006  1.00  0.00     0.137 A 
HETATM    5  N2  UNL     1       9.300   7.399  26.040  1.00  0.00    -0.308 N 
ATOM      6  H2  UNL     1       8.578   6.901  26.560  1.00  0.00     0.170 HD
HETATM    7  C7  UNL     1      10.579   7.261  26.403  1.00  0.00     0.246 A 
HETATM    8  O3  UNL     1      10.921   6.522  27.383  1.00  0.00    -0.268 OA
HETATM    9  C8  UNL     1      11.537   7.955  25.674  1.00  0.00     0.077 A 
HETATM   10  C9  UNL     1      11.183   8.771  24.596  1.00  0.00     0.039 A 
HETATM   11  C10 UNL     1       9.852   8.885  24.255  1.00  0.00     0.077 A 
HETATM   12  N3  UNL     1       9.425   9.645  23.240  1.00  0.00    -0.353 N 
ATOM     13  H3  UNL     1      10.106  10.164  22.687  1.00  0.00     0.166 HD
HETATM   14  C11 UNL     1       8.097   9.742  22.924  1.00  0.00     0.066 A 
ENDROOT
BRANCH  14  15
HETATM   15  C12 UNL     1       7.724  10.650  21.838  1.00  0.00     0.106 C 
BRANCH  15  16
HETATM   16  C13 UNL     1       7.815  10.089  20.456  1.00  0.00     0.028 A 
HETATM   17  C14 UNL     1       7.163  10.609  19.385  1.00  0.00     0.004 A 
HETATM   18  C15 UNL     1       6.317  11.693  19.296  1.00  0.00     0.033 A 
HETATM   19  C19 UNL     1       7.428   9.907  18.254  1.00  0.00     0.046 A 
HETATM   20  C16 UNL     1       5.760  12.048  18.074  1.00  0.00     0.011 A 
HETATM   21 BR1  UNL     1       4.597  13.549  17.977  1.00  0.00    -0.051 Br
HETATM   22  C17 UNL     1       6.029  11.338  16.927  1.00  0.00     0.021 A 
HETATM   23  C18 UNL     1       6.868  10.258  17.009  1.00  0.00     0.032 A 
HETATM   24  N4  UNL     1       8.234   8.935  18.517  1.00  0.00    -0.322 N 
HETATM   25  C20 UNL     1       8.550   8.963  19.929  1.00  0.00     0.253 A 
ATOM     26  H4  UNL     1       8.591   8.259  17.842  1.00  0.00     0.169 HD
HETATM   27  O4  UNL     1       9.300   8.155  20.494  1.00  0.00    -0.268 OA
ENDBRANCH  15  16
ENDBRANCH  14  15
BRANCH   1  28
HETATM   28  O2  UNL     1       5.821   9.062  23.424  1.00  0.00    -0.334 OA
BRANCH  28  29
HETATM   29  C4  UNL     1       4.943   9.219  24.507  1.00  0.00     0.179 C 
BRANCH  29  30
HETATM   30  C3  UNL     1       4.140   8.023  24.867  1.00  0.00     0.053 C 
BRANCH  30  31
HETATM   31  C2  UNL     1       3.876   7.210  23.635  1.00  0.00     0.169 C 
BRANCH  31  32
HETATM   32  O1  UNL     1       4.552   6.015  23.592  1.00  0.00    -0.396 OA
HETATM   33  C1  UNL     1       4.595   5.426  22.343  1.00  0.00     0.201 C 
ENDBRANCH  31  32
ENDBRANCH  30  31
ENDBRANCH  29  30
ENDBRANCH  28  29
ENDBRANCH   1  28
TORSDOF 7
ENDMDL
MODEL 5
REMARK VINA RESULT: -8.677128835      1.708      4.924
REMARK  7 active torsions:
REMARK  status: ('A' for Active; 'I' for Inactive)
REMARK    1  A    between atoms: O1_2  and  C2_3 
REMARK    2  A    between atoms: C2_3  and  C3_4 
REMARK    3  A    between atoms: C3_4  and  C4_5 
REMARK    4  A    between atoms: C4_5  and  O2_6 
REMARK    5  A    between atoms: O2_6  and  C5_7 
REMARK    6  A    between atoms: C11_20  and  C12_21 
REMARK    7  A    between atoms: C12_21  and  C13_22 
ROOT
HETATM    1  C5  UNL     1       8.735   9.185  20.835  1.00  0.00     0.167 A 
HETATM    2  N1  UNL     1       8.236  10.461  20.915  1.00  0.00    -0.320 N 
ATOM      3  H1  UNL     1       8.526  11.047  21.697  1.00  0.00     0.169 HD
HETATM    4  C6  UNL     1       7.399  10.965  20.027  1.00  0.00     0.137 A 
HETATM    5  N2  UNL     1       6.970  12.227  20.201  1.00  0.00    -0.308 N 
ATOM      6  H2  UNL     1       7.299  12.759  21.006  1.00  0.00     0.170 HD
HETATM    7  C7  UNL     1       6.122  12.801  19.342  1.00  0.00     0.246 A 
HETATM    8  O3  UNL     1       5.713  13.997  19.503  1.00  0.00    -0.268 OA
HETATM    9  C8  UNL     1       5.692  12.048  18.256  1.00  0.00     0.077 A 
HETATM   10  C9  UNL     1       6.128  10.736  18.060  1.00  0.00     0.039 A 
HETATM   11  C10 UNL     1       7.004  10.181  18.970  1.00  0.00     0.077 A 
HETATM   12  N3  UNL     1       7.471   8.932  18.862  1.00  0.00    -0.353 N 
ATOM     13  H3  UNL     1       7.173   8.358  18.074  1.00  0.00     0.166 HD
HETATM   14  C11 UNL     1       8.338   8.406  19.781  1.00  0.00     0.066 A 
ENDROOT
BRANCH  14  15
HETATM   15  C12 UNL     1       8.739   7.009  19.610  1.00  0.00     0.106 C 
BRANCH  15  16
HETATM   16  C13 UNL     1       7.765   5.985  20.100  1.00  0.00     0.028 A 
HETATM   17  C14 UNL     1       7.851   4.662  19.809  1.00  0.00     0.004 A 
HETATM   18  C15 UNL     1       8.774   3.973  19.053  1.00  0.00     0.033 A 
HETATM   19  C19 UNL     1       6.842   3.961  20.387  1.00  0.00     0.046 A 
HETATM   20  C16 UNL     1       8.662   2.597  18.895  1.00  0.00     0.011 A 
HETATM   21 BR1  UNL     1       9.948   1.669  17.847  1.00  0.00    -0.051 Br
HETATM   22  C17 UNL     1       7.641   1.885  19.480  1.00  0.00     0.021 A 
HETATM   23  C18 UNL     1       6.720   2.565  20.233  1.00  0.00     0.032 A 
HETATM   24  N4  UNL     1       6.079   4.757  21.057  1.00  0.00    -0.322 N 
HETATM   25  C20 UNL     1       6.593   6.104  20.935  1.00  0.00     0.253 A 
ATOM     26  H4  UNL     1       5.251   4.482  21.585  1.00  0.00     0.169 HD
HETATM   27  O4  UNL     1       6.079   7.099  21.464  1.00  0.00    -0.268 OA
ENDBRANCH  15  16
ENDBRANCH  14  15
BRANCH   1  28
HETATM   28  O2  UNL     1       9.618   8.750  21.814  1.00  0.00    -0.334 OA
BRANCH  28  29
HETATM   29  C4  UNL     1       9.110   8.393  23.072  1.00  0.00     0.179 C 
BRANCH  29  30
HETATM   30  C3  UNL     1       9.596   9.203  24.218  1.00  0.00     0.053 C 
BRANCH  30  31
HETATM   31  C2  UNL     1      10.565   8.392  25.027  1.00  0.00     0.169 C 
BRANCH  31  32
HETATM   32  O1  UNL     1       9.995   7.333  25.692  1.00  0.00    -0.396 OA
HETATM   33  C1  UNL     1      10.646   6.972  26.856  1.00  0.00     0.201 C 
ENDBRANCH  31  32
ENDBRANCH  30  31
ENDBRANCH  29  30
ENDBRANCH  28  29
ENDBRANCH   1  28
TORSDOF 7
ENDMDL
