MODEL 1
REMARK VINA RESULT: -7.648687165      0.000      0.000
REMARK  9 active torsions:
REMARK  status: ('A' for Active; 'I' for Inactive)
REMARK    1  A    between atoms: C2_2  and  C4_4 
REMARK    2  A    between atoms: C4_4  and  C5_5 
REMARK    3  A    between atoms: C4_4  and  N6_32 
REMARK    4  A    between atoms: C5_5  and  C6_6 
REMARK    5  A    between atoms: C5_5  and  N1_9 
REMARK    6  A    between atoms: C11_15  and  N3_16 
REMARK    7  A    between atoms: N3_16  and  C12_18 
REMARK    8  A    between atoms: C15_21  and  S1_22 
REMARK    9  A    between atoms: S1_22  and  N4_25 
ROOT
HETATM    1  N1  UNL     1       6.298   3.923  18.057  1.00  0.00    -0.248 N 
HETATM    2  C9  UNL     1       5.048   4.065  17.534  1.00  0.00     0.160 A 
HETATM    3  C10 UNL     1       4.487   5.270  17.200  1.00  0.00     0.136 A 
HETATM    4 CL1  UNL     1       2.855   5.376  16.522  1.00  0.00    -0.062 Cl
HETATM    5  N2  UNL     1       5.215   6.374  17.402  1.00  0.00    -0.178 N 
ATOM      6  H2  UNL     1       4.845   7.296  17.171  1.00  0.00     0.185 HD
HETATM    7  C11 UNL     1       6.442   6.235  17.916  1.00  0.00     0.699 A 
HETATM    8  N5  UNL     1       6.978   5.020  18.241  1.00  0.00    -0.125 N 
ATOM      9  H5  UNL     1       7.919   4.971  18.632  1.00  0.00     0.206 HD
ENDROOT
BRANCH   7  10
HETATM   10  N3  UNL     1       7.143   7.309  18.111  1.00  0.00    -0.190 N 
ATOM     11  H3  UNL     1       7.457   7.846  17.302  1.00  0.00     0.184 HD
BRANCH  10  12
HETATM   12  C12 UNL     1       7.484   7.755  19.394  1.00  0.00     0.049 A 
HETATM   13  C13 UNL     1       8.824   7.964  19.711  1.00  0.00     0.031 A 
HETATM   14  C14 UNL     1       9.161   8.405  20.974  1.00  0.00     0.027 A 
HETATM   15  C15 UNL     1       8.231   8.656  21.963  1.00  0.00     0.074 A 
HETATM   16  C18 UNL     1       6.894   8.446  21.641  1.00  0.00     0.027 A 
HETATM   17  C19 UNL     1       6.546   8.006  20.382  1.00  0.00     0.031 A 
BRANCH  15  18
HETATM   18  S1  UNL     1       8.683   9.212  23.552  1.00  0.00     0.242 S 
HETATM   19  O1  UNL     1       7.442   9.324  24.415  1.00  0.00    -0.206 OA
HETATM   20  O2  UNL     1       9.349  10.536  23.429  1.00  0.00    -0.206 OA
BRANCH  18  21
HETATM   21  N4  UNL     1       9.742   8.088  24.332  1.00  0.00    -0.215 NA
HETATM   22  C16 UNL     1       9.251   7.775  25.659  1.00  0.00     0.129 C 
HETATM   23  C17 UNL     1      11.073   8.660  24.398  1.00  0.00     0.129 C 
ENDBRANCH  18  21
ENDBRANCH  15  18
ENDBRANCH  10  12
ENDBRANCH   7  10
BRANCH   1  24
HETATM   24  C5  UNL     1       6.822   2.623  18.407  1.00  0.00     0.087 C 
BRANCH  24  25
HETATM   25  C4  UNL     1       7.773   2.036  17.473  1.00  0.00     0.112 C 
BRANCH  25  26
HETATM   26  C2  UNL     1       9.128   1.638  17.885  1.00  0.00     0.036 C 
HETATM   27  C1  UNL     1      10.169   2.707  17.902  1.00  0.00     0.016 C 
HETATM   28  C3  UNL     1       9.691   0.417  17.204  1.00  0.00     0.016 C 
ENDBRANCH  25  26
BRANCH  25  29
HETATM   29  N6  UNL     1       7.420   1.920  16.243  1.00  0.00    -0.117 N 
HETATM   30  O3  UNL     1       6.478   0.969  15.900  1.00  0.00    -0.532 OA
HETATM   31  O4  UNL     1       7.930   2.683  15.206  1.00  0.00    -0.532 OA
ENDBRANCH  25  29
ENDBRANCH  24  25
BRANCH  24  32
HETATM   32  C6  UNL     1       6.978   2.426  19.861  1.00  0.00    -0.057 C 
HETATM   33  C7  UNL     1       5.735   2.131  20.645  1.00  0.00     0.045 C 
HETATM   34  C8  UNL     1       7.883   3.402  20.562  1.00  0.00     0.045 C 
ENDBRANCH  24  32
ENDBRANCH   1  24
TORSDOF 9
ENDMDL
MODEL 2
REMARK VINA RESULT: -7.369862813      1.737      2.289
REMARK  9 active torsions:
REMARK  status: ('A' for Active; 'I' for Inactive)
REMARK    1  A    between atoms: C2_2  and  C4_4 
REMARK    2  A    between atoms: C4_4  and  C5_5 
REMARK    3  A    between atoms: C4_4  and  N6_32 
REMARK    4  A    between atoms: C5_5  and  C6_6 
REMARK    5  A    between atoms: C5_5  and  N1_9 
REMARK    6  A    between atoms: C11_15  and  N3_16 
REMARK    7  A    between atoms: N3_16  and  C12_18 
REMARK    8  A    between atoms: C15_21  and  S1_22 
REMARK    9  A    between atoms: S1_22  and  N4_25 
ROOT
HETATM    1  N1  UNL     1       6.332   4.521  17.197  1.00  0.00    -0.248 N 
HETATM    2  C9  UNL     1       4.991   4.681  17.376  1.00  0.00     0.160 A 
HETATM    3  C10 UNL     1       4.405   5.841  17.811  1.00  0.00     0.136 A 
HETATM    4 CL1  UNL     1       2.653   5.974  18.018  1.00  0.00    -0.062 Cl
HETATM    5  N2  UNL     1       5.205   6.881  18.076  1.00  0.00    -0.178 N 
ATOM      6  H2  UNL     1       4.820   7.768  18.402  1.00  0.00     0.185 HD
HETATM    7  C11 UNL     1       6.521   6.725  17.900  1.00  0.00     0.699 A 
HETATM    8  N5  UNL     1       7.080   5.555  17.466  1.00  0.00    -0.125 N 
ATOM      9  H5  UNL     1       8.091   5.490  17.350  1.00  0.00     0.206 HD
ENDROOT
BRANCH   7  10
HETATM   10  N3  UNL     1       7.292   7.736  18.159  1.00  0.00    -0.190 N 
ATOM     11  H3  UNL     1       7.637   8.304  17.385  1.00  0.00     0.184 HD
BRANCH  10  12
HETATM   12  C12 UNL     1       7.666   8.075  19.466  1.00  0.00     0.049 A 
HETATM   13  C13 UNL     1       7.765   9.417  19.822  1.00  0.00     0.031 A 
HETATM   14  C14 UNL     1       8.133   9.752  21.109  1.00  0.00     0.027 A 
HETATM   15  C15 UNL     1       8.414   8.817  22.085  1.00  0.00     0.074 A 
HETATM   16  C18 UNL     1       8.312   7.477  21.724  1.00  0.00     0.027 A 
HETATM   17  C19 UNL     1       7.946   7.131  20.441  1.00  0.00     0.031 A 
BRANCH  15  18
HETATM   18  S1  UNL     1       8.876   9.267  23.704  1.00  0.00     0.242 S 
HETATM   19  O1  UNL     1       7.636   9.363  24.570  1.00  0.00    -0.206 OA
HETATM   20  O2  UNL     1       9.580  10.575  23.660  1.00  0.00    -0.206 OA
BRANCH  18  21
HETATM   21  N4  UNL     1       9.900   8.069  24.419  1.00  0.00    -0.215 NA
HETATM   22  C16 UNL     1       9.442   7.753  25.757  1.00  0.00     0.129 C 
HETATM   23  C17 UNL     1      11.262   8.567  24.446  1.00  0.00     0.129 C 
ENDBRANCH  18  21
ENDBRANCH  15  18
ENDBRANCH  10  12
ENDBRANCH   7  10
BRANCH   1  24
HETATM   24  C5  UNL     1       6.886   3.263  16.756  1.00  0.00     0.087 C 
BRANCH  24  25
HETATM   25  C4  UNL     1       7.715   2.547  17.717  1.00  0.00     0.112 C 
BRANCH  25  26
HETATM   26  C2  UNL     1       8.794   1.641  17.295  1.00  0.00     0.036 C 
HETATM   27  C1  UNL     1       9.624   1.032  18.375  1.00  0.00     0.016 C 
HETATM   28  C3  UNL     1       9.704   2.161  16.213  1.00  0.00     0.016 C 
ENDBRANCH  25  26
BRANCH  25  29
HETATM   29  N6  UNL     1       7.444   2.682  18.966  1.00  0.00    -0.117 N 
HETATM   30  O3  UNL     1       8.153   3.603  19.713  1.00  0.00    -0.532 OA
HETATM   31  O4  UNL     1       6.484   1.949  19.643  1.00  0.00    -0.532 OA
ENDBRANCH  25  29
ENDBRANCH  24  25
BRANCH  24  32
HETATM   32  C6  UNL     1       6.003   2.526  15.831  1.00  0.00    -0.057 C 
HETATM   33  C7  UNL     1       5.382   1.263  16.346  1.00  0.00     0.045 C 
HETATM   34  C8  UNL     1       6.500   2.388  14.418  1.00  0.00     0.045 C 
ENDBRANCH  24  32
ENDBRANCH   1  24
TORSDOF 9
ENDMDL
MODEL 3
REMARK VINA RESULT: -7.282328544      2.084      2.584
REMARK  9 active torsions:
REMARK  status: ('A' for Active; 'I' for Inactive)
REMARK    1  A    between atoms: C2_2  and  C4_4 
REMARK    2  A    between atoms: C4_4  and  C5_5 
REMARK    3  A    between atoms: C4_4  and  N6_32 
REMARK    4  A    between atoms: C5_5  and  C6_6 
REMARK    5  A    between atoms: C5_5  and  N1_9 
REMARK    6  A    between atoms: C11_15  and  N3_16 
REMARK    7  A    between atoms: N3_16  and  C12_18 
REMARK    8  A    between atoms: C15_21  and  S1_22 
REMARK    9  A    between atoms: S1_22  and  N4_25 
ROOT
HETATM    1  N1  UNL     1       6.652   4.207  16.971  1.00  0.00    -0.248 N 
HETATM    2  C9  UNL     1       6.753   4.592  15.668  1.00  0.00     0.160 A 
HETATM    3  C10 UNL     1       6.483   5.858  15.218  1.00  0.00     0.136 A 
HETATM    4 CL1  UNL     1       6.639   6.286  13.507  1.00  0.00    -0.062 Cl
HETATM    5  N2  UNL     1       6.095   6.770  16.117  1.00  0.00    -0.178 N 
ATOM      6  H2  UNL     1       5.881   7.726  15.834  1.00  0.00     0.185 HD
HETATM    7  C11 UNL     1       5.994   6.391  17.396  1.00  0.00     0.699 A 
HETATM    8  N5  UNL     1       6.270   5.121  17.819  1.00  0.00    -0.125 N 
ATOM      9  H5  UNL     1       6.176   4.886  18.807  1.00  0.00     0.206 HD
ENDROOT
BRANCH   7  10
HETATM   10  N3  UNL     1       5.616   7.279  18.263  1.00  0.00    -0.190 N 
ATOM     11  H3  UNL     1       4.713   7.737  18.138  1.00  0.00     0.184 HD
BRANCH  10  12
HETATM   12  C12 UNL     1       6.406   7.630  19.365  1.00  0.00     0.049 A 
HETATM   13  C13 UNL     1       5.795   8.138  20.509  1.00  0.00     0.031 A 
HETATM   14  C14 UNL     1       6.572   8.483  21.596  1.00  0.00     0.027 A 
HETATM   15  C15 UNL     1       7.946   8.352  21.618  1.00  0.00     0.074 A 
HETATM   16  C18 UNL     1       8.551   7.843  20.474  1.00  0.00     0.027 A 
HETATM   17  C19 UNL     1       7.785   7.495  19.382  1.00  0.00     0.031 A 
BRANCH  15  18
HETATM   18  S1  UNL     1       8.904   8.796  23.005  1.00  0.00     0.242 S 
HETATM   19  O1  UNL     1       8.389  10.104  23.571  1.00  0.00    -0.206 OA
HETATM   20  O2  UNL     1      10.324   8.936  22.587  1.00  0.00    -0.206 OA
BRANCH  18  21
HETATM   21  N4  UNL     1       8.772   7.614  24.262  1.00  0.00    -0.215 NA
HETATM   22  C16 UNL     1       7.433   7.621  24.818  1.00  0.00     0.129 C 
HETATM   23  C17 UNL     1       9.756   7.903  25.287  1.00  0.00     0.129 C 
ENDBRANCH  18  21
ENDBRANCH  15  18
ENDBRANCH  10  12
ENDBRANCH   7  10
BRANCH   1  24
HETATM   24  C5  UNL     1       6.932   2.849  17.376  1.00  0.00     0.087 C 
BRANCH  24  25
HETATM   25  C4  UNL     1       8.071   2.661  18.266  1.00  0.00     0.112 C 
BRANCH  25  26
HETATM   26  C2  UNL     1       9.397   2.268  17.765  1.00  0.00     0.036 C 
HETATM   27  C1  UNL     1       9.601   2.318  16.288  1.00  0.00     0.016 C 
HETATM   28  C3  UNL     1       9.938   0.964  18.291  1.00  0.00     0.016 C 
ENDBRANCH  25  26
BRANCH  25  29
HETATM   29  N6  UNL     1       7.878   2.793  19.530  1.00  0.00    -0.117 N 
HETATM   30  O3  UNL     1       8.044   4.036  20.110  1.00  0.00    -0.532 OA
HETATM   31  O4  UNL     1       7.521   1.760  20.380  1.00  0.00    -0.532 OA
ENDBRANCH  25  29
ENDBRANCH  24  25
BRANCH  24  32
HETATM   32  C6  UNL     1       5.721   2.018  17.522  1.00  0.00    -0.057 C 
HETATM   33  C7  UNL     1       5.157   1.414  16.271  1.00  0.00     0.045 C 
HETATM   34  C8  UNL     1       4.653   2.567  18.428  1.00  0.00     0.045 C 
ENDBRANCH  24  32
ENDBRANCH   1  24
TORSDOF 9
ENDMDL
MODEL 4
REMARK VINA RESULT: -7.266556286      2.013      2.523
REMARK  9 active torsions:
REMARK  status: ('A' for Active; 'I' for Inactive)
REMARK    1  A    between atoms: C2_2  and  C4_4 
REMARK    2  A    between atoms: C4_4  and  C5_5 
REMARK    3  A    between atoms: C4_4  and  N6_32 
REMARK    4  A    between atoms: C5_5  and  C6_6 
REMARK    5  A    between atoms: C5_5  and  N1_9 
REMARK    6  A    between atoms: C11_15  and  N3_16 
REMARK    7  A    between atoms: N3_16  and  C12_18 
REMARK    8  A    between atoms: C15_21  and  S1_22 
REMARK    9  A    between atoms: S1_22  and  N4_25 
ROOT
HETATM    1  N1  UNL     1       6.179   5.194  17.268  1.00  0.00    -0.248 N 
HETATM    2  C9  UNL     1       4.972   5.358  16.658  1.00  0.00     0.160 A 
HETATM    3  C10 UNL     1       4.396   6.576  16.406  1.00  0.00     0.136 A 
HETATM    4 CL1  UNL     1       2.823   6.710  15.607  1.00  0.00    -0.062 Cl
HETATM    5  N2  UNL     1       5.065   7.671  16.786  1.00  0.00    -0.178 N 
ATOM      6  H2  UNL     1       4.681   8.602  16.623  1.00  0.00     0.185 HD
HETATM    7  C11 UNL     1       6.250   7.510  17.385  1.00  0.00     0.699 A 
HETATM    8  N5  UNL     1       6.801   6.282  17.625  1.00  0.00    -0.125 N 
ATOM      9  H5  UNL     1       7.708   6.217  18.087  1.00  0.00     0.206 HD
ENDROOT
BRANCH   7  10
HETATM   10  N3  UNL     1       6.893   8.576  17.752  1.00  0.00    -0.190 N 
ATOM     11  H3  UNL     1       7.104   9.289  17.054  1.00  0.00     0.184 HD
BRANCH  10  12
HETATM   12  C12 UNL     1       7.308   8.779  19.074  1.00  0.00     0.049 A 
HETATM   13  C13 UNL     1       6.379   9.190  20.026  1.00  0.00     0.031 A 
HETATM   14  C14 UNL     1       6.787   9.390  21.329  1.00  0.00     0.027 A 
HETATM   15  C15 UNL     1       8.087   9.204  21.754  1.00  0.00     0.074 A 
HETATM   16  C18 UNL     1       9.011   8.793  20.799  1.00  0.00     0.027 A 
HETATM   17  C19 UNL     1       8.615   8.590  19.494  1.00  0.00     0.031 A 
BRANCH  15  18
HETATM   18  S1  UNL     1       8.576   9.464  23.407  1.00  0.00     0.242 S 
HETATM   19  O1  UNL     1       7.347   9.496  24.293  1.00  0.00    -0.206 OA
HETATM   20  O2  UNL     1       9.312  10.753  23.496  1.00  0.00    -0.206 OA
BRANCH  18  21
HETATM   21  N4  UNL     1       9.576   8.172  23.975  1.00  0.00    -0.215 NA
HETATM   22  C16 UNL     1       9.011   7.594  25.178  1.00  0.00     0.129 C 
HETATM   23  C17 UNL     1      10.910   8.683  24.228  1.00  0.00     0.129 C 
ENDBRANCH  18  21
ENDBRANCH  15  18
ENDBRANCH  10  12
ENDBRANCH   7  10
BRANCH   1  24
HETATM   24  C5  UNL     1       6.719   3.878  17.522  1.00  0.00     0.087 C 
BRANCH  24  25
HETATM   25  C4  UNL     1       7.412   3.697  18.791  1.00  0.00     0.112 C 
BRANCH  25  26
HETATM   26  C2  UNL     1       8.630   2.879  18.906  1.00  0.00     0.036 C 
HETATM   27  C1  UNL     1       9.615   2.978  17.791  1.00  0.00     0.016 C 
HETATM   28  C3  UNL     1       8.416   1.427  19.244  1.00  0.00     0.016 C 
ENDBRANCH  25  26
BRANCH  25  29
HETATM   29  N6  UNL     1       6.898   4.230  19.841  1.00  0.00    -0.117 N 
HETATM   30  O3  UNL     1       7.502   5.342  20.396  1.00  0.00    -0.532 OA
HETATM   31  O4  UNL     1       5.767   3.758  20.485  1.00  0.00    -0.532 OA
ENDBRANCH  25  29
ENDBRANCH  24  25
BRANCH  24  32
HETATM   32  C6  UNL     1       5.904   2.789  16.949  1.00  0.00    -0.057 C 
HETATM   33  C7  UNL     1       5.012   2.040  17.892  1.00  0.00     0.045 C 
HETATM   34  C8  UNL     1       6.610   1.881  15.980  1.00  0.00     0.045 C 
ENDBRANCH  24  32
ENDBRANCH   1  24
TORSDOF 9
ENDMDL
MODEL 5
REMARK VINA RESULT: -7.247209428      2.633      4.006
REMARK  9 active torsions:
REMARK  status: ('A' for Active; 'I' for Inactive)
REMARK    1  A    between atoms: C2_2  and  C4_4 
REMARK    2  A    between atoms: C4_4  and  C5_5 
REMARK    3  A    between atoms: C4_4  and  N6_32 
REMARK    4  A    between atoms: C5_5  and  C6_6 
REMARK    5  A    between atoms: C5_5  and  N1_9 
REMARK    6  A    between atoms: C11_15  and  N3_16 
REMARK    7  A    between atoms: N3_16  and  C12_18 
REMARK    8  A    between atoms: C15_21  and  S1_22 
REMARK    9  A    between atoms: S1_22  and  N4_25 
ROOT
HETATM    1  N1  UNL     1       6.255   3.059  18.546  1.00  0.00    -0.248 N 
HETATM    2  C9  UNL     1       7.412   2.360  18.374  1.00  0.00     0.160 A 
HETATM    3  C10 UNL     1       8.652   2.935  18.287  1.00  0.00     0.136 A 
HETATM    4 CL1  UNL     1      10.113   1.960  18.064  1.00  0.00    -0.062 Cl
HETATM    5  N2  UNL     1       8.728   4.268  18.377  1.00  0.00    -0.178 N 
ATOM      6  H2  UNL     1       9.627   4.747  18.318  1.00  0.00     0.185 HD
HETATM    7  C11 UNL     1       7.593   4.955  18.545  1.00  0.00     0.699 A 
HETATM    8  N5  UNL     1       6.367   4.355  18.629  1.00  0.00    -0.125 N 
ATOM      9  H5  UNL     1       5.533   4.927  18.756  1.00  0.00     0.206 HD
ENDROOT
BRANCH   7  10
HETATM   10  N3  UNL     1       7.673   6.247  18.631  1.00  0.00    -0.190 N 
ATOM     11  H3  UNL     1       7.510   6.807  17.794  1.00  0.00     0.184 HD
BRANCH  10  12
HETATM   12  C12 UNL     1       7.974   6.899  19.833  1.00  0.00     0.049 A 
HETATM   13  C13 UNL     1       7.368   6.472  21.012  1.00  0.00     0.031 A 
HETATM   14  C14 UNL     1       7.664   7.113  22.197  1.00  0.00     0.027 A 
HETATM   15  C15 UNL     1       8.543   8.173  22.287  1.00  0.00     0.074 A 
HETATM   16  C18 UNL     1       9.147   8.595  21.107  1.00  0.00     0.027 A 
HETATM   17  C19 UNL     1       8.858   7.962  19.916  1.00  0.00     0.031 A 
BRANCH  15  18
HETATM   18  S1  UNL     1       8.900   8.966  23.798  1.00  0.00     0.242 S 
HETATM   19  O1  UNL     1       7.609   9.208  24.553  1.00  0.00    -0.206 OA
HETATM   20  O2  UNL     1       9.586  10.255  23.517  1.00  0.00    -0.206 OA
BRANCH  18  21
HETATM   21  N4  UNL     1       9.897   7.974  24.805  1.00  0.00    -0.215 NA
HETATM   22  C16 UNL     1       9.384   7.961  26.161  1.00  0.00     0.129 C 
HETATM   23  C17 UNL     1      11.255   8.483  24.775  1.00  0.00     0.129 C 
ENDBRANCH  18  21
ENDBRANCH  15  18
ENDBRANCH  10  12
ENDBRANCH   7  10
BRANCH   1  24
HETATM   24  C5  UNL     1       4.976   2.390  18.609  1.00  0.00     0.087 C 
BRANCH  24  25
HETATM   25  C4  UNL     1       4.028   2.898  19.593  1.00  0.00     0.112 C 
BRANCH  25  26
HETATM   26  C2  UNL     1       3.923   2.325  20.944  1.00  0.00     0.036 C 
HETATM   27  C1  UNL     1       5.202   2.070  21.668  1.00  0.00     0.016 C 
HETATM   28  C3  UNL     1       3.034   1.117  21.079  1.00  0.00     0.016 C 
ENDBRANCH  25  26
BRANCH  25  29
HETATM   29  N6  UNL     1       3.230   3.838  19.233  1.00  0.00    -0.117 N 
HETATM   30  O3  UNL     1       3.694   5.139  19.197  1.00  0.00    -0.532 OA
HETATM   31  O4  UNL     1       1.903   3.648  18.884  1.00  0.00    -0.532 OA
ENDBRANCH  25  29
ENDBRANCH  24  25
BRANCH  24  32
HETATM   32  C6  UNL     1       4.507   1.897  17.300  1.00  0.00    -0.057 C 
HETATM   33  C7  UNL     1       4.340   2.914  16.211  1.00  0.00     0.045 C 
HETATM   34  C8  UNL     1       3.378   0.904  17.338  1.00  0.00     0.045 C 
ENDBRANCH  24  32
ENDBRANCH   1  24
TORSDOF 9
ENDMDL
