MODEL 1
REMARK VINA RESULT: -7.975950744      0.000      0.000
REMARK  9 active torsions:
REMARK  status: ('A' for Active; 'I' for Inactive)
REMARK    1  A    between atoms: C2_2  and  O1_3 
REMARK    2  A    between atoms: O1_3  and  C3_4 
REMARK    3  A    between atoms: C3_4  and  C4_6 
REMARK    4  A    between atoms: C8_10  and  C9_11 
REMARK    5  A    between atoms: C9_11  and  N1_12 
REMARK    6  A    between atoms: N1_12  and  C10_13 
REMARK       I    between atoms: N1_12  and  C17_25 
REMARK    7  A    between atoms: C10_13  and  C11_14 
REMARK    8  A    between atoms: C17_25  and  C18_27 
REMARK    9  A    between atoms: C18_27  and  N3_28 
ROOT
HETATM    1  N1  UNL     1       6.985   4.616  19.329  1.00  0.00    -0.322 N 
HETATM    2  C17 UNL     1       6.238   3.556  19.908  1.00  0.00     0.249 C 
HETATM    3  O5  UNL     1       5.026   3.705  20.249  1.00  0.00    -0.271 OA
ENDROOT
BRANCH   1   4
HETATM    4  C9  UNL     1       6.323   5.912  19.196  1.00  0.00     0.170 C 
BRANCH   4   5
HETATM    5  C8  UNL     1       7.198   7.005  19.691  1.00  0.00    -0.039 A 
HETATM    6  C7  UNL     1       7.609   7.992  18.820  1.00  0.00     0.009 A 
HETATM    7  C6  UNL     1       8.420   9.021  19.240  1.00  0.00     0.002 A 
HETATM    8  C5  UNL     1       8.821   9.049  20.568  1.00  0.00     0.017 A 
HETATM    9  C4  UNL     1       8.435   8.084  21.470  1.00  0.00     0.040 A 
HETATM   10  C19 UNL     1       7.620   7.076  20.987  1.00  0.00     0.026 A 
BRANCH   9  11
HETATM   11  C3  UNL     1       8.878   8.152  22.847  1.00  0.00     0.293 C 
HETATM   12  O2  UNL     1       8.489   7.356  23.740  1.00  0.00    -0.259 OA
BRANCH  11  13
HETATM   13  O1  UNL     1       9.774   9.140  23.213  1.00  0.00    -0.318 OA
BRANCH  13  14
HETATM   14  C2  UNL     1      10.966   8.829  23.920  1.00  0.00     0.174 C 
HETATM   15  C1  UNL     1      10.820   9.280  25.336  1.00  0.00     0.034 C 
ENDBRANCH  13  14
ENDBRANCH  11  13
ENDBRANCH   9  11
ENDBRANCH   4   5
ENDBRANCH   1   4
BRANCH   1  16
HETATM   16  C10 UNL     1       8.308   4.400  18.871  1.00  0.00     0.107 C 
BRANCH  16  17
HETATM   17  C11 UNL     1       8.648   3.474  17.842  1.00  0.00     0.003 C 
HETATM   18  C12 UNL     1       9.894   2.825  18.020  1.00  0.00     0.020 C 
HETATM   19  C13 UNL     1      10.289   1.553  17.609  1.00  0.00     0.075 C 
HETATM   20  C14 UNL     1       9.535   0.637  16.863  1.00  0.00     0.248 C 
HETATM   21  O3  UNL     1      10.121  -0.460  16.678  1.00  0.00    -0.268 OA
HETATM   22  N2  UNL     1       8.302   0.793  16.342  1.00  0.00    -0.289 N 
HETATM   23  C15 UNL     1       7.520   1.910  16.272  1.00  0.00     0.266 C 
ATOM     24  H2  UNL     1       7.892  -0.050  15.940  1.00  0.00     0.172 HD
HETATM   25  O4  UNL     1       6.417   1.783  15.691  1.00  0.00    -0.267 OA
HETATM   26  C16 UNL     1       7.840   3.172  16.786  1.00  0.00     0.090 C 
HETATM   27 BR1  UNL     1       7.046   4.613  15.823  1.00  0.00    -0.044 Br
ENDBRANCH  16  17
ENDBRANCH   1  16
BRANCH   2  28
HETATM   28  C18 UNL     1       6.829   2.219  20.157  1.00  0.00     0.332 C 
BRANCH  28  29
HETATM   29  N3  UNL     1       7.120   2.038  21.587  1.00  0.00    -0.071 N 
ATOM     30  H33 UNL     1       7.435   2.906  22.022  1.00  0.00     0.274 HD
ATOM     31  H32 UNL     1       6.269   1.897  22.132  1.00  0.00     0.274 HD
ATOM     32  H31 UNL     1       7.788   1.280  21.726  1.00  0.00     0.274 HD
ENDBRANCH  28  29
ENDBRANCH   2  28
TORSDOF 9
ENDMDL
MODEL 2
REMARK VINA RESULT: -7.891721168      2.495      7.174
REMARK  9 active torsions:
REMARK  status: ('A' for Active; 'I' for Inactive)
REMARK    1  A    between atoms: C2_2  and  O1_3 
REMARK    2  A    between atoms: O1_3  and  C3_4 
REMARK    3  A    between atoms: C3_4  and  C4_6 
REMARK    4  A    between atoms: C8_10  and  C9_11 
REMARK    5  A    between atoms: C9_11  and  N1_12 
REMARK    6  A    between atoms: N1_12  and  C10_13 
REMARK       I    between atoms: N1_12  and  C17_25 
REMARK    7  A    between atoms: C10_13  and  C11_14 
REMARK    8  A    between atoms: C17_25  and  C18_27 
REMARK    9  A    between atoms: C18_27  and  N3_28 
ROOT
HETATM    1  N1  UNL     1       7.142   4.303  20.165  1.00  0.00    -0.322 N 
HETATM    2  C17 UNL     1       6.499   3.137  20.658  1.00  0.00     0.249 C 
HETATM    3  O5  UNL     1       7.122   2.042  20.798  1.00  0.00    -0.271 OA
ENDROOT
BRANCH   1   4
HETATM    4  C9  UNL     1       8.541   4.181  19.761  1.00  0.00     0.170 C 
BRANCH   4   5
HETATM    5  C8  UNL     1       8.646   3.673  18.369  1.00  0.00    -0.039 A 
HETATM    6  C7  UNL     1       9.592   2.716  18.066  1.00  0.00     0.009 A 
HETATM    7  C6  UNL     1       9.722   2.221  16.788  1.00  0.00     0.002 A 
HETATM    8  C5  UNL     1       8.876   2.705  15.801  1.00  0.00     0.017 A 
HETATM    9  C4  UNL     1       7.918   3.659  16.061  1.00  0.00     0.040 A 
HETATM   10  C19 UNL     1       7.837   4.117  17.363  1.00  0.00     0.026 A 
BRANCH   9  11
HETATM   11  C3  UNL     1       7.056   4.136  14.999  1.00  0.00     0.293 C 
HETATM   12  O2  UNL     1       6.482   3.375  14.179  1.00  0.00    -0.259 OA
BRANCH  11  13
HETATM   13  O1  UNL     1       6.846   5.496  14.869  1.00  0.00    -0.318 OA
BRANCH  13  14
HETATM   14  C2  UNL     1       6.823   6.120  13.594  1.00  0.00     0.174 C 
HETATM   15  C1  UNL     1       6.123   7.435  13.711  1.00  0.00     0.034 C 
ENDBRANCH  13  14
ENDBRANCH  11  13
ENDBRANCH   9  11
ENDBRANCH   4   5
ENDBRANCH   1   4
BRANCH   1  16
HETATM   16  C10 UNL     1       6.450   5.538  20.105  1.00  0.00     0.107 C 
BRANCH  16  17
HETATM   17  C11 UNL     1       7.020   6.784  20.501  1.00  0.00     0.003 C 
HETATM   18  C12 UNL     1       7.284   6.897  21.888  1.00  0.00     0.020 C 
HETATM   19  C13 UNL     1       8.276   7.630  22.536  1.00  0.00     0.075 C 
HETATM   20  C14 UNL     1       9.220   8.479  21.942  1.00  0.00     0.248 C 
HETATM   21  O3  UNL     1      10.035   8.975  22.763  1.00  0.00    -0.268 OA
HETATM   22  N2  UNL     1       9.349   8.812  20.642  1.00  0.00    -0.289 N 
HETATM   23  C15 UNL     1       8.528   8.537  19.587  1.00  0.00     0.266 C 
ATOM     24  H2  UNL     1      10.185   9.349  20.413  1.00  0.00     0.172 HD
HETATM   25  O4  UNL     1       8.871   9.007  18.477  1.00  0.00    -0.267 OA
HETATM   26  C16 UNL     1       7.348   7.786  19.636  1.00  0.00     0.090 C 
HETATM   27 BR1  UNL     1       6.060   8.298  18.327  1.00  0.00    -0.044 Br
ENDBRANCH  16  17
ENDBRANCH   1  16
BRANCH   2  28
HETATM   28  C18 UNL     1       5.064   3.126  21.032  1.00  0.00     0.332 C 
BRANCH  28  29
HETATM   29  N3  UNL     1       4.888   3.547  22.430  1.00  0.00    -0.071 N 
ATOM     30  H33 UNL     1       5.350   2.910  23.078  1.00  0.00     0.274 HD
ATOM     31  H32 UNL     1       5.420   4.391  22.640  1.00  0.00     0.274 HD
ATOM     32  H31 UNL     1       3.898   3.659  22.650  1.00  0.00     0.274 HD
ENDBRANCH  28  29
ENDBRANCH   2  28
TORSDOF 9
ENDMDL
MODEL 3
REMARK VINA RESULT: -7.804600714      3.153      8.220
REMARK  9 active torsions:
REMARK  status: ('A' for Active; 'I' for Inactive)
REMARK    1  A    between atoms: C2_2  and  O1_3 
REMARK    2  A    between atoms: O1_3  and  C3_4 
REMARK    3  A    between atoms: C3_4  and  C4_6 
REMARK    4  A    between atoms: C8_10  and  C9_11 
REMARK    5  A    between atoms: C9_11  and  N1_12 
REMARK    6  A    between atoms: N1_12  and  C10_13 
REMARK       I    between atoms: N1_12  and  C17_25 
REMARK    7  A    between atoms: C10_13  and  C11_14 
REMARK    8  A    between atoms: C17_25  and  C18_27 
REMARK    9  A    between atoms: C18_27  and  N3_28 
ROOT
HETATM    1  N1  UNL     1       7.360   6.628  19.978  1.00  0.00    -0.322 N 
HETATM    2  C17 UNL     1       7.675   7.634  19.026  1.00  0.00     0.249 C 
HETATM    3  O5  UNL     1       7.120   7.668  17.887  1.00  0.00    -0.271 OA
ENDROOT
BRANCH   1   4
HETATM    4  C9  UNL     1       6.413   5.592  19.574  1.00  0.00     0.170 C 
BRANCH   4   5
HETATM    5  C8  UNL     1       7.085   4.270  19.480  1.00  0.00    -0.039 A 
HETATM    6  C7  UNL     1       6.729   3.264  20.353  1.00  0.00     0.009 A 
HETATM    7  C6  UNL     1       7.330   2.027  20.299  1.00  0.00     0.002 A 
HETATM    8  C5  UNL     1       8.308   1.807  19.340  1.00  0.00     0.017 A 
HETATM    9  C4  UNL     1       8.692   2.783  18.449  1.00  0.00     0.040 A 
HETATM   10  C19 UNL     1       8.052   4.004  18.554  1.00  0.00     0.026 A 
BRANCH   9  11
HETATM   11  C3  UNL     1       9.718   2.509  17.464  1.00  0.00     0.293 C 
HETATM   12  O2  UNL     1      10.874   2.113  17.760  1.00  0.00    -0.259 OA
BRANCH  11  13
HETATM   13  O1  UNL     1       9.423   2.687  16.125  1.00  0.00    -0.318 OA
BRANCH  13  14
HETATM   14  C2  UNL     1       8.218   2.189  15.562  1.00  0.00     0.174 C 
HETATM   15  C1  UNL     1       7.396   3.340  15.083  1.00  0.00     0.034 C 
ENDBRANCH  13  14
ENDBRANCH  11  13
ENDBRANCH   9  11
ENDBRANCH   4   5
ENDBRANCH   1   4
BRANCH   1  16
HETATM   16  C10 UNL     1       7.923   6.663  21.278  1.00  0.00     0.107 C 
BRANCH  16  17
HETATM   17  C11 UNL     1       7.397   7.446  22.347  1.00  0.00     0.003 C 
HETATM   18  C12 UNL     1       6.008   7.708  22.258  1.00  0.00     0.020 C 
HETATM   19  C13 UNL     1       5.084   7.905  23.283  1.00  0.00     0.075 C 
HETATM   20  C14 UNL     1       5.347   7.939  24.660  1.00  0.00     0.248 C 
HETATM   21  O3  UNL     1       4.314   8.080  25.363  1.00  0.00    -0.268 OA
HETATM   22  N2  UNL     1       6.535   7.842  25.289  1.00  0.00    -0.289 N 
HETATM   23  C15 UNL     1       7.798   7.829  24.771  1.00  0.00     0.266 C 
ATOM     24  H2  UNL     1       6.482   7.766  26.305  1.00  0.00     0.172 HD
HETATM   25  O4  UNL     1       8.738   7.768  25.597  1.00  0.00    -0.267 OA
HETATM   26  C16 UNL     1       8.131   7.878  23.412  1.00  0.00     0.090 C 
HETATM   27 BR1  UNL     1       9.817   8.698  23.068  1.00  0.00    -0.044 Br
ENDBRANCH  16  17
ENDBRANCH   1  16
BRANCH   2  28
HETATM   28  C18 UNL     1       8.674   8.694  19.301  1.00  0.00     0.332 C 
BRANCH  28  29
HETATM   29  N3  UNL     1       8.008   9.948  19.684  1.00  0.00    -0.071 N 
ATOM     30  H33 UNL     1       7.033   9.795  19.939  1.00  0.00     0.274 HD
ATOM     31  H32 UNL     1       8.347  10.298  20.580  1.00  0.00     0.274 HD
ATOM     32  H31 UNL     1       8.102  10.646  18.946  1.00  0.00     0.274 HD
ENDBRANCH  28  29
ENDBRANCH   2  28
TORSDOF 9
ENDMDL
MODEL 4
REMARK VINA RESULT: -7.771986219      2.268      7.414
REMARK  9 active torsions:
REMARK  status: ('A' for Active; 'I' for Inactive)
REMARK    1  A    between atoms: C2_2  and  O1_3 
REMARK    2  A    between atoms: O1_3  and  C3_4 
REMARK    3  A    between atoms: C3_4  and  C4_6 
REMARK    4  A    between atoms: C8_10  and  C9_11 
REMARK    5  A    between atoms: C9_11  and  N1_12 
REMARK    6  A    between atoms: N1_12  and  C10_13 
REMARK       I    between atoms: N1_12  and  C17_25 
REMARK    7  A    between atoms: C10_13  and  C11_14 
REMARK    8  A    between atoms: C17_25  and  C18_27 
REMARK    9  A    between atoms: C18_27  and  N3_28 
ROOT
HETATM    1  N1  UNL     1       7.189   4.302  20.064  1.00  0.00    -0.322 N 
HETATM    2  C17 UNL     1       6.541   3.152  20.588  1.00  0.00     0.249 C 
HETATM    3  O5  UNL     1       7.164   2.063  20.769  1.00  0.00    -0.271 OA
ENDROOT
BRANCH   1   4
HETATM    4  C9  UNL     1       8.592   4.169  19.680  1.00  0.00     0.170 C 
BRANCH   4   5
HETATM    5  C8  UNL     1       8.714   3.615  18.307  1.00  0.00    -0.039 A 
HETATM    6  C7  UNL     1       9.694   2.684  18.035  1.00  0.00     0.009 A 
HETATM    7  C6  UNL     1       9.840   2.148  16.776  1.00  0.00     0.002 A 
HETATM    8  C5  UNL     1       8.974   2.564  15.775  1.00  0.00     0.017 A 
HETATM    9  C4  UNL     1       7.983   3.490  16.003  1.00  0.00     0.040 A 
HETATM   10  C19 UNL     1       7.887   3.992  17.288  1.00  0.00     0.026 A 
BRANCH   9  11
HETATM   11  C3  UNL     1       7.101   3.896  14.928  1.00  0.00     0.293 C 
HETATM   12  O2  UNL     1       6.946   5.093  14.573  1.00  0.00    -0.259 OA
BRANCH  11  13
HETATM   13  O1  UNL     1       6.387   2.927  14.248  1.00  0.00    -0.318 OA
BRANCH  13  14
HETATM   14  C2  UNL     1       5.345   2.199  14.881  1.00  0.00     0.174 C 
HETATM   15  C1  UNL     1       5.740   0.760  14.962  1.00  0.00     0.034 C 
ENDBRANCH  13  14
ENDBRANCH  11  13
ENDBRANCH   9  11
ENDBRANCH   4   5
ENDBRANCH   1   4
BRANCH   1  16
HETATM   16  C10 UNL     1       6.497   5.534  19.957  1.00  0.00     0.107 C 
BRANCH  16  17
HETATM   17  C11 UNL     1       7.035   6.784  20.385  1.00  0.00     0.003 C 
HETATM   18  C12 UNL     1       7.302   6.866  21.773  1.00  0.00     0.020 C 
HETATM   19  C13 UNL     1       8.278   7.608  22.436  1.00  0.00     0.075 C 
HETATM   20  C14 UNL     1       9.196   8.498  21.862  1.00  0.00     0.248 C 
HETATM   21  O3  UNL     1      10.000   8.993  22.693  1.00  0.00    -0.268 OA
HETATM   22  N2  UNL     1       9.309   8.869  20.572  1.00  0.00    -0.289 N 
HETATM   23  C15 UNL     1       8.491   8.601  19.512  1.00  0.00     0.266 C 
ATOM     24  H2  UNL     1      10.130   9.435  20.353  1.00  0.00     0.172 HD
HETATM   25  O4  UNL     1       8.816   9.110  18.414  1.00  0.00    -0.267 OA
HETATM   26  C16 UNL     1       7.331   7.817  19.545  1.00  0.00     0.090 C 
HETATM   27 BR1  UNL     1       6.024   8.330  18.256  1.00  0.00    -0.044 Br
ENDBRANCH  16  17
ENDBRANCH   1  16
BRANCH   2  28
HETATM   28  C18 UNL     1       5.103   3.151  20.945  1.00  0.00     0.332 C 
BRANCH  28  29
HETATM   29  N3  UNL     1       4.918   3.509  22.359  1.00  0.00    -0.071 N 
ATOM     30  H33 UNL     1       5.013   2.698  22.970  1.00  0.00     0.274 HD
ATOM     31  H32 UNL     1       5.700   4.060  22.715  1.00  0.00     0.274 HD
ATOM     32  H31 UNL     1       4.027   3.985  22.497  1.00  0.00     0.274 HD
ENDBRANCH  28  29
ENDBRANCH   2  28
TORSDOF 9
ENDMDL
MODEL 5
REMARK VINA RESULT: -7.730894551      2.636      7.786
REMARK  9 active torsions:
REMARK  status: ('A' for Active; 'I' for Inactive)
REMARK    1  A    between atoms: C2_2  and  O1_3 
REMARK    2  A    between atoms: O1_3  and  C3_4 
REMARK    3  A    between atoms: C3_4  and  C4_6 
REMARK    4  A    between atoms: C8_10  and  C9_11 
REMARK    5  A    between atoms: C9_11  and  N1_12 
REMARK    6  A    between atoms: N1_12  and  C10_13 
REMARK       I    between atoms: N1_12  and  C17_25 
REMARK    7  A    between atoms: C10_13  and  C11_14 
REMARK    8  A    between atoms: C17_25  and  C18_27 
REMARK    9  A    between atoms: C18_27  and  N3_28 
ROOT
HETATM    1  N1  UNL     1       6.822   6.400  18.952  1.00  0.00    -0.322 N 
HETATM    2  C17 UNL     1       6.188   6.308  17.685  1.00  0.00     0.249 C 
HETATM    3  O5  UNL     1       6.740   5.720  16.706  1.00  0.00    -0.271 OA
ENDROOT
BRANCH   1   4
HETATM    4  C9  UNL     1       8.169   5.846  19.073  1.00  0.00     0.170 C 
BRANCH   4   5
HETATM    5  C8  UNL     1       8.119   4.374  19.261  1.00  0.00    -0.039 A 
HETATM    6  C7  UNL     1       7.357   3.845  20.282  1.00  0.00     0.009 A 
HETATM    7  C6  UNL     1       7.286   2.487  20.490  1.00  0.00     0.002 A 
HETATM    8  C5  UNL     1       8.000   1.649  19.646  1.00  0.00     0.017 A 
HETATM    9  C4  UNL     1       8.773   2.135  18.615  1.00  0.00     0.040 A 
HETATM   10  C19 UNL     1       8.804   3.508  18.458  1.00  0.00     0.026 A 
BRANCH   9  11
HETATM   11  C3  UNL     1       9.503   1.223  17.758  1.00  0.00     0.293 C 
HETATM   12  O2  UNL     1      10.481   0.538  18.150  1.00  0.00    -0.259 OA
BRANCH  11  13
HETATM   13  O1  UNL     1       9.114   1.091  16.438  1.00  0.00    -0.318 OA
BRANCH  13  14
HETATM   14  C2  UNL     1       7.742   1.075  16.072  1.00  0.00     0.174 C 
HETATM   15  C1  UNL     1       7.474   2.218  15.149  1.00  0.00     0.034 C 
ENDBRANCH  13  14
ENDBRANCH  11  13
ENDBRANCH   9  11
ENDBRANCH   4   5
ENDBRANCH   1   4
BRANCH   1  16
HETATM   16  C10 UNL     1       6.149   6.980  20.055  1.00  0.00     0.107 C 
BRANCH  16  17
HETATM   17  C11 UNL     1       6.764   7.881  20.974  1.00  0.00     0.003 C 
HETATM   18  C12 UNL     1       6.972   7.350  22.270  1.00  0.00     0.020 C 
HETATM   19  C13 UNL     1       7.972   7.653  23.193  1.00  0.00     0.075 C 
HETATM   20  C14 UNL     1       8.984   8.613  23.054  1.00  0.00     0.248 C 
HETATM   21  O3  UNL     1       9.786   8.638  24.023  1.00  0.00    -0.268 OA
HETATM   22  N2  UNL     1       9.186   9.478  22.041  1.00  0.00    -0.289 N 
HETATM   23  C15 UNL     1       8.399   9.754  20.960  1.00  0.00     0.266 C 
ATOM     24  H2  UNL     1      10.058  10.005  22.088  1.00  0.00     0.172 HD
HETATM   25  O4  UNL     1       8.814  10.643  20.181  1.00  0.00    -0.267 OA
HETATM   26  C16 UNL     1       7.181   9.138  20.650  1.00  0.00     0.090 C 
HETATM   27 BR1  UNL     1       5.980  10.261  19.686  1.00  0.00    -0.044 Br
ENDBRANCH  16  17
ENDBRANCH   1  16
BRANCH   2  28
HETATM   28  C18 UNL     1       4.852   6.896  17.426  1.00  0.00     0.332 C 
BRANCH  28  29
HETATM   29  N3  UNL     1       4.975   8.146  16.660  1.00  0.00    -0.071 N 
ATOM     30  H33 UNL     1       5.099   8.953  17.271  1.00  0.00     0.274 HD
ATOM     31  H32 UNL     1       5.862   8.197  16.159  1.00  0.00     0.274 HD
ATOM     32  H31 UNL     1       4.179   8.263  16.033  1.00  0.00     0.274 HD
ENDBRANCH  28  29
ENDBRANCH   2  28
TORSDOF 9
ENDMDL
