MODEL 1
REMARK VINA RESULT: -7.714973071      0.000      0.000
REMARK  8 active torsions:
REMARK  status: ('A' for Active; 'I' for Inactive)
REMARK    1  A    between atoms: C2_2  and  C3_4 
REMARK    2  A    between atoms: C8_10  and  C9_11 
REMARK    3  A    between atoms: C9_11  and  O3_13 
REMARK    4  A    between atoms: O3_13  and  C10_14 
REMARK    5  A    between atoms: C10_14  and  C11_15 
REMARK       I    between atoms: C11_15  and  N1_17 
REMARK    6  A    between atoms: N1_17  and  C12_18 
REMARK    7  A    between atoms: N1_17  and  C14_22 
REMARK    8  A    between atoms: C12_18  and  C13_19 
ROOT
HETATM    1  C10 UNL     1       7.027   8.691  19.260  1.00  0.00     0.281 C 
ENDROOT
BRANCH   1   2
HETATM    2  O3  UNL     1       7.067   7.830  18.170  1.00  0.00    -0.308 OA
BRANCH   2   3
HETATM    3  C9  UNL     1       6.461   6.580  18.154  1.00  0.00     0.294 C 
HETATM    4  O2  UNL     1       5.372   6.550  18.782  1.00  0.00    -0.259 OA
BRANCH   3   5
HETATM    5  C8  UNL     1       7.055   5.441  17.468  1.00  0.00     0.055 A 
HETATM    6  C6  UNL     1       6.713   5.196  16.170  1.00  0.00    -0.007 A 
HETATM    7  C5  UNL     1       7.226   4.106  15.491  1.00  0.00     0.124 A 
HETATM    8  C7  UNL     1       5.784   6.053  15.386  1.00  0.00     0.052 C 
HETATM    9  C4  UNL     1       8.085   3.238  16.085  1.00  0.00     0.058 A 
HETATM   10  F1  UNL     1       6.888   3.851  14.184  1.00  0.00    -0.206 F 
HETATM   11  C3  UNL     1       8.441   3.487  17.425  1.00  0.00     0.019 A 
HETATM   12  C19 UNL     1       7.936   4.571  18.094  1.00  0.00    -0.031 A 
HETATM   13  C20 UNL     1       8.408   4.913  19.472  1.00  0.00     0.050 C 
BRANCH  11  14
HETATM   14  C2  UNL     1       9.267   2.463  18.052  1.00  0.00     0.156 C 
HETATM   15  C1  UNL     1       8.686   1.431  18.930  1.00  0.00     0.097 C 
HETATM   16  O1  UNL     1      10.523   2.461  17.820  1.00  0.00    -0.293 OA
ENDBRANCH  11  14
ENDBRANCH   3   5
ENDBRANCH   2   3
ENDBRANCH   1   2
BRANCH   1  17
HETATM   17  C11 UNL     1       8.051   8.467  20.292  1.00  0.00     0.244 C 
HETATM   18  O4  UNL     1       9.260   8.467  20.009  1.00  0.00    -0.271 OA
HETATM   19  N1  UNL     1       7.644   8.244  21.641  1.00  0.00    -0.336 N 
BRANCH  19  20
HETATM   20  C12 UNL     1       8.728   8.017  22.571  1.00  0.00     0.225 C 
BRANCH  20  21
HETATM   21  C13 UNL     1       9.408   9.219  23.045  1.00  0.00     0.249 C 
HETATM   22  N2  UNL     1      10.753   9.042  23.538  1.00  0.00    -0.061 NA
HETATM   23  O5  UNL     1       8.979  10.383  23.080  1.00  0.00    -0.275 OA
ENDBRANCH  20  21
ENDBRANCH  19  20
BRANCH  19  24
HETATM   24  C14 UNL     1       6.253   8.227  21.961  1.00  0.00     0.106 C 
HETATM   25  C15 UNL     1       5.781   6.825  22.214  1.00  0.00     0.041 C 
HETATM   26  C16 UNL     1       4.462   6.778  22.859  1.00  0.00     0.143 C 
HETATM   27  S1  UNL     1       3.970   8.482  22.963  1.00  0.00     0.150 S 
HETATM   28  O6  UNL     1       3.290   8.820  24.229  1.00  0.00    -0.227 OA
HETATM   29  O7  UNL     1       3.289   8.966  21.739  1.00  0.00    -0.227 OA
HETATM   30  C17 UNL     1       5.699   9.112  22.993  1.00  0.00     0.127 C 
HETATM   31  C18 UNL     1       6.137   8.932  24.401  1.00  0.00     0.028 C 
ENDBRANCH  19  24
ENDBRANCH   1  17
TORSDOF 8
ENDMDL
MODEL 2
REMARK VINA RESULT: -7.694582509      2.222      3.001
REMARK  8 active torsions:
REMARK  status: ('A' for Active; 'I' for Inactive)
REMARK    1  A    between atoms: C2_2  and  C3_4 
REMARK    2  A    between atoms: C8_10  and  C9_11 
REMARK    3  A    between atoms: C9_11  and  O3_13 
REMARK    4  A    between atoms: O3_13  and  C10_14 
REMARK    5  A    between atoms: C10_14  and  C11_15 
REMARK       I    between atoms: C11_15  and  N1_17 
REMARK    6  A    between atoms: N1_17  and  C12_18 
REMARK    7  A    between atoms: N1_17  and  C14_22 
REMARK    8  A    between atoms: C12_18  and  C13_19 
ROOT
HETATM    1  C10 UNL     1       6.074   6.722  19.255  1.00  0.00     0.281 C 
ENDROOT
BRANCH   1   2
HETATM    2  O3  UNL     1       6.089   6.005  18.064  1.00  0.00    -0.308 OA
BRANCH   2   3
HETATM    3  C9  UNL     1       5.739   4.665  17.969  1.00  0.00     0.294 C 
HETATM    4  O2  UNL     1       4.633   4.481  17.398  1.00  0.00    -0.259 OA
BRANCH   3   5
HETATM    5  C8  UNL     1       6.591   3.604  18.488  1.00  0.00     0.055 A 
HETATM    6  C6  UNL     1       6.338   3.097  19.729  1.00  0.00    -0.007 A 
HETATM    7  C5  UNL     1       7.143   2.114  20.276  1.00  0.00     0.124 A 
HETATM    8  C7  UNL     1       5.206   3.541  20.585  1.00  0.00     0.052 C 
HETATM    9  C4  UNL     1       8.213   1.616  19.605  1.00  0.00     0.058 A 
HETATM   10  F1  UNL     1       6.895   1.597  21.525  1.00  0.00    -0.206 F 
HETATM   11  C3  UNL     1       8.478   2.137  18.323  1.00  0.00     0.019 A 
HETATM   12  C19 UNL     1       7.676   3.107  17.781  1.00  0.00    -0.031 A 
HETATM   13  C20 UNL     1       7.875   3.571  16.373  1.00  0.00     0.050 C 
BRANCH  11  14
HETATM   14  C2  UNL     1       9.704   1.658  17.697  1.00  0.00     0.156 C 
HETATM   15  C1  UNL     1       9.749   0.381  16.962  1.00  0.00     0.097 C 
HETATM   16  O1  UNL     1      10.758   2.375  17.784  1.00  0.00    -0.293 OA
ENDBRANCH  11  14
ENDBRANCH   3   5
ENDBRANCH   2   3
ENDBRANCH   1   2
BRANCH   1  17
HETATM   17  C11 UNL     1       7.246   7.577  19.503  1.00  0.00     0.244 C 
HETATM   18  O4  UNL     1       7.989   7.935  18.575  1.00  0.00    -0.271 OA
HETATM   19  N1  UNL     1       7.530   8.000  20.836  1.00  0.00    -0.336 N 
BRANCH  19  20
HETATM   20  C12 UNL     1       8.713   8.821  20.971  1.00  0.00     0.225 C 
BRANCH  20  21
HETATM   21  C13 UNL     1       8.475  10.262  20.992  1.00  0.00     0.249 C 
HETATM   22  N2  UNL     1       8.606  10.951  19.730  1.00  0.00    -0.061 NA
HETATM   23  O5  UNL     1       8.172  10.978  21.958  1.00  0.00    -0.275 OA
ENDBRANCH  20  21
ENDBRANCH  19  20
BRANCH  19  24
HETATM   24  C14 UNL     1       6.685   7.573  21.904  1.00  0.00     0.106 C 
HETATM   25  C15 UNL     1       7.393   7.683  23.222  1.00  0.00     0.041 C 
HETATM   26  C16 UNL     1       6.480   7.574  24.367  1.00  0.00     0.143 C 
HETATM   27  S1  UNL     1       4.896   7.254  23.629  1.00  0.00     0.150 S 
HETATM   28  O6  UNL     1       3.785   7.964  24.294  1.00  0.00    -0.227 OA
HETATM   29  O7  UNL     1       4.653   5.815  23.374  1.00  0.00    -0.227 OA
HETATM   30  C17 UNL     1       5.320   8.095  22.049  1.00  0.00     0.127 C 
HETATM   31  C18 UNL     1       5.133   9.540  22.333  1.00  0.00     0.028 C 
ENDBRANCH  19  24
ENDBRANCH   1  17
TORSDOF 8
ENDMDL
MODEL 3
REMARK VINA RESULT: -7.633490694      2.755      3.535
REMARK  8 active torsions:
REMARK  status: ('A' for Active; 'I' for Inactive)
REMARK    1  A    between atoms: C2_2  and  C3_4 
REMARK    2  A    between atoms: C8_10  and  C9_11 
REMARK    3  A    between atoms: C9_11  and  O3_13 
REMARK    4  A    between atoms: O3_13  and  C10_14 
REMARK    5  A    between atoms: C10_14  and  C11_15 
REMARK       I    between atoms: C11_15  and  N1_17 
REMARK    6  A    between atoms: N1_17  and  C12_18 
REMARK    7  A    between atoms: N1_17  and  C14_22 
REMARK    8  A    between atoms: C12_18  and  C13_19 
ROOT
HETATM    1  C10 UNL     1       8.122   6.942  20.504  1.00  0.00     0.281 C 
ENDROOT
BRANCH   1   2
HETATM    2  O3  UNL     1       8.193   6.653  19.146  1.00  0.00    -0.308 OA
BRANCH   2   3
HETATM    3  C9  UNL     1       7.429   5.673  18.527  1.00  0.00     0.294 C 
HETATM    4  O2  UNL     1       6.988   6.024  17.404  1.00  0.00    -0.259 OA
BRANCH   3   5
HETATM    5  C8  UNL     1       7.183   4.378  19.147  1.00  0.00     0.055 A 
HETATM    6  C6  UNL     1       8.094   3.377  18.977  1.00  0.00    -0.007 A 
HETATM    7  C5  UNL     1       7.885   2.122  19.518  1.00  0.00     0.124 A 
HETATM    8  C7  UNL     1       9.363   3.538  18.217  1.00  0.00     0.052 C 
HETATM    9  C4  UNL     1       6.769   1.833  20.235  1.00  0.00     0.058 A 
HETATM   10  F1  UNL     1       8.798   1.108  19.353  1.00  0.00    -0.206 F 
HETATM   11  C3  UNL     1       5.825   2.864  20.413  1.00  0.00     0.019 A 
HETATM   12  C19 UNL     1       6.037   4.108  19.881  1.00  0.00    -0.031 A 
HETATM   13  C20 UNL     1       5.103   5.240  20.174  1.00  0.00     0.050 C 
BRANCH  11  14
HETATM   14  C2  UNL     1       4.592   2.471  21.084  1.00  0.00     0.156 C 
HETATM   15  C1  UNL     1       3.431   1.959  20.332  1.00  0.00     0.097 C 
HETATM   16  O1  UNL     1       4.528   2.566  22.356  1.00  0.00    -0.293 OA
ENDBRANCH  11  14
ENDBRANCH   3   5
ENDBRANCH   2   3
ENDBRANCH   1   2
BRANCH   1  17
HETATM   17  C11 UNL     1       8.472   8.318  20.886  1.00  0.00     0.244 C 
HETATM   18  O4  UNL     1       9.371   8.941  20.297  1.00  0.00    -0.271 OA
HETATM   19  N1  UNL     1       7.765   8.947  21.954  1.00  0.00    -0.336 N 
BRANCH  19  20
HETATM   20  C12 UNL     1       8.200  10.292  22.260  1.00  0.00     0.225 C 
BRANCH  20  21
HETATM   21  C13 UNL     1       7.746  11.323  21.331  1.00  0.00     0.249 C 
HETATM   22  N2  UNL     1       8.430  12.593  21.397  1.00  0.00    -0.061 NA
HETATM   23  O5  UNL     1       6.842  11.251  20.483  1.00  0.00    -0.275 OA
ENDBRANCH  20  21
ENDBRANCH  19  20
BRANCH  19  24
HETATM   24  C14 UNL     1       6.745   8.224  22.642  1.00  0.00     0.106 C 
HETATM   25  C15 UNL     1       6.766   8.537  24.109  1.00  0.00     0.041 C 
HETATM   26  C16 UNL     1       5.552   8.086  24.802  1.00  0.00     0.143 C 
HETATM   27  S1  UNL     1       4.615   7.257  23.541  1.00  0.00     0.150 S 
HETATM   28  O6  UNL     1       3.164   7.520  23.621  1.00  0.00    -0.227 OA
HETATM   29  O7  UNL     1       4.984   5.831  23.385  1.00  0.00    -0.227 OA
HETATM   30  C17 UNL     1       5.355   8.236  22.170  1.00  0.00     0.127 C 
HETATM   31  C18 UNL     1       4.606   9.519  22.181  1.00  0.00     0.028 C 
ENDBRANCH  19  24
ENDBRANCH   1  17
TORSDOF 8
ENDMDL
MODEL 4
REMARK VINA RESULT: -7.604335358      2.079      2.846
REMARK  8 active torsions:
REMARK  status: ('A' for Active; 'I' for Inactive)
REMARK    1  A    between atoms: C2_2  and  C3_4 
REMARK    2  A    between atoms: C8_10  and  C9_11 
REMARK    3  A    between atoms: C9_11  and  O3_13 
REMARK    4  A    between atoms: O3_13  and  C10_14 
REMARK    5  A    between atoms: C10_14  and  C11_15 
REMARK       I    between atoms: C11_15  and  N1_17 
REMARK    6  A    between atoms: N1_17  and  C12_18 
REMARK    7  A    between atoms: N1_17  and  C14_22 
REMARK    8  A    between atoms: C12_18  and  C13_19 
ROOT
HETATM    1  C10 UNL     1       7.456   8.031  19.140  1.00  0.00     0.281 C 
ENDROOT
BRANCH   1   2
HETATM    2  O3  UNL     1       7.890   6.775  18.732  1.00  0.00    -0.308 OA
BRANCH   2   3
HETATM    3  C9  UNL     1       7.032   5.738  18.392  1.00  0.00     0.294 C 
HETATM    4  O2  UNL     1       6.032   6.118  17.731  1.00  0.00    -0.259 OA
BRANCH   3   5
HETATM    5  C8  UNL     1       7.296   4.359  18.780  1.00  0.00     0.055 A 
HETATM    6  C6  UNL     1       6.915   3.932  20.018  1.00  0.00    -0.007 A 
HETATM    7  C5  UNL     1       7.176   2.641  20.440  1.00  0.00     0.124 A 
HETATM    8  C7  UNL     1       6.202   4.791  21.002  1.00  0.00     0.052 C 
HETATM    9  C4  UNL     1       7.821   1.750  19.645  1.00  0.00     0.058 A 
HETATM   10  F1  UNL     1       6.795   2.204  21.686  1.00  0.00    -0.206 F 
HETATM   11  C3  UNL     1       8.217   2.186  18.365  1.00  0.00     0.019 A 
HETATM   12  C19 UNL     1       7.951   3.463  17.947  1.00  0.00    -0.031 A 
HETATM   13  C20 UNL     1       8.253   3.892  16.546  1.00  0.00     0.050 C 
BRANCH  11  14
HETATM   14  C2  UNL     1       9.010   1.232  17.599  1.00  0.00     0.156 C 
HETATM   15  C1  UNL     1      10.390   0.887  17.986  1.00  0.00     0.097 C 
HETATM   16  O1  UNL     1       8.484   0.679  16.575  1.00  0.00    -0.293 OA
ENDBRANCH  11  14
ENDBRANCH   3   5
ENDBRANCH   2   3
ENDBRANCH   1   2
BRANCH   1  17
HETATM   17  C11 UNL     1       8.243   8.665  20.209  1.00  0.00     0.244 C 
HETATM   18  O4  UNL     1       9.451   8.910  20.059  1.00  0.00    -0.271 OA
HETATM   19  N1  UNL     1       7.604   9.003  21.439  1.00  0.00    -0.336 N 
BRANCH  19  20
HETATM   20  C12 UNL     1       8.472   9.605  22.427  1.00  0.00     0.225 C 
BRANCH  20  21
HETATM   21  C13 UNL     1       9.288   8.670  23.196  1.00  0.00     0.249 C 
HETATM   22  N2  UNL     1      10.666   9.046  23.408  1.00  0.00    -0.061 NA
HETATM   23  O5  UNL     1       8.952   7.586  23.697  1.00  0.00    -0.275 OA
ENDBRANCH  20  21
ENDBRANCH  19  20
BRANCH  19  24
HETATM   24  C14 UNL     1       6.219   8.705  21.616  1.00  0.00     0.106 C 
HETATM   25  C15 UNL     1       5.781   9.018  23.016  1.00  0.00     0.041 C 
HETATM   26  C16 UNL     1       4.319   9.043  23.160  1.00  0.00     0.143 C 
HETATM   27  S1  UNL     1       3.717   8.578  21.554  1.00  0.00     0.150 S 
HETATM   28  O6  UNL     1       2.527   9.342  21.131  1.00  0.00    -0.227 OA
HETATM   29  O7  UNL     1       3.615   7.111  21.375  1.00  0.00    -0.227 OA
HETATM   30  C17 UNL     1       5.208   9.202  20.675  1.00  0.00     0.127 C 
HETATM   31  C18 UNL     1       4.991  10.667  20.566  1.00  0.00     0.028 C 
ENDBRANCH  19  24
ENDBRANCH   1  17
TORSDOF 8
ENDMDL
MODEL 5
REMARK VINA RESULT: -7.598653889      2.033      2.466
REMARK  8 active torsions:
REMARK  status: ('A' for Active; 'I' for Inactive)
REMARK    1  A    between atoms: C2_2  and  C3_4 
REMARK    2  A    between atoms: C8_10  and  C9_11 
REMARK    3  A    between atoms: C9_11  and  O3_13 
REMARK    4  A    between atoms: O3_13  and  C10_14 
REMARK    5  A    between atoms: C10_14  and  C11_15 
REMARK       I    between atoms: C11_15  and  N1_17 
REMARK    6  A    between atoms: N1_17  and  C12_18 
REMARK    7  A    between atoms: N1_17  and  C14_22 
REMARK    8  A    between atoms: C12_18  and  C13_19 
ROOT
HETATM    1  C10 UNL     1       5.996   8.533  17.768  1.00  0.00     0.281 C 
ENDROOT
BRANCH   1   2
HETATM    2  O3  UNL     1       6.597   7.412  17.208  1.00  0.00    -0.308 OA
BRANCH   2   3
HETATM    3  C9  UNL     1       6.182   6.110  17.458  1.00  0.00     0.294 C 
HETATM    4  O2  UNL     1       5.147   6.048  18.170  1.00  0.00    -0.259 OA
BRANCH   3   5
HETATM    5  C8  UNL     1       6.899   4.956  16.933  1.00  0.00     0.055 A 
HETATM    6  C6  UNL     1       6.594   4.496  15.686  1.00  0.00    -0.007 A 
HETATM    7  C5  UNL     1       7.224   3.382  15.162  1.00  0.00     0.124 A 
HETATM    8  C7  UNL     1       5.585   5.133  14.797  1.00  0.00     0.052 C 
HETATM    9  C4  UNL     1       8.165   2.702  15.864  1.00  0.00     0.058 A 
HETATM   10  F1  UNL     1       6.924   2.913  13.906  1.00  0.00    -0.206 F 
HETATM   11  C3  UNL     1       8.484   3.173  17.153  1.00  0.00     0.019 A 
HETATM   12  C19 UNL     1       7.862   4.280  17.668  1.00  0.00    -0.031 A 
HETATM   13  C20 UNL     1       8.286   4.859  18.981  1.00  0.00     0.050 C 
BRANCH  11  14
HETATM   14  C2  UNL     1       9.409   2.339  17.910  1.00  0.00     0.156 C 
HETATM   15  C1  UNL     1       8.931   1.334  18.877  1.00  0.00     0.097 C 
HETATM   16  O1  UNL     1      10.664   2.483  17.716  1.00  0.00    -0.293 OA
ENDBRANCH  11  14
ENDBRANCH   3   5
ENDBRANCH   2   3
ENDBRANCH   1   2
BRANCH   1  17
HETATM   17  C11 UNL     1       6.899   9.645  18.101  1.00  0.00     0.244 C 
HETATM   18  O4  UNL     1       7.150  10.539  17.276  1.00  0.00    -0.271 OA
HETATM   19  N1  UNL     1       7.497   9.695  19.395  1.00  0.00    -0.336 N 
BRANCH  19  20
HETATM   20  C12 UNL     1       8.381  10.819  19.612  1.00  0.00     0.225 C 
BRANCH  20  21
HETATM   21  C13 UNL     1       7.780  11.966  20.288  1.00  0.00     0.249 C 
HETATM   22  N2  UNL     1       8.404  12.381  21.522  1.00  0.00    -0.061 NA
HETATM   23  O5  UNL     1       6.797  12.638  19.939  1.00  0.00    -0.275 OA
ENDBRANCH  20  21
ENDBRANCH  19  20
BRANCH  19  24
HETATM   24  C14 UNL     1       7.221   8.657  20.337  1.00  0.00     0.106 C 
HETATM   25  C15 UNL     1       8.416   8.394  21.205  1.00  0.00     0.041 C 
HETATM   26  C16 UNL     1       8.090   7.583  22.386  1.00  0.00     0.143 C 
HETATM   27  S1  UNL     1       6.369   7.193  22.183  1.00  0.00     0.150 S 
HETATM   28  O6  UNL     1       5.603   7.243  23.445  1.00  0.00    -0.227 OA
HETATM   29  O7  UNL     1       6.141   5.981  21.361  1.00  0.00    -0.227 OA
HETATM   30  C17 UNL     1       6.017   8.692  21.176  1.00  0.00     0.127 C 
HETATM   31  C18 UNL     1       5.871   9.784  22.172  1.00  0.00     0.028 C 
ENDBRANCH  19  24
ENDBRANCH   1  17
TORSDOF 8
ENDMDL
