MODEL 1
REMARK VINA RESULT: -9.317578756      0.000      0.000
REMARK  8 active torsions:
REMARK  status: ('A' for Active; 'I' for Inactive)
REMARK    1  A    between atoms: O1_2  and  N1_3 
REMARK    2  A    between atoms: N1_3  and  C2_4 
REMARK    3  A    between atoms: N1_3  and  C14_21 
REMARK    4  A    between atoms: C2_4  and  C3_5 
REMARK       I    between atoms: C3_5  and  N2_7 
REMARK    5  A    between atoms: N2_7  and  C5_9 
REMARK    6  A    between atoms: C5_9  and  C6_10 
REMARK       I    between atoms: C6_10  and  N3_12 
REMARK    7  A    between atoms: N3_12  and  C7_14 
REMARK    8  A    between atoms: C7_14  and  C8_15 
ROOT
HETATM    1  C2  UNL     1       8.894   8.339  20.095  1.00  0.00     0.261 C 
ENDROOT
BRANCH   1   2
HETATM    2  N1  UNL     1       8.580   9.298  21.103  1.00  0.00    -0.232 N 
BRANCH   2   3
HETATM    3  O1  UNL     1       8.682  10.615  20.815  1.00  0.00    -0.281 OA
HETATM    4  C1  UNL     1       7.449  11.229  20.799  1.00  0.00     0.238 C 
ENDBRANCH   2   3
BRANCH   2   5
HETATM    5  C14 UNL     1       8.150   8.931  22.447  1.00  0.00     0.149 A 
HETATM    6  N4  UNL     1       6.896   8.799  22.667  1.00  0.00    -0.263 N 
HETATM    7  S1  UNL     1       6.689   8.367  24.320  1.00  0.00     0.265 S 
ATOM      8  H4  UNL     1       6.150   8.926  21.983  1.00  0.00     0.180 HD
HETATM    9  O4  UNL     1       5.924   9.380  25.093  1.00  0.00    -0.200 OA
HETATM   10  O5  UNL     1       6.135   6.980  24.467  1.00  0.00    -0.200 OA
HETATM   11  C15 UNL     1       8.399   8.366  24.734  1.00  0.00     0.096 A 
HETATM   12  C16 UNL     1       9.063   8.108  25.906  1.00  0.00     0.068 A 
HETATM   13  C20 UNL     1       9.018   8.701  23.560  1.00  0.00     0.034 A 
HETATM   14  C17 UNL     1      10.431   8.187  25.921  1.00  0.00     0.117 A 
HETATM   15  F1  UNL     1      11.094   7.929  27.095  1.00  0.00    -0.206 F 
HETATM   16  C18 UNL     1      11.095   8.519  24.767  1.00  0.00     0.043 A 
HETATM   17  C19 UNL     1      10.415   8.773  23.606  1.00  0.00     0.020 A 
ENDBRANCH   2   5
ENDBRANCH   1   2
BRANCH   1  18
HETATM   18  C3  UNL     1       7.882   8.230  19.036  1.00  0.00     0.240 C 
HETATM   19  O2  UNL     1       7.890   9.043  18.086  1.00  0.00    -0.271 OA
HETATM   20  N2  UNL     1       6.881   7.226  19.046  1.00  0.00    -0.346 N 
HETATM   21  C4  UNL     1       6.857   6.269  20.158  1.00  0.00     0.153 C 
BRANCH  20  22
HETATM   22  C5  UNL     1       5.886   7.082  18.023  1.00  0.00     0.228 C 
BRANCH  22  23
HETATM   23  C6  UNL     1       6.036   5.740  17.384  1.00  0.00     0.235 C 
HETATM   24  O3  UNL     1       5.001   5.003  17.356  1.00  0.00    -0.272 OA
HETATM   25  N3  UNL     1       7.240   5.279  16.831  1.00  0.00    -0.355 N 
ATOM     26  H3  UNL     1       8.079   5.859  16.847  1.00  0.00     0.162 HD
BRANCH  25  27
HETATM   27  C7  UNL     1       7.262   3.949  16.231  1.00  0.00     0.161 C 
BRANCH  27  28
HETATM   28  C8  UNL     1       8.079   3.011  17.035  1.00  0.00    -0.041 A 
HETATM   29  C9  UNL     1       9.345   2.669  16.647  1.00  0.00     0.009 A 
HETATM   30  C10 UNL     1      10.111   1.794  17.386  1.00  0.00     0.001 A 
HETATM   31  C11 UNL     1       9.552   1.267  18.549  1.00  0.00     0.000 A 
HETATM   32  C12 UNL     1       8.281   1.597  18.958  1.00  0.00     0.001 A 
HETATM   33  C13 UNL     1       7.551   2.479  18.182  1.00  0.00     0.009 A 
ENDBRANCH  27  28
ENDBRANCH  25  27
ENDBRANCH  22  23
ENDBRANCH  20  22
ENDBRANCH   1  18
TORSDOF 8
ENDMDL
MODEL 2
REMARK VINA RESULT: -9.256818162      2.243      3.608
REMARK  8 active torsions:
REMARK  status: ('A' for Active; 'I' for Inactive)
REMARK    1  A    between atoms: O1_2  and  N1_3 
REMARK    2  A    between atoms: N1_3  and  C2_4 
REMARK    3  A    between atoms: N1_3  and  C14_21 
REMARK    4  A    between atoms: C2_4  and  C3_5 
REMARK       I    between atoms: C3_5  and  N2_7 
REMARK    5  A    between atoms: N2_7  and  C5_9 
REMARK    6  A    between atoms: C5_9  and  C6_10 
REMARK       I    between atoms: C6_10  and  N3_12 
REMARK    7  A    between atoms: N3_12  and  C7_14 
REMARK    8  A    between atoms: C7_14  and  C8_15 
ROOT
HETATM    1  C2  UNL     1       3.967   8.050  22.987  1.00  0.00     0.261 C 
ENDROOT
BRANCH   1   2
HETATM    2  N1  UNL     1       4.868   8.944  23.637  1.00  0.00    -0.232 N 
BRANCH   2   3
HETATM    3  O1  UNL     1       4.487   9.542  24.788  1.00  0.00    -0.281 OA
HETATM    4  C1  UNL     1       3.255   9.092  25.211  1.00  0.00     0.238 C 
ENDBRANCH   2   3
BRANCH   2   5
HETATM    5  C14 UNL     1       6.196   9.253  23.121  1.00  0.00     0.149 A 
HETATM    6  N4  UNL     1       6.283   9.923  22.034  1.00  0.00    -0.263 N 
HETATM    7  S1  UNL     1       7.952  10.135  21.673  1.00  0.00     0.265 S 
ATOM      8  H4  UNL     1       5.501  10.271  21.479  1.00  0.00     0.180 HD
HETATM    9  O4  UNL     1       8.356   9.493  20.394  1.00  0.00    -0.200 OA
HETATM   10  O5  UNL     1       8.360  11.577  21.756  1.00  0.00    -0.200 OA
HETATM   11  C15 UNL     1       8.565   9.267  23.076  1.00  0.00     0.096 A 
HETATM   12  C16 UNL     1       9.838   8.995  23.507  1.00  0.00     0.068 A 
HETATM   13  C20 UNL     1       7.431   8.870  23.732  1.00  0.00     0.034 A 
HETATM   14  C17 UNL     1      10.004   8.281  24.665  1.00  0.00     0.117 A 
HETATM   15  F1  UNL     1      11.278   8.009  25.096  1.00  0.00    -0.206 F 
HETATM   16  C18 UNL     1       8.896   7.862  25.358  1.00  0.00     0.043 A 
HETATM   17  C19 UNL     1       7.632   8.143  24.912  1.00  0.00     0.020 A 
ENDBRANCH   2   5
ENDBRANCH   1   2
BRANCH   1  18
HETATM   18  C3  UNL     1       4.525   6.716  22.733  1.00  0.00     0.240 C 
HETATM   19  O2  UNL     1       4.845   5.985  23.696  1.00  0.00    -0.271 OA
HETATM   20  N2  UNL     1       4.720   6.214  21.422  1.00  0.00    -0.346 N 
HETATM   21  C4  UNL     1       4.354   7.063  20.284  1.00  0.00     0.153 C 
BRANCH  20  22
HETATM   22  C5  UNL     1       5.251   4.912  21.137  1.00  0.00     0.228 C 
BRANCH  22  23
HETATM   23  C6  UNL     1       6.519   5.062  20.362  1.00  0.00     0.235 C 
HETATM   24  O3  UNL     1       7.458   5.708  20.925  1.00  0.00    -0.272 OA
HETATM   25  N3  UNL     1       6.705   4.532  19.077  1.00  0.00    -0.355 N 
ATOM     26  H3  UNL     1       5.960   4.013  18.613  1.00  0.00     0.162 HD
BRANCH  25  27
HETATM   27  C7  UNL     1       7.991   4.742  18.421  1.00  0.00     0.161 C 
BRANCH  27  28
HETATM   28  C8  UNL     1       8.585   3.460  17.978  1.00  0.00    -0.041 A 
HETATM   29  C9  UNL     1       8.921   3.254  16.669  1.00  0.00     0.009 A 
HETATM   30  C10 UNL     1       9.470   2.062  16.246  1.00  0.00     0.001 A 
HETATM   31  C11 UNL     1       9.674   1.068  17.202  1.00  0.00     0.000 A 
HETATM   32  C12 UNL     1       9.343   1.254  18.524  1.00  0.00     0.001 A 
HETATM   33  C13 UNL     1       8.795   2.467  18.900  1.00  0.00     0.009 A 
ENDBRANCH  27  28
ENDBRANCH  25  27
ENDBRANCH  22  23
ENDBRANCH  20  22
ENDBRANCH   1  18
TORSDOF 8
ENDMDL
MODEL 3
REMARK VINA RESULT: -9.160178307      2.564      3.812
REMARK  8 active torsions:
REMARK  status: ('A' for Active; 'I' for Inactive)
REMARK    1  A    between atoms: O1_2  and  N1_3 
REMARK    2  A    between atoms: N1_3  and  C2_4 
REMARK    3  A    between atoms: N1_3  and  C14_21 
REMARK    4  A    between atoms: C2_4  and  C3_5 
REMARK       I    between atoms: C3_5  and  N2_7 
REMARK    5  A    between atoms: N2_7  and  C5_9 
REMARK    6  A    between atoms: C5_9  and  C6_10 
REMARK       I    between atoms: C6_10  and  N3_12 
REMARK    7  A    between atoms: N3_12  and  C7_14 
REMARK    8  A    between atoms: C7_14  and  C8_15 
ROOT
HETATM    1  C2  UNL     1       5.122   7.173  24.047  1.00  0.00     0.261 C 
ENDROOT
BRANCH   1   2
HETATM    2  N1  UNL     1       5.416   8.568  23.998  1.00  0.00    -0.232 N 
BRANCH   2   3
HETATM    3  O1  UNL     1       4.467   9.455  24.374  1.00  0.00    -0.281 OA
HETATM    4  C1  UNL     1       3.595   8.907  25.290  1.00  0.00     0.238 C 
ENDBRANCH   2   3
BRANCH   2   5
HETATM    5  C14 UNL     1       6.700   9.098  23.556  1.00  0.00     0.149 A 
HETATM    6  N4  UNL     1       6.741   9.751  22.456  1.00  0.00    -0.263 N 
HETATM    7  S1  UNL     1       8.367  10.249  22.194  1.00  0.00     0.265 S 
ATOM      8  H4  UNL     1       5.949   9.943  21.843  1.00  0.00     0.180 HD
HETATM    9  O4  UNL     1       8.962   9.664  20.964  1.00  0.00    -0.200 OA
HETATM   10  O5  UNL     1       8.508  11.742  22.257  1.00  0.00    -0.200 OA
HETATM   11  C15 UNL     1       9.027   9.532  23.659  1.00  0.00     0.096 A 
HETATM   12  C16 UNL     1      10.296   9.499  24.177  1.00  0.00     0.068 A 
HETATM   13  C20 UNL     1       7.940   8.953  24.255  1.00  0.00     0.034 A 
HETATM   14  C17 UNL     1      10.507   8.849  25.365  1.00  0.00     0.117 A 
HETATM   15  F1  UNL     1      11.778   8.816  25.883  1.00  0.00    -0.206 F 
HETATM   16  C18 UNL     1       9.446   8.254  26.000  1.00  0.00     0.043 A 
HETATM   17  C19 UNL     1       8.186   8.297  25.467  1.00  0.00     0.020 A 
ENDBRANCH   2   5
ENDBRANCH   1   2
BRANCH   1  18
HETATM   18  C3  UNL     1       5.061   6.527  22.729  1.00  0.00     0.240 C 
HETATM   19  O2  UNL     1       5.914   6.811  21.860  1.00  0.00    -0.271 OA
HETATM   20  N2  UNL     1       4.060   5.580  22.396  1.00  0.00    -0.346 N 
HETATM   21  C4  UNL     1       3.050   5.242  23.405  1.00  0.00     0.153 C 
BRANCH  20  22
HETATM   22  C5  UNL     1       3.977   4.921  21.125  1.00  0.00     0.228 C 
BRANCH  22  23
HETATM   23  C6  UNL     1       4.892   3.740  21.129  1.00  0.00     0.235 C 
HETATM   24  O3  UNL     1       4.401   2.639  21.533  1.00  0.00    -0.272 OA
HETATM   25  N3  UNL     1       6.232   3.801  20.716  1.00  0.00    -0.355 N 
ATOM     26  H3  UNL     1       6.640   4.677  20.392  1.00  0.00     0.162 HD
BRANCH  25  27
HETATM   27  C7  UNL     1       7.027   2.578  20.763  1.00  0.00     0.161 C 
BRANCH  27  28
HETATM   28  C8  UNL     1       7.985   2.516  19.636  1.00  0.00    -0.041 A 
HETATM   29  C9  UNL     1       8.612   1.346  19.308  1.00  0.00     0.009 A 
HETATM   30  C10 UNL     1       9.509   1.280  18.263  1.00  0.00     0.001 A 
HETATM   31  C11 UNL     1       9.755   2.449  17.546  1.00  0.00     0.000 A 
HETATM   32  C12 UNL     1       9.135   3.637  17.859  1.00  0.00     0.001 A 
HETATM   33  C13 UNL     1       8.244   3.653  18.916  1.00  0.00     0.009 A 
ENDBRANCH  27  28
ENDBRANCH  25  27
ENDBRANCH  22  23
ENDBRANCH  20  22
ENDBRANCH   1  18
TORSDOF 8
ENDMDL
MODEL 4
REMARK VINA RESULT: -9.143880388      3.130      7.809
REMARK  8 active torsions:
REMARK  status: ('A' for Active; 'I' for Inactive)
REMARK    1  A    between atoms: O1_2  and  N1_3 
REMARK    2  A    between atoms: N1_3  and  C2_4 
REMARK    3  A    between atoms: N1_3  and  C14_21 
REMARK    4  A    between atoms: C2_4  and  C3_5 
REMARK       I    between atoms: C3_5  and  N2_7 
REMARK    5  A    between atoms: N2_7  and  C5_9 
REMARK    6  A    between atoms: C5_9  and  C6_10 
REMARK       I    between atoms: C6_10  and  N3_12 
REMARK    7  A    between atoms: N3_12  and  C7_14 
REMARK    8  A    between atoms: C7_14  and  C8_15 
ROOT
HETATM    1  C2  UNL     1       7.796   7.183  19.428  1.00  0.00     0.261 C 
ENDROOT
BRANCH   1   2
HETATM    2  N1  UNL     1       7.207   6.184  18.598  1.00  0.00    -0.232 N 
BRANCH   2   3
HETATM    3  O1  UNL     1       6.775   6.523  17.363  1.00  0.00    -0.281 OA
HETATM    4  C1  UNL     1       5.793   7.489  17.416  1.00  0.00     0.238 C 
ENDBRANCH   2   3
BRANCH   2   5
HETATM    5  C14 UNL     1       7.042   4.796  19.015  1.00  0.00     0.149 A 
HETATM    6  N4  UNL     1       5.990   4.482  19.674  1.00  0.00    -0.263 N 
HETATM    7  S1  UNL     1       6.066   2.800  20.025  1.00  0.00     0.265 S 
ATOM      8  H4  UNL     1       5.239   5.118  19.943  1.00  0.00     0.180 HD
HETATM    9  O4  UNL     1       6.117   2.512  21.483  1.00  0.00    -0.200 OA
HETATM   10  O5  UNL     1       4.985   2.035  19.318  1.00  0.00    -0.200 OA
HETATM   11  C15 UNL     1       7.610   2.506  19.233  1.00  0.00     0.096 A 
HETATM   12  C16 UNL     1       8.364   1.372  19.077  1.00  0.00     0.068 A 
HETATM   13  C20 UNL     1       7.964   3.736  18.749  1.00  0.00     0.034 A 
HETATM   14  C17 UNL     1       9.550   1.457  18.396  1.00  0.00     0.117 A 
HETATM   15  F1  UNL     1      10.306   0.321  18.241  1.00  0.00    -0.206 F 
HETATM   16  C18 UNL     1       9.947   2.670  17.891  1.00  0.00     0.043 A 
HETATM   17  C19 UNL     1       9.180   3.792  18.057  1.00  0.00     0.020 A 
ENDBRANCH   2   5
ENDBRANCH   1   2
BRANCH   1  18
HETATM   18  C3  UNL     1       7.506   7.022  20.859  1.00  0.00     0.240 C 
HETATM   19  O2  UNL     1       8.060   6.105  21.504  1.00  0.00    -0.271 OA
HETATM   20  N2  UNL     1       6.609   7.875  21.549  1.00  0.00    -0.346 N 
HETATM   21  C4  UNL     1       5.948   8.951  20.803  1.00  0.00     0.153 C 
BRANCH  20  22
HETATM   22  C5  UNL     1       6.312   7.755  22.948  1.00  0.00     0.228 C 
BRANCH  22  23
HETATM   23  C6  UNL     1       7.317   8.537  23.728  1.00  0.00     0.235 C 
HETATM   24  O3  UNL     1       6.865   9.299  24.639  1.00  0.00    -0.272 OA
HETATM   25  N3  UNL     1       8.700   8.462  23.498  1.00  0.00    -0.355 N 
ATOM     26  H3  UNL     1       9.076   7.856  22.769  1.00  0.00     0.162 HD
BRANCH  25  27
HETATM   27  C7  UNL     1       9.584   9.273  24.328  1.00  0.00     0.161 C 
BRANCH  27  28
HETATM   28  C8  UNL     1      10.347   8.434  25.280  1.00  0.00    -0.041 A 
HETATM   29  C9  UNL     1       9.713   7.751  26.281  1.00  0.00     0.009 A 
HETATM   30  C10 UNL     1      10.415   6.970  27.175  1.00  0.00     0.001 A 
HETATM   31  C11 UNL     1      11.799   6.897  27.023  1.00  0.00     0.000 A 
HETATM   32  C12 UNL     1      12.456   7.575  26.022  1.00  0.00     0.001 A 
HETATM   33  C13 UNL     1      11.709   8.346  25.151  1.00  0.00     0.009 A 
ENDBRANCH  27  28
ENDBRANCH  25  27
ENDBRANCH  22  23
ENDBRANCH  20  22
ENDBRANCH   1  18
TORSDOF 8
ENDMDL
MODEL 5
REMARK VINA RESULT: -9.123129176      1.217      1.568
REMARK  8 active torsions:
REMARK  status: ('A' for Active; 'I' for Inactive)
REMARK    1  A    between atoms: O1_2  and  N1_3 
REMARK    2  A    between atoms: N1_3  and  C2_4 
REMARK    3  A    between atoms: N1_3  and  C14_21 
REMARK    4  A    between atoms: C2_4  and  C3_5 
REMARK       I    between atoms: C3_5  and  N2_7 
REMARK    5  A    between atoms: N2_7  and  C5_9 
REMARK    6  A    between atoms: C5_9  and  C6_10 
REMARK       I    between atoms: C6_10  and  N3_12 
REMARK    7  A    between atoms: N3_12  and  C7_14 
REMARK    8  A    between atoms: C7_14  and  C8_15 
ROOT
HETATM    1  C2  UNL     1       8.407   9.894  20.166  1.00  0.00     0.261 C 
ENDROOT
BRANCH   1   2
HETATM    2  N1  UNL     1       8.152  10.535  21.414  1.00  0.00    -0.232 N 
BRANCH   2   3
HETATM    3  O1  UNL     1       8.321  11.872  21.515  1.00  0.00    -0.281 OA
HETATM    4  C1  UNL     1       7.927  12.522  20.365  1.00  0.00     0.238 C 
ENDBRANCH   2   3
BRANCH   2   5
HETATM    5  C14 UNL     1       7.715   9.817  22.605  1.00  0.00     0.149 A 
HETATM    6  N4  UNL     1       6.462   9.600  22.757  1.00  0.00    -0.263 N 
HETATM    7  S1  UNL     1       6.246   8.743  24.233  1.00  0.00     0.265 S 
ATOM      8  H4  UNL     1       5.722   9.885  22.115  1.00  0.00     0.180 HD
HETATM    9  O4  UNL     1       5.441   9.497  25.230  1.00  0.00    -0.200 OA
HETATM   10  O5  UNL     1       5.731   7.353  23.999  1.00  0.00    -0.200 OA
HETATM   11  C15 UNL     1       7.950   8.674  24.668  1.00  0.00     0.096 A 
HETATM   12  C16 UNL     1       8.605   8.133  25.744  1.00  0.00     0.068 A 
HETATM   13  C20 UNL     1       8.574   9.322  23.636  1.00  0.00     0.034 A 
HETATM   14  C17 UNL     1       9.970   8.239  25.807  1.00  0.00     0.117 A 
HETATM   15  F1  UNL     1      10.625   7.698  26.885  1.00  0.00    -0.206 F 
HETATM   16  C18 UNL     1      10.640   8.880  24.795  1.00  0.00     0.043 A 
HETATM   17  C19 UNL     1       9.968   9.415  23.728  1.00  0.00     0.020 A 
ENDBRANCH   2   5
ENDBRANCH   1   2
BRANCH   1  18
HETATM   18  C3  UNL     1       7.742   8.593  20.013  1.00  0.00     0.240 C 
HETATM   19  O2  UNL     1       8.351   7.547  20.329  1.00  0.00    -0.271 OA
HETATM   20  N2  UNL     1       6.420   8.472  19.516  1.00  0.00    -0.346 N 
HETATM   21  C4  UNL     1       5.698   9.691  19.137  1.00  0.00     0.153 C 
BRANCH  20  22
HETATM   22  C5  UNL     1       5.737   7.220  19.366  1.00  0.00     0.228 C 
BRANCH  22  23
HETATM   23  C6  UNL     1       6.377   6.446  18.260  1.00  0.00     0.235 C 
HETATM   24  O3  UNL     1       6.323   6.961  17.099  1.00  0.00    -0.272 OA
HETATM   25  N3  UNL     1       7.015   5.211  18.451  1.00  0.00    -0.355 N 
ATOM     26  H3  UNL     1       7.064   4.785  19.376  1.00  0.00     0.162 HD
BRANCH  25  27
HETATM   27  C7  UNL     1       7.606   4.551  17.291  1.00  0.00     0.161 C 
BRANCH  27  28
HETATM   28  C8  UNL     1       8.334   3.323  17.686  1.00  0.00    -0.041 A 
HETATM   29  C9  UNL     1       7.965   2.610  18.793  1.00  0.00     0.009 A 
HETATM   30  C10 UNL     1       8.639   1.468  19.171  1.00  0.00     0.001 A 
HETATM   31  C11 UNL     1       9.714   1.061  18.383  1.00  0.00     0.000 A 
HETATM   32  C12 UNL     1      10.103   1.763  17.265  1.00  0.00     0.001 A 
HETATM   33  C13 UNL     1       9.395   2.902  16.927  1.00  0.00     0.009 A 
ENDBRANCH  27  28
ENDBRANCH  25  27
ENDBRANCH  22  23
ENDBRANCH  20  22
ENDBRANCH   1  18
TORSDOF 8
ENDMDL
