MODEL 1
REMARK VINA RESULT: -6.879923833      0.000      0.000
REMARK  6 active torsions:
REMARK  status: ('A' for Active; 'I' for Inactive)
REMARK    1  A    between atoms: C6_6  and  C7_7 
REMARK    2  A    between atoms: C9_9  and  C10_10 
REMARK    3  A    between atoms: C10_10  and  O1_11 
REMARK    4  A    between atoms: C10_10  and  N1_13 
REMARK    5  A    between atoms: N1_13  and  N2_14 
REMARK    6  A    between atoms: N2_14  and  C11_15 
ROOT
HETATM    1  C7  UNL     1      14.324  30.108  -3.586  1.00  0.00     0.039 A 
HETATM    2  C8  UNL     1      14.752  28.979  -2.948  1.00  0.00     0.066 A 
HETATM    3  C9  UNL     1      14.006  28.847  -1.809  1.00  0.00     0.123 A 
HETATM    4  O2  UNL     1      13.159  29.875  -1.780  1.00  0.00    -0.238 OA
HETATM    5  N3  UNL     1      13.328  30.618  -2.803  1.00  0.00    -0.265 N 
ATOM      6  H3  UNL     1      12.799  31.466  -3.007  1.00  0.00     0.194 HD
ENDROOT
BRANCH   3   7
HETATM    7  C10 UNL     1      14.016  27.841  -0.742  1.00  0.00     0.286 C 
BRANCH   7   8
HETATM    8  O1  UNL     1      13.331  28.388   0.368  1.00  0.00    -0.372 OA
ATOM      9  H1  UNL     1      12.598  27.816   0.565  1.00  0.00     0.212 HD
ENDBRANCH   7   8
BRANCH   7  10
HETATM   10  N1  UNL     1      15.306  27.356  -0.367  1.00  0.00    -0.109 NA
BRANCH  10  11
HETATM   11  N2  UNL     1      15.819  28.104   0.669  1.00  0.00    -0.141 NA
BRANCH  11  12
HETATM   12  C11 UNL     1      17.077  28.753   0.360  1.00  0.00     0.087 C 
HETATM   13  C12 UNL     1      16.841  30.232   0.143  1.00  0.00     0.029 C 
HETATM   14  C13 UNL     1      17.796  28.115  -0.781  1.00  0.00     0.029 C 
ENDBRANCH  11  12
ENDBRANCH  10  11
ENDBRANCH   7  10
ENDBRANCH   3   7
BRANCH   1  15
HETATM   15  C6  UNL     1      14.751  30.738  -4.836  1.00  0.00     0.038 C 
HETATM   16  C5  UNL     1      14.252  30.005  -6.063  1.00  0.00     0.011 C 
HETATM   17  C4  UNL     1      14.921  30.661  -7.253  1.00  0.00     0.001 C 
HETATM   18  C3  UNL     1      14.684  32.128  -7.323  1.00  0.00     0.004 C 
HETATM   19  C2  UNL     1      14.872  32.855  -6.031  1.00  0.00    -0.018 C 
HETATM   20  C1  UNL     1      16.297  33.166  -5.703  1.00  0.00     0.010 C 
HETATM   21  C14 UNL     1      14.159  32.134  -4.910  1.00  0.00     0.015 C 
ENDBRANCH   1  15
TORSDOF 6
ENDMDL
MODEL 2
REMARK VINA RESULT: -6.847665538      6.865      9.411
REMARK  6 active torsions:
REMARK  status: ('A' for Active; 'I' for Inactive)
REMARK    1  A    between atoms: C6_6  and  C7_7 
REMARK    2  A    between atoms: C9_9  and  C10_10 
REMARK    3  A    between atoms: C10_10  and  O1_11 
REMARK    4  A    between atoms: C10_10  and  N1_13 
REMARK    5  A    between atoms: N1_13  and  N2_14 
REMARK    6  A    between atoms: N2_14  and  C11_15 
ROOT
HETATM    1  C7  UNL     1      20.487  36.281  -5.527  1.00  0.00     0.039 A 
HETATM    2  C8  UNL     1      19.946  35.403  -6.423  1.00  0.00     0.066 A 
HETATM    3  C9  UNL     1      20.730  34.282  -6.418  1.00  0.00     0.123 A 
HETATM    4  O2  UNL     1      21.708  34.497  -5.539  1.00  0.00    -0.238 OA
HETATM    5  N3  UNL     1      21.583  35.652  -5.012  1.00  0.00    -0.265 N 
ATOM      6  H3  UNL     1      22.209  36.047  -4.310  1.00  0.00     0.194 HD
ENDROOT
BRANCH   3   7
HETATM    7  C10 UNL     1      20.645  33.023  -7.166  1.00  0.00     0.286 C 
BRANCH   7   8
HETATM    8  O1  UNL     1      21.266  33.227  -8.420  1.00  0.00    -0.372 OA
ATOM      9  H1  UNL     1      21.362  32.378  -8.835  1.00  0.00     0.212 HD
ENDBRANCH   7   8
BRANCH   7  10
HETATM   10  N1  UNL     1      19.328  32.489  -7.321  1.00  0.00    -0.109 NA
BRANCH  10  11
HETATM   11  N2  UNL     1      18.795  32.160  -6.096  1.00  0.00    -0.141 NA
BRANCH  11  12
HETATM   12  C11 UNL     1      17.348  32.104  -6.080  1.00  0.00     0.087 C 
HETATM   13  C12 UNL     1      16.876  30.990  -6.989  1.00  0.00     0.029 C 
HETATM   14  C13 UNL     1      16.711  33.415  -6.404  1.00  0.00     0.029 C 
ENDBRANCH  11  12
ENDBRANCH  10  11
ENDBRANCH   7  10
ENDBRANCH   3   7
BRANCH   1  15
HETATM   15  C6  UNL     1      20.078  37.625  -5.118  1.00  0.00     0.038 C 
HETATM   16  C5  UNL     1      19.378  37.641  -3.775  1.00  0.00     0.011 C 
HETATM   17  C4  UNL     1      18.860  39.052  -3.582  1.00  0.00     0.001 C 
HETATM   18  C3  UNL     1      19.926  40.085  -3.687  1.00  0.00     0.004 C 
HETATM   19  C2  UNL     1      20.845  39.920  -4.853  1.00  0.00    -0.018 C 
HETATM   20  C1  UNL     1      20.300  40.441  -6.145  1.00  0.00     0.010 C 
HETATM   21  C14 UNL     1      21.317  38.487  -4.956  1.00  0.00     0.015 C 
ENDBRANCH   1  15
TORSDOF 6
ENDMDL
MODEL 3
REMARK VINA RESULT: -6.844983192      0.599      1.545
REMARK  6 active torsions:
REMARK  status: ('A' for Active; 'I' for Inactive)
REMARK    1  A    between atoms: C6_6  and  C7_7 
REMARK    2  A    between atoms: C9_9  and  C10_10 
REMARK    3  A    between atoms: C10_10  and  O1_11 
REMARK    4  A    between atoms: C10_10  and  N1_13 
REMARK    5  A    between atoms: N1_13  and  N2_14 
REMARK    6  A    between atoms: N2_14  and  C11_15 
ROOT
HETATM    1  C7  UNL     1      14.071  30.094  -3.551  1.00  0.00     0.039 A 
HETATM    2  C8  UNL     1      14.537  28.899  -3.081  1.00  0.00     0.066 A 
HETATM    3  C9  UNL     1      13.974  28.698  -1.850  1.00  0.00     0.123 A 
HETATM    4  O2  UNL     1      13.197  29.751  -1.603  1.00  0.00    -0.238 OA
HETATM    5  N3  UNL     1      13.240  30.572  -2.579  1.00  0.00    -0.265 N 
ATOM      6  H3  UNL     1      12.730  31.454  -2.627  1.00  0.00     0.194 HD
ENDROOT
BRANCH   3   7
HETATM    7  C10 UNL     1      14.101  27.604  -0.882  1.00  0.00     0.286 C 
BRANCH   7   8
HETATM    8  O1  UNL     1      13.306  27.932   0.241  1.00  0.00    -0.372 OA
ATOM      9  H1  UNL     1      13.588  27.384   0.964  1.00  0.00     0.212 HD
ENDBRANCH   7   8
BRANCH   7  10
HETATM   10  N1  UNL     1      15.437  27.279  -0.493  1.00  0.00    -0.109 NA
BRANCH  10  11
HETATM   11  N2  UNL     1      15.842  28.078   0.552  1.00  0.00    -0.141 NA
BRANCH  11  12
HETATM   12  C11 UNL     1      17.033  28.853   0.273  1.00  0.00     0.087 C 
HETATM   13  C12 UNL     1      16.651  30.299   0.041  1.00  0.00     0.029 C 
HETATM   14  C13 UNL     1      17.846  28.290  -0.844  1.00  0.00     0.029 C 
ENDBRANCH  11  12
ENDBRANCH  10  11
ENDBRANCH   7  10
ENDBRANCH   3   7
BRANCH   1  15
HETATM   15  C6  UNL     1      14.328  30.812  -4.799  1.00  0.00     0.038 C 
HETATM   16  C5  UNL     1      14.834  32.221  -4.572  1.00  0.00     0.011 C 
HETATM   17  C4  UNL     1      14.873  32.885  -5.933  1.00  0.00     0.001 C 
HETATM   18  C3  UNL     1      15.689  32.134  -6.926  1.00  0.00     0.004 C 
HETATM   19  C2  UNL     1      15.432  30.663  -6.964  1.00  0.00    -0.018 C 
HETATM   20  C1  UNL     1      14.224  30.270  -7.755  1.00  0.00     0.010 C 
HETATM   21  C14 UNL     1      15.424  30.091  -5.565  1.00  0.00     0.015 C 
ENDBRANCH   1  15
TORSDOF 6
ENDMDL
MODEL 4
REMARK VINA RESULT: -6.700895099      7.651      9.969
REMARK  6 active torsions:
REMARK  status: ('A' for Active; 'I' for Inactive)
REMARK    1  A    between atoms: C6_6  and  C7_7 
REMARK    2  A    between atoms: C9_9  and  C10_10 
REMARK    3  A    between atoms: C10_10  and  O1_11 
REMARK    4  A    between atoms: C10_10  and  N1_13 
REMARK    5  A    between atoms: N1_13  and  N2_14 
REMARK    6  A    between atoms: N2_14  and  C11_15 
ROOT
HETATM    1  C7  UNL     1      21.653  36.571  -4.014  1.00  0.00     0.039 A 
HETATM    2  C8  UNL     1      21.062  35.432  -4.480  1.00  0.00     0.066 A 
HETATM    3  C9  UNL     1      21.873  34.384  -4.141  1.00  0.00     0.123 A 
HETATM    4  O2  UNL     1      22.917  34.896  -3.491  1.00  0.00    -0.238 OA
HETATM    5  N3  UNL     1      22.807  36.165  -3.407  1.00  0.00    -0.265 N 
ATOM      6  H3  UNL     1      23.480  36.783  -2.954  1.00  0.00     0.194 HD
ENDROOT
BRANCH   3   7
HETATM    7  C10 UNL     1      21.758  32.940  -4.373  1.00  0.00     0.286 C 
BRANCH   7   8
HETATM    8  O1  UNL     1      22.887  32.321  -3.788  1.00  0.00    -0.372 OA
ATOM      9  H1  UNL     1      23.248  31.717  -4.427  1.00  0.00     0.212 HD
ENDBRANCH   7   8
BRANCH   7  10
HETATM   10  N1  UNL     1      21.602  32.548  -5.739  1.00  0.00    -0.109 NA
BRANCH  10  11
HETATM   11  N2  UNL     1      20.268  32.488  -6.073  1.00  0.00    -0.141 NA
BRANCH  11  12
HETATM   12  C11 UNL     1      19.944  33.152  -7.319  1.00  0.00     0.087 C 
HETATM   13  C12 UNL     1      21.214  33.667  -7.961  1.00  0.00     0.029 C 
HETATM   14  C13 UNL     1      18.910  34.217  -7.159  1.00  0.00     0.029 C 
ENDBRANCH  11  12
ENDBRANCH  10  11
ENDBRANCH   7  10
ENDBRANCH   3   7
BRANCH   1  15
HETATM   15  C6  UNL     1      21.245  37.974  -4.083  1.00  0.00     0.038 C 
HETATM   16  C5  UNL     1      22.413  38.916  -4.289  1.00  0.00     0.011 C 
HETATM   17  C4  UNL     1      21.859  40.319  -4.154  1.00  0.00     0.001 C 
HETATM   18  C3  UNL     1      20.729  40.593  -5.082  1.00  0.00     0.004 C 
HETATM   19  C2  UNL     1      19.689  39.521  -5.137  1.00  0.00    -0.018 C 
HETATM   20  C1  UNL     1      18.697  39.569  -4.018  1.00  0.00     0.010 C 
HETATM   21  C14 UNL     1      20.337  38.163  -5.285  1.00  0.00     0.015 C 
ENDBRANCH   1  15
TORSDOF 6
ENDMDL
MODEL 5
REMARK VINA RESULT: -6.620379584      8.196      9.599
REMARK  6 active torsions:
REMARK  status: ('A' for Active; 'I' for Inactive)
REMARK    1  A    between atoms: C6_6  and  C7_7 
REMARK    2  A    between atoms: C9_9  and  C10_10 
REMARK    3  A    between atoms: C10_10  and  O1_11 
REMARK    4  A    between atoms: C10_10  and  N1_13 
REMARK    5  A    between atoms: N1_13  and  N2_14 
REMARK    6  A    between atoms: N2_14  and  C11_15 
ROOT
HETATM    1  C7  UNL     1      21.136  36.388  -5.300  1.00  0.00     0.039 A 
HETATM    2  C8  UNL     1      20.742  35.249  -5.941  1.00  0.00     0.066 A 
HETATM    3  C9  UNL     1      21.815  34.400  -5.961  1.00  0.00     0.123 A 
HETATM    4  O2  UNL     1      22.816  35.027  -5.345  1.00  0.00    -0.238 OA
HETATM    5  N3  UNL     1      22.441  36.182  -4.954  1.00  0.00    -0.265 N 
ATOM      6  H3  UNL     1      23.028  36.853  -4.457  1.00  0.00     0.194 HD
ENDROOT
BRANCH   3   7
HETATM    7  C10 UNL     1      21.987  33.050  -6.507  1.00  0.00     0.286 C 
BRANCH   7   8
HETATM    8  O1  UNL     1      20.698  32.507  -6.721  1.00  0.00    -0.372 OA
ATOM      9  H1  UNL     1      20.082  33.230  -6.750  1.00  0.00     0.212 HD
ENDBRANCH   7   8
BRANCH   7  10
HETATM   10  N1  UNL     1      22.796  32.169  -5.726  1.00  0.00    -0.109 NA
BRANCH  10  11
HETATM   11  N2  UNL     1      22.129  31.787  -4.585  1.00  0.00    -0.141 NA
BRANCH  11  12
HETATM   12  C11 UNL     1      22.987  31.616  -3.431  1.00  0.00     0.087 C 
HETATM   13  C12 UNL     1      24.287  32.358  -3.655  1.00  0.00     0.029 C 
HETATM   14  C13 UNL     1      23.201  30.183  -3.072  1.00  0.00     0.029 C 
ENDBRANCH  11  12
ENDBRANCH  10  11
ENDBRANCH   7  10
ENDBRANCH   3   7
BRANCH   1  15
HETATM   15  C6  UNL     1      20.418  37.624  -4.987  1.00  0.00     0.038 C 
HETATM   16  C5  UNL     1      19.524  37.491  -3.772  1.00  0.00     0.011 C 
HETATM   17  C4  UNL     1      18.722  38.773  -3.691  1.00  0.00     0.001 C 
HETATM   18  C3  UNL     1      19.573  39.993  -3.648  1.00  0.00     0.004 C 
HETATM   19  C2  UNL     1      20.680  40.020  -4.650  1.00  0.00    -0.018 C 
HETATM   20  C1  UNL     1      20.257  40.442  -6.022  1.00  0.00     0.010 C 
HETATM   21  C14 UNL     1      21.428  38.707  -4.648  1.00  0.00     0.015 C 
ENDBRANCH   1  15
TORSDOF 6
ENDMDL
