MODEL 1
REMARK VINA RESULT: -6.161127283      0.000      0.000
REMARK  6 active torsions:
REMARK  status: ('A' for Active; 'I' for Inactive)
REMARK    1  A    between atoms: O1_2  and  C2_3 
REMARK    2  A    between atoms: C2_3  and  C3_5 
REMARK    3  A    between atoms: C3_5  and  C4_6 
REMARK    4  A    between atoms: C3_5  and  S1_10 
REMARK    5  A    between atoms: S1_10  and  C8_11 
REMARK    6  A    between atoms: C9_13  and  N1_14 
ROOT
HETATM    1  C8  UNL     1      14.068  31.339  -5.815  1.00  0.00     0.087 A 
HETATM    2  S2  UNL     1      15.315  30.853  -6.925  1.00  0.00    -0.044 SA
HETATM    3  C9  UNL     1      14.338  30.511  -8.271  1.00  0.00     0.144 A 
HETATM    4  N2  UNL     1      13.113  30.776  -7.828  1.00  0.00    -0.324 N 
ATOM      5  H2  UNL     1      12.305  30.656  -8.439  1.00  0.00     0.169 HD
HETATM    6  C10 UNL     1      12.960  31.192  -6.595  1.00  0.00     0.142 A 
HETATM    7  N3  UNL     1      11.641  31.442  -6.053  1.00  0.00    -0.081 NA
ENDROOT
BRANCH   1   8
HETATM    8  S1  UNL     1      14.345  31.807  -4.122  1.00  0.00    -0.100 SA
BRANCH   8   9
HETATM    9  C3  UNL     1      14.650  30.514  -2.967  1.00  0.00     0.175 C 
BRANCH   9  10
HETATM   10  C2  UNL     1      13.470  29.965  -2.261  1.00  0.00     0.276 C 
HETATM   11  O2  UNL     1      12.296  30.361  -2.617  1.00  0.00    -0.264 OA
BRANCH  10  12
HETATM   12  O1  UNL     1      13.464  29.052  -1.232  1.00  0.00    -0.325 OA
HETATM   13  C1  UNL     1      13.861  27.694  -1.414  1.00  0.00     0.213 C 
ENDBRANCH  10  12
ENDBRANCH   9  10
BRANCH   9  14
HETATM   14  C4  UNL     1      15.620  30.981  -1.938  1.00  0.00     0.001 C 
HETATM   15  C5  UNL     1      16.768  30.360  -1.677  1.00  0.00    -0.090 C 
HETATM   16  C6  UNL     1      17.246  29.142  -2.350  1.00  0.00     0.042 C 
HETATM   17  C7  UNL     1      17.650  30.959  -0.611  1.00  0.00     0.042 C 
ENDBRANCH   9  14
ENDBRANCH   8   9
ENDBRANCH   1   8
BRANCH   3  18
HETATM   18  N1  UNL     1      14.697  30.088  -9.460  1.00  0.00    -0.380 N 
ATOM     19  H12 UNL     1      15.453  29.447  -9.700  1.00  0.00     0.158 HD
ATOM     20  H11 UNL     1      14.294  30.318 -10.368  1.00  0.00     0.158 HD
ENDBRANCH   3  18
TORSDOF 6
ENDMDL
MODEL 2
REMARK VINA RESULT: -6.008279354      1.471      2.246
REMARK  6 active torsions:
REMARK  status: ('A' for Active; 'I' for Inactive)
REMARK    1  A    between atoms: O1_2  and  C2_3 
REMARK    2  A    between atoms: C2_3  and  C3_5 
REMARK    3  A    between atoms: C3_5  and  C4_6 
REMARK    4  A    between atoms: C3_5  and  S1_10 
REMARK    5  A    between atoms: S1_10  and  C8_11 
REMARK    6  A    between atoms: C9_13  and  N1_14 
ROOT
HETATM    1  C8  UNL     1      14.517  30.910  -5.873  1.00  0.00     0.087 A 
HETATM    2  S2  UNL     1      15.607  30.439  -7.142  1.00  0.00    -0.044 SA
HETATM    3  C9  UNL     1      14.508  30.450  -8.438  1.00  0.00     0.144 A 
HETATM    4  N2  UNL     1      13.365  30.806  -7.859  1.00  0.00    -0.324 N 
ATOM      5  H2  UNL     1      12.512  30.895  -8.411  1.00  0.00     0.169 HD
HETATM    6  C10 UNL     1      13.353  31.041  -6.570  1.00  0.00     0.142 A 
HETATM    7  N3  UNL     1      12.122  31.380  -5.889  1.00  0.00    -0.081 NA
ENDROOT
BRANCH   1   8
HETATM    8  S1  UNL     1      14.964  31.064  -4.159  1.00  0.00    -0.100 SA
BRANCH   8   9
HETATM    9  C3  UNL     1      14.012  30.153  -2.992  1.00  0.00     0.175 C 
BRANCH   9  10
HETATM   10  C2  UNL     1      13.053  30.927  -2.170  1.00  0.00     0.276 C 
HETATM   11  O2  UNL     1      11.790  30.752  -2.365  1.00  0.00    -0.264 OA
BRANCH  10  12
HETATM   12  O1  UNL     1      13.346  31.846  -1.189  1.00  0.00    -0.325 OA
HETATM   13  C1  UNL     1      13.747  33.181  -1.490  1.00  0.00     0.213 C 
ENDBRANCH  10  12
ENDBRANCH   9  10
BRANCH   9  14
HETATM   14  C4  UNL     1      14.920  29.424  -2.064  1.00  0.00     0.001 C 
HETATM   15  C5  UNL     1      14.754  28.148  -1.726  1.00  0.00    -0.090 C 
HETATM   16  C6  UNL     1      13.668  27.278  -2.205  1.00  0.00     0.042 C 
HETATM   17  C7  UNL     1      15.763  27.546  -0.780  1.00  0.00     0.042 C 
ENDBRANCH   9  14
ENDBRANCH   8   9
ENDBRANCH   1   8
BRANCH   3  18
HETATM   18  N1  UNL     1      14.726  30.173  -9.701  1.00  0.00    -0.380 N 
ATOM     19  H12 UNL     1      14.086  30.272 -10.489  1.00  0.00     0.158 HD
ATOM     20  H11 UNL     1      15.572  29.807 -10.138  1.00  0.00     0.158 HD
ENDBRANCH   3  18
TORSDOF 6
ENDMDL
MODEL 3
REMARK VINA RESULT: -5.912984386      2.405      2.953
REMARK  6 active torsions:
REMARK  status: ('A' for Active; 'I' for Inactive)
REMARK    1  A    between atoms: O1_2  and  C2_3 
REMARK    2  A    between atoms: C2_3  and  C3_5 
REMARK    3  A    between atoms: C3_5  and  C4_6 
REMARK    4  A    between atoms: C3_5  and  S1_10 
REMARK    5  A    between atoms: S1_10  and  C8_11 
REMARK    6  A    between atoms: C9_13  and  N1_14 
ROOT
HETATM    1  C8  UNL     1      14.978  29.618  -4.188  1.00  0.00     0.087 A 
HETATM    2  S2  UNL     1      16.493  29.475  -5.027  1.00  0.00    -0.044 SA
HETATM    3  C9  UNL     1      16.223  30.632  -6.241  1.00  0.00     0.144 A 
HETATM    4  N2  UNL     1      15.001  31.076  -5.965  1.00  0.00    -0.324 N 
ATOM      5  H2  UNL     1      14.569  31.795  -6.545  1.00  0.00     0.169 HD
HETATM    6  C10 UNL     1      14.361  30.576  -4.936  1.00  0.00     0.142 A 
HETATM    7  N3  UNL     1      13.009  30.992  -4.629  1.00  0.00    -0.081 NA
ENDROOT
BRANCH   1   8
HETATM    8  S1  UNL     1      14.501  28.640  -2.782  1.00  0.00    -0.100 SA
BRANCH   8   9
HETATM    9  C3  UNL     1      14.828  29.309  -1.187  1.00  0.00     0.175 C 
BRANCH   9  10
HETATM   10  C2  UNL     1      14.402  28.493  -0.026  1.00  0.00     0.276 C 
HETATM   11  O2  UNL     1      13.291  27.844  -0.102  1.00  0.00    -0.264 OA
BRANCH  10  12
HETATM   12  O1  UNL     1      15.065  28.333   1.169  1.00  0.00    -0.325 OA
HETATM   13  C1  UNL     1      14.763  29.121   2.320  1.00  0.00     0.213 C 
ENDBRANCH  10  12
ENDBRANCH   9  10
BRANCH   9  14
HETATM   14  C4  UNL     1      14.185  30.646  -1.063  1.00  0.00     0.001 C 
HETATM   15  C5  UNL     1      14.840  31.793  -1.226  1.00  0.00    -0.090 C 
HETATM   16  C6  UNL     1      16.270  31.915  -1.545  1.00  0.00     0.042 C 
HETATM   17  C7  UNL     1      14.048  33.068  -1.076  1.00  0.00     0.042 C 
ENDBRANCH   9  14
ENDBRANCH   8   9
ENDBRANCH   1   8
BRANCH   3  18
HETATM   18  N1  UNL     1      17.019  30.999  -7.216  1.00  0.00    -0.380 N 
ATOM     19  H12 UNL     1      18.030  31.133  -7.189  1.00  0.00     0.158 HD
ATOM     20  H11 UNL     1      16.784  31.223  -8.183  1.00  0.00     0.158 HD
ENDBRANCH   3  18
TORSDOF 6
ENDMDL
MODEL 4
REMARK VINA RESULT: -5.911181913      1.495      1.818
REMARK  6 active torsions:
REMARK  status: ('A' for Active; 'I' for Inactive)
REMARK    1  A    between atoms: O1_2  and  C2_3 
REMARK    2  A    between atoms: C2_3  and  C3_5 
REMARK    3  A    between atoms: C3_5  and  C4_6 
REMARK    4  A    between atoms: C3_5  and  S1_10 
REMARK    5  A    between atoms: S1_10  and  C8_11 
REMARK    6  A    between atoms: C9_13  and  N1_14 
ROOT
HETATM    1  C8  UNL     1      14.916  31.125  -5.622  1.00  0.00     0.087 A 
HETATM    2  S2  UNL     1      13.793  30.793  -6.905  1.00  0.00    -0.044 SA
HETATM    3  C9  UNL     1      14.907  30.554  -8.165  1.00  0.00     0.144 A 
HETATM    4  N2  UNL     1      16.080  30.737  -7.566  1.00  0.00    -0.324 N 
ATOM      5  H2  UNL     1      16.949  30.654  -8.093  1.00  0.00     0.169 HD
HETATM    6  C10 UNL     1      16.102  31.025  -6.287  1.00  0.00     0.142 A 
HETATM    7  N3  UNL     1      17.352  31.283  -5.606  1.00  0.00    -0.081 NA
ENDROOT
BRANCH   1   8
HETATM    8  S1  UNL     1      14.458  31.535  -3.954  1.00  0.00    -0.100 SA
BRANCH   8   9
HETATM    9  C3  UNL     1      14.736  30.313  -2.717  1.00  0.00     0.175 C 
BRANCH   9  10
HETATM   10  C2  UNL     1      13.544  29.832  -1.982  1.00  0.00     0.276 C 
HETATM   11  O2  UNL     1      12.381  30.249  -2.350  1.00  0.00    -0.264 OA
BRANCH  10  12
HETATM   12  O1  UNL     1      13.517  28.965  -0.914  1.00  0.00    -0.325 OA
HETATM   13  C1  UNL     1      13.935  27.606  -1.023  1.00  0.00     0.213 C 
ENDBRANCH  10  12
ENDBRANCH   9  10
BRANCH   9  14
HETATM   14  C4  UNL     1      15.711  30.827  -1.717  1.00  0.00     0.001 C 
HETATM   15  C5  UNL     1      16.888  30.254  -1.478  1.00  0.00    -0.090 C 
HETATM   16  C6  UNL     1      17.397  29.049  -2.151  1.00  0.00     0.042 C 
HETATM   17  C7  UNL     1      17.772  30.897  -0.439  1.00  0.00     0.042 C 
ENDBRANCH   9  14
ENDBRANCH   8   9
ENDBRANCH   1   8
BRANCH   3  18
HETATM   18  N1  UNL     1      14.675  30.264  -9.422  1.00  0.00    -0.380 N 
ATOM     19  H12 UNL     1      13.863  30.510  -9.988  1.00  0.00     0.158 HD
ATOM     20  H11 UNL     1      15.257  29.737 -10.074  1.00  0.00     0.158 HD
ENDBRANCH   3  18
TORSDOF 6
ENDMDL
MODEL 5
REMARK VINA RESULT: -5.890134899      2.062      3.021
REMARK  6 active torsions:
REMARK  status: ('A' for Active; 'I' for Inactive)
REMARK    1  A    between atoms: O1_2  and  C2_3 
REMARK    2  A    between atoms: C2_3  and  C3_5 
REMARK    3  A    between atoms: C3_5  and  C4_6 
REMARK    4  A    between atoms: C3_5  and  S1_10 
REMARK    5  A    between atoms: S1_10  and  C8_11 
REMARK    6  A    between atoms: C9_13  and  N1_14 
ROOT
HETATM    1  C8  UNL     1      15.694  30.826  -5.721  1.00  0.00     0.087 A 
HETATM    2  S2  UNL     1      14.334  30.327  -6.682  1.00  0.00    -0.044 SA
HETATM    3  C9  UNL     1      15.029  30.507  -8.221  1.00  0.00     0.144 A 
HETATM    4  N2  UNL     1      16.257  30.938  -7.947  1.00  0.00    -0.324 N 
ATOM      5  H2  UNL     1      16.915  31.136  -8.700  1.00  0.00     0.169 HD
HETATM    6  C10 UNL     1      16.606  31.104  -6.695  1.00  0.00     0.142 A 
HETATM    7  N3  UNL     1      17.914  31.621  -6.352  1.00  0.00    -0.081 NA
ENDROOT
BRANCH   1   8
HETATM    8  S1  UNL     1      15.693  30.946  -3.948  1.00  0.00    -0.100 SA
BRANCH   8   9
HETATM    9  C3  UNL     1      14.395  30.127  -3.085  1.00  0.00     0.175 C 
BRANCH   9  10
HETATM   10  C2  UNL     1      13.339  30.988  -2.504  1.00  0.00     0.276 C 
HETATM   11  O2  UNL     1      12.169  30.484  -2.309  1.00  0.00    -0.264 OA
BRANCH  10  12
HETATM   12  O1  UNL     1      13.450  32.308  -2.132  1.00  0.00    -0.325 OA
HETATM   13  C1  UNL     1      14.095  32.709  -0.924  1.00  0.00     0.213 C 
ENDBRANCH  10  12
ENDBRANCH   9  10
BRANCH   9  14
HETATM   14  C4  UNL     1      14.968  29.304  -1.984  1.00  0.00     0.001 C 
HETATM   15  C5  UNL     1      14.727  28.003  -1.840  1.00  0.00    -0.090 C 
HETATM   16  C6  UNL     1      13.876  27.194  -2.726  1.00  0.00     0.042 C 
HETATM   17  C7  UNL     1      15.386  27.304  -0.678  1.00  0.00     0.042 C 
ENDBRANCH   9  14
ENDBRANCH   8   9
ENDBRANCH   1   8
BRANCH   3  18
HETATM   18  N1  UNL     1      14.492  30.281  -9.396  1.00  0.00    -0.380 N 
ATOM     19  H12 UNL     1      13.568  29.902  -9.605  1.00  0.00     0.158 HD
ATOM     20  H11 UNL     1      14.891  30.438 -10.321  1.00  0.00     0.158 HD
ENDBRANCH   3  18
TORSDOF 6
ENDMDL
