MODEL 1
REMARK VINA RESULT: -7.060724528      0.000      0.000
REMARK  4 active torsions:
REMARK  status: ('A' for Active; 'I' for Inactive)
REMARK    1  A    between atoms: C2_2  and  N1_3 
REMARK    2  A    between atoms: C2_2  and  C12_21 
REMARK    3  A    between atoms: N1_3  and  C3_5 
REMARK    4  A    between atoms: C10_12  and  N2_13 
ROOT
HETATM    1  C3  UNL     1      22.754  35.135  -4.057  1.00  0.00     0.077 C 
HETATM    2  C4  UNL     1      22.271  35.493  -5.437  1.00  0.00     0.027 C 
HETATM    3  C5  UNL     1      20.891  36.175  -5.409  1.00  0.00     0.033 C 
HETATM    4  C6  UNL     1      20.989  37.518  -4.774  1.00  0.00     0.033 C 
HETATM    5  C7  UNL     1      22.060  37.490  -3.713  1.00  0.00     0.033 C 
HETATM    6  C8  UNL     1      22.133  36.131  -3.079  1.00  0.00     0.027 C 
HETATM    7  C9  UNL     1      19.690  37.946  -4.114  1.00  0.00     0.071 C 
HETATM    8  C10 UNL     1      19.595  39.395  -4.454  1.00  0.00     0.249 C 
HETATM    9  C11 UNL     1      20.494  39.563  -5.614  1.00  0.00     0.120 C 
HETATM   10  N3  UNL     1      20.504  40.733  -6.424  1.00  0.00    -0.086 NA
HETATM   11  N4  UNL     1      21.249  38.529  -5.778  1.00  0.00    -0.371 N 
ATOM     12  H4  UNL     1      21.942  38.436  -6.521  1.00  0.00     0.161 HD
ENDROOT
BRANCH   8  13
HETATM   13  N2  UNL     1      19.975  40.283  -3.404  1.00  0.00    -0.069 N 
ATOM     14  H23 UNL     1      20.960  40.153  -3.171  1.00  0.00     0.275 HD
ATOM     15  H22 UNL     1      19.999  41.244  -3.745  1.00  0.00     0.275 HD
ATOM     16  H21 UNL     1      19.402  40.220  -2.563  1.00  0.00     0.275 HD
ENDBRANCH   8  13
BRANCH   1  17
HETATM   17  N1  UNL     1      24.157  35.181  -3.884  1.00  0.00    -0.407 N 
ATOM     18  H1  UNL     1      24.615  36.076  -3.710  1.00  0.00     0.154 HD
BRANCH  17  19
HETATM   19  C2  UNL     1      24.926  34.006  -3.948  1.00  0.00     0.130 C 
HETATM   20  C1  UNL     1      24.275  32.698  -3.696  1.00  0.00     0.039 C 
BRANCH  19  21
HETATM   21  C12 UNL     1      26.211  34.112  -3.170  1.00  0.00     0.074 A 
HETATM   22  C13 UNL     1      26.988  33.059  -2.764  1.00  0.00     0.037 A 
HETATM   23  C14 UNL     1      28.079  33.593  -2.081  1.00  0.00     0.027 A 
HETATM   24  C15 UNL     1      27.893  34.950  -2.114  1.00  0.00     0.142 A 
HETATM   25  O1  UNL     1      26.784  35.206  -2.764  1.00  0.00    -0.325 OA
ENDBRANCH  19  21
ENDBRANCH  17  19
ENDBRANCH   1  17
TORSDOF 4
ENDMDL
MODEL 2
REMARK VINA RESULT: -7.043547082      4.674      6.800
REMARK  4 active torsions:
REMARK  status: ('A' for Active; 'I' for Inactive)
REMARK    1  A    between atoms: C2_2  and  N1_3 
REMARK    2  A    between atoms: C2_2  and  C12_21 
REMARK    3  A    between atoms: N1_3  and  C3_5 
REMARK    4  A    between atoms: C10_12  and  N2_13 
ROOT
HETATM    1  C3  UNL     1      18.724  35.018  -4.819  1.00  0.00     0.077 C 
HETATM    2  C4  UNL     1      18.067  36.319  -4.445  1.00  0.00     0.027 C 
HETATM    3  C5  UNL     1      19.023  37.251  -3.677  1.00  0.00     0.033 C 
HETATM    4  C6  UNL     1      20.118  37.720  -4.571  1.00  0.00     0.033 C 
HETATM    5  C7  UNL     1      20.439  36.640  -5.573  1.00  0.00     0.033 C 
HETATM    6  C8  UNL     1      20.221  35.284  -4.969  1.00  0.00     0.027 C 
HETATM    7  C9  UNL     1      21.391  38.044  -3.810  1.00  0.00     0.071 C 
HETATM    8  C10 UNL     1      21.886  39.281  -4.482  1.00  0.00     0.249 C 
HETATM    9  C11 UNL     1      20.701  39.825  -5.176  1.00  0.00     0.120 C 
HETATM   10  N3  UNL     1      20.657  41.137  -5.724  1.00  0.00    -0.086 NA
HETATM   11  N4  UNL     1      19.742  38.961  -5.216  1.00  0.00    -0.371 N 
ATOM     12  H4  UNL     1      18.834  39.132  -5.648  1.00  0.00     0.161 HD
ENDROOT
BRANCH   8  13
HETATM   13  N2  UNL     1      22.949  39.073  -5.411  1.00  0.00    -0.069 N 
ATOM     14  H23 UNL     1      23.457  39.944  -5.566  1.00  0.00     0.275 HD
ATOM     15  H22 UNL     1      23.686  38.513  -4.984  1.00  0.00     0.275 HD
ATOM     16  H21 UNL     1      22.665  38.665  -6.301  1.00  0.00     0.275 HD
ENDBRANCH   8  13
BRANCH   1  17
HETATM   17  N1  UNL     1      18.267  34.443  -6.027  1.00  0.00    -0.407 N 
ATOM     18  H1  UNL     1      17.683  34.991  -6.658  1.00  0.00     0.154 HD
BRANCH  17  19
HETATM   19  C2  UNL     1      18.612  33.122  -6.367  1.00  0.00     0.130 C 
HETATM   20  C1  UNL     1      19.607  32.885  -7.439  1.00  0.00     0.039 C 
BRANCH  19  21
HETATM   21  C12 UNL     1      17.406  32.242  -6.565  1.00  0.00     0.074 A 
HETATM   22  C13 UNL     1      16.106  32.673  -6.622  1.00  0.00     0.037 A 
HETATM   23  C14 UNL     1      15.309  31.545  -6.816  1.00  0.00     0.027 A 
HETATM   24  C15 UNL     1      16.184  30.491  -6.863  1.00  0.00     0.142 A 
HETATM   25  O1  UNL     1      17.402  30.951  -6.711  1.00  0.00    -0.325 OA
ENDBRANCH  19  21
ENDBRANCH  17  19
ENDBRANCH   1  17
TORSDOF 4
ENDMDL
MODEL 3
REMARK VINA RESULT: -7.027552811      8.987     11.341
REMARK  4 active torsions:
REMARK  status: ('A' for Active; 'I' for Inactive)
REMARK    1  A    between atoms: C2_2  and  N1_3 
REMARK    2  A    between atoms: C2_2  and  C12_21 
REMARK    3  A    between atoms: N1_3  and  C3_5 
REMARK    4  A    between atoms: C10_12  and  N2_13 
ROOT
HETATM    1  C3  UNL     1      14.682  32.251  -3.417  1.00  0.00     0.077 C 
HETATM    2  C4  UNL     1      13.732  32.217  -2.250  1.00  0.00     0.027 C 
HETATM    3  C5  UNL     1      13.232  30.791  -1.952  1.00  0.00     0.033 C 
HETATM    4  C6  UNL     1      14.349  29.946  -1.446  1.00  0.00     0.033 C 
HETATM    5  C7  UNL     1      15.639  30.389  -2.089  1.00  0.00     0.033 C 
HETATM    6  C8  UNL     1      15.384  30.895  -3.480  1.00  0.00     0.027 C 
HETATM    7  C9  UNL     1      14.153  28.474  -1.761  1.00  0.00     0.071 C 
HETATM    8  C10 UNL     1      14.616  27.794  -0.517  1.00  0.00     0.249 C 
HETATM    9  C11 UNL     1      14.562  28.843   0.521  1.00  0.00     0.120 C 
HETATM   10  N3  UNL     1      14.669  28.564   1.913  1.00  0.00    -0.086 NA
HETATM   11  N4  UNL     1      14.415  30.014  -0.001  1.00  0.00    -0.371 N 
ATOM     12  H4  UNL     1      14.353  30.879   0.537  1.00  0.00     0.161 HD
ENDROOT
BRANCH   8  13
HETATM   13  N2  UNL     1      15.930  27.241  -0.591  1.00  0.00    -0.069 N 
ATOM     14  H23 UNL     1      16.173  27.038  -1.560  1.00  0.00     0.275 HD
ATOM     15  H22 UNL     1      16.626  27.955  -0.379  1.00  0.00     0.275 HD
ATOM     16  H21 UNL     1      16.080  26.417  -0.009  1.00  0.00     0.275 HD
ENDBRANCH   8  13
BRANCH   1  17
HETATM   17  N1  UNL     1      15.682  33.248  -3.345  1.00  0.00    -0.407 N 
ATOM     18  H1  UNL     1      16.531  33.074  -2.808  1.00  0.00     0.154 HD
BRANCH  17  19
HETATM   19  C2  UNL     1      15.518  34.477  -4.009  1.00  0.00     0.130 C 
HETATM   20  C1  UNL     1      16.303  34.750  -5.235  1.00  0.00     0.039 C 
BRANCH  19  21
HETATM   21  C12 UNL     1      15.579  35.654  -3.071  1.00  0.00     0.074 A 
HETATM   22  C13 UNL     1      15.670  35.581  -1.705  1.00  0.00     0.037 A 
HETATM   23  C14 UNL     1      15.703  36.890  -1.226  1.00  0.00     0.027 A 
HETATM   24  C15 UNL     1      15.627  37.682  -2.342  1.00  0.00     0.142 A 
HETATM   25  O1  UNL     1      15.557  36.911  -3.400  1.00  0.00    -0.325 OA
ENDBRANCH  19  21
ENDBRANCH  17  19
ENDBRANCH   1  17
TORSDOF 4
ENDMDL
MODEL 4
REMARK VINA RESULT: -6.979889493      4.840      7.221
REMARK  4 active torsions:
REMARK  status: ('A' for Active; 'I' for Inactive)
REMARK    1  A    between atoms: C2_2  and  N1_3 
REMARK    2  A    between atoms: C2_2  and  C12_21 
REMARK    3  A    between atoms: N1_3  and  C3_5 
REMARK    4  A    between atoms: C10_12  and  N2_13 
ROOT
HETATM    1  C3  UNL     1      17.835  35.594  -4.352  1.00  0.00     0.077 C 
HETATM    2  C4  UNL     1      17.462  37.019  -4.042  1.00  0.00     0.027 C 
HETATM    3  C5  UNL     1      18.629  37.798  -3.408  1.00  0.00     0.033 C 
HETATM    4  C6  UNL     1      19.723  37.990  -4.399  1.00  0.00     0.033 C 
HETATM    5  C7  UNL     1      19.763  36.806  -5.333  1.00  0.00     0.033 C 
HETATM    6  C8  UNL     1      19.340  35.558  -4.612  1.00  0.00     0.027 C 
HETATM    7  C9  UNL     1      21.087  38.112  -3.744  1.00  0.00     0.071 C 
HETATM    8  C10 UNL     1      21.753  39.185  -4.538  1.00  0.00     0.249 C 
HETATM    9  C11 UNL     1      20.643  39.900  -5.200  1.00  0.00     0.120 C 
HETATM   10  N3  UNL     1      20.805  41.158  -5.846  1.00  0.00    -0.086 NA
HETATM   11  N4  UNL     1      19.540  39.235  -5.115  1.00  0.00    -0.371 N 
ATOM     12  H4  UNL     1      18.649  39.548  -5.504  1.00  0.00     0.161 HD
ENDROOT
BRANCH   8  13
HETATM   13  N2  UNL     1      22.687  38.718  -5.511  1.00  0.00    -0.069 N 
ATOM     14  H23 UNL     1      23.097  37.834  -5.210  1.00  0.00     0.275 HD
ATOM     15  H22 UNL     1      22.198  38.409  -6.351  1.00  0.00     0.275 HD
ATOM     16  H21 UNL     1      23.421  39.384  -5.753  1.00  0.00     0.275 HD
ENDBRANCH   8  13
BRANCH   1  17
HETATM   17  N1  UNL     1      17.191  35.040  -5.483  1.00  0.00    -0.407 N 
ATOM     18  H1  UNL     1      17.542  35.249  -6.417  1.00  0.00     0.154 HD
BRANCH  17  19
HETATM   19  C2  UNL     1      16.071  34.203  -5.331  1.00  0.00     0.130 C 
HETATM   20  C1  UNL     1      15.556  33.919  -3.971  1.00  0.00     0.039 C 
BRANCH  19  21
HETATM   21  C12 UNL     1      16.189  32.929  -6.126  1.00  0.00     0.074 A 
HETATM   22  C13 UNL     1      15.182  32.344  -6.849  1.00  0.00     0.037 A 
HETATM   23  C14 UNL     1      15.710  31.191  -7.427  1.00  0.00     0.027 A 
HETATM   24  C15 UNL     1      17.016  31.148  -7.014  1.00  0.00     0.142 A 
HETATM   25  O1  UNL     1      17.250  32.188  -6.252  1.00  0.00    -0.325 OA
ENDBRANCH  19  21
ENDBRANCH  17  19
ENDBRANCH   1  17
TORSDOF 4
ENDMDL
MODEL 5
REMARK VINA RESULT: -6.970691579      5.877      8.615
REMARK  4 active torsions:
REMARK  status: ('A' for Active; 'I' for Inactive)
REMARK    1  A    between atoms: C2_2  and  N1_3 
REMARK    2  A    between atoms: C2_2  and  C12_21 
REMARK    3  A    between atoms: N1_3  and  C3_5 
REMARK    4  A    between atoms: C10_12  and  N2_13 
ROOT
HETATM    1  C3  UNL     1      17.815  34.047  -6.786  1.00  0.00     0.077 C 
HETATM    2  C4  UNL     1      19.177  33.595  -7.240  1.00  0.00     0.027 C 
HETATM    3  C5  UNL     1      20.230  34.711  -7.110  1.00  0.00     0.033 C 
HETATM    4  C6  UNL     1      20.485  35.018  -5.676  1.00  0.00     0.033 C 
HETATM    5  C7  UNL     1      19.216  34.809  -4.888  1.00  0.00     0.033 C 
HETATM    6  C8  UNL     1      18.018  35.134  -5.732  1.00  0.00     0.027 C 
HETATM    7  C9  UNL     1      20.937  36.451  -5.459  1.00  0.00     0.071 C 
HETATM    8  C10 UNL     1      22.000  36.321  -4.420  1.00  0.00     0.249 C 
HETATM    9  C11 UNL     1      22.409  34.903  -4.483  1.00  0.00     0.120 C 
HETATM   10  N3  UNL     1      23.580  34.405  -3.847  1.00  0.00    -0.086 NA
HETATM   11  N4  UNL     1      21.572  34.204  -5.174  1.00  0.00    -0.371 N 
ATOM     12  H4  UNL     1      21.666  33.202  -5.344  1.00  0.00     0.161 HD
ENDROOT
BRANCH   8  13
HETATM   13  N2  UNL     1      21.586  36.656  -3.096  1.00  0.00    -0.069 N 
ATOM     14  H23 UNL     1      22.273  37.268  -2.655  1.00  0.00     0.275 HD
ATOM     15  H22 UNL     1      20.784  37.285  -3.125  1.00  0.00     0.275 HD
ATOM     16  H21 UNL     1      21.387  35.857  -2.495  1.00  0.00     0.275 HD
ENDBRANCH   8  13
BRANCH   1  17
HETATM   17  N1  UNL     1      17.010  33.037  -6.210  1.00  0.00    -0.407 N 
ATOM     18  H1  UNL     1      17.451  32.231  -5.767  1.00  0.00     0.154 HD
BRANCH  17  19
HETATM   19  C2  UNL     1      15.607  33.132  -6.243  1.00  0.00     0.130 C 
HETATM   20  C1  UNL     1      14.856  33.215  -4.969  1.00  0.00     0.039 C 
BRANCH  19  21
HETATM   21  C12 UNL     1      14.980  32.115  -7.160  1.00  0.00     0.074 A 
HETATM   22  C13 UNL     1      15.278  30.778  -7.191  1.00  0.00     0.037 A 
HETATM   23  C14 UNL     1      14.476  30.202  -8.175  1.00  0.00     0.027 A 
HETATM   24  C15 UNL     1      13.735  31.236  -8.685  1.00  0.00     0.142 A 
HETATM   25  O1  UNL     1      14.066  32.339  -8.058  1.00  0.00    -0.325 OA
ENDBRANCH  19  21
ENDBRANCH  17  19
ENDBRANCH   1  17
TORSDOF 4
ENDMDL
