MODEL 1
REMARK VINA RESULT: -5.583533110      0.000      0.000
REMARK  3 active torsions:
REMARK  status: ('A' for Active; 'I' for Inactive)
REMARK    1  A    between atoms: C2_2  and  O2_4 
REMARK    2  A    between atoms: O2_4  and  C3_5 
REMARK    3  A    between atoms: C7_12  and  O3_13 
ROOT
HETATM    1  C3  UNL     1      38.585  22.693  24.663  1.00  0.00     0.300 C 
HETATM    2  C4  UNL     1      37.548  21.767  24.014  1.00  0.00     0.337 C 
HETATM    3  N1  UNL     1      37.936  21.899  22.620  1.00  0.00     0.130 N 
HETATM    4  C5  UNL     1      36.718  21.897  21.842  1.00  0.00     0.357 C 
HETATM    5  C6  UNL     1      37.022  22.888  20.727  1.00  0.00     0.299 C 
HETATM    6  F1  UNL     1      35.884  23.316  20.109  1.00  0.00    -0.201 F 
HETATM    7  F2  UNL     1      37.871  22.374  19.792  1.00  0.00    -0.201 F 
HETATM    8  C7  UNL     1      37.682  24.004  21.545  1.00  0.00     0.251 C 
HETATM    9  C8  UNL     1      38.518  23.213  22.509  1.00  0.00     0.396 C 
HETATM   10  O4  UNL     1      38.558  23.764  23.781  1.00  0.00    -0.322 OA
ENDROOT
BRANCH   1  11
HETATM   11  O2  UNL     1      38.143  23.025  25.955  1.00  0.00    -0.288 OA
BRANCH  11  12
HETATM   12  C2  UNL     1      39.008  23.539  26.897  1.00  0.00     0.257 C 
HETATM   13  C1  UNL     1      40.303  24.184  26.577  1.00  0.00     0.126 C 
HETATM   14  O1  UNL     1      38.689  23.461  28.114  1.00  0.00    -0.266 OA
ENDBRANCH  11  12
ENDBRANCH   1  11
BRANCH   8  15
HETATM   15  O3  UNL     1      38.443  24.757  20.658  1.00  0.00    -0.385 OA
ATOM     16  H3  UNL     1      37.832  25.247  20.120  1.00  0.00     0.210 HD
ENDBRANCH   8  15
TORSDOF 3
ENDMDL
MODEL 2
REMARK VINA RESULT: -5.564645621      3.708      5.117
REMARK  3 active torsions:
REMARK  status: ('A' for Active; 'I' for Inactive)
REMARK    1  A    between atoms: C2_2  and  O2_4 
REMARK    2  A    between atoms: O2_4  and  C3_5 
REMARK    3  A    between atoms: C7_12  and  O3_13 
ROOT
HETATM    1  C3  UNL     1      38.331  19.292  22.898  1.00  0.00     0.300 C 
HETATM    2  C4  UNL     1      38.118  20.233  21.704  1.00  0.00     0.337 C 
HETATM    3  N1  UNL     1      38.515  21.493  22.310  1.00  0.00     0.130 N 
HETATM    4  C5  UNL     1      37.632  22.509  21.785  1.00  0.00     0.357 C 
HETATM    5  C6  UNL     1      37.425  23.433  22.978  1.00  0.00     0.299 C 
HETATM    6  F1  UNL     1      36.334  24.234  22.811  1.00  0.00    -0.201 F 
HETATM    7  F2  UNL     1      38.517  24.210  23.227  1.00  0.00    -0.201 F 
HETATM    8  C7  UNL     1      37.205  22.389  24.078  1.00  0.00     0.251 C 
HETATM    9  C8  UNL     1      38.225  21.350  23.714  1.00  0.00     0.396 C 
HETATM   10  O4  UNL     1      37.785  20.051  23.922  1.00  0.00    -0.322 OA
ENDROOT
BRANCH   1  11
HETATM   11  O2  UNL     1      37.631  18.098  22.656  1.00  0.00    -0.288 OA
BRANCH  11  12
HETATM   12  C2  UNL     1      38.034  17.218  21.674  1.00  0.00     0.257 C 
HETATM   13  C1  UNL     1      39.441  16.815  21.442  1.00  0.00     0.126 C 
HETATM   14  O1  UNL     1      37.160  16.717  20.918  1.00  0.00    -0.266 OA
ENDBRANCH  11  12
ENDBRANCH   1  11
BRANCH   8  15
HETATM   15  O3  UNL     1      37.477  23.017  25.288  1.00  0.00    -0.385 OA
ATOM     16  H3  UNL     1      38.275  22.628  25.626  1.00  0.00     0.210 HD
ENDBRANCH   8  15
TORSDOF 3
ENDMDL
MODEL 3
REMARK VINA RESULT: -5.445730735      2.186      2.827
REMARK  3 active torsions:
REMARK  status: ('A' for Active; 'I' for Inactive)
REMARK    1  A    between atoms: C2_2  and  O2_4 
REMARK    2  A    between atoms: O2_4  and  C3_5 
REMARK    3  A    between atoms: C7_12  and  O3_13 
ROOT
HETATM    1  C3  UNL     1      38.422  23.110  25.353  1.00  0.00     0.300 C 
HETATM    2  C4  UNL     1      38.546  23.558  23.891  1.00  0.00     0.337 C 
HETATM    3  N1  UNL     1      37.693  22.567  23.257  1.00  0.00     0.130 N 
HETATM    4  C5  UNL     1      38.309  22.227  21.994  1.00  0.00     0.357 C 
HETATM    5  C6  UNL     1      38.023  20.738  21.862  1.00  0.00     0.299 C 
HETATM    6  F1  UNL     1      38.837  20.148  20.940  1.00  0.00    -0.201 F 
HETATM    7  F2  UNL     1      36.723  20.486  21.537  1.00  0.00    -0.201 F 
HETATM    8  C7  UNL     1      38.353  20.284  23.289  1.00  0.00     0.251 C 
HETATM    9  C8  UNL     1      37.767  21.402  24.102  1.00  0.00     0.396 C 
HETATM   10  O4  UNL     1      38.532  21.734  25.209  1.00  0.00    -0.322 OA
ENDROOT
BRANCH   1  11
HETATM   11  O2  UNL     1      39.477  23.679  26.086  1.00  0.00    -0.288 OA
BRANCH  11  12
HETATM   12  C2  UNL     1      39.296  24.115  27.382  1.00  0.00     0.257 C 
HETATM   13  C1  UNL     1      39.808  25.402  27.908  1.00  0.00     0.126 C 
HETATM   14  O1  UNL     1      38.655  23.381  28.181  1.00  0.00    -0.266 OA
ENDBRANCH  11  12
ENDBRANCH   1  11
BRANCH   8  15
HETATM   15  O3  UNL     1      37.702  19.071  23.486  1.00  0.00    -0.385 OA
ATOM     16  H3  UNL     1      38.174  18.614  24.172  1.00  0.00     0.210 HD
ENDBRANCH   8  15
TORSDOF 3
ENDMDL
MODEL 4
REMARK VINA RESULT: -5.377372243      3.002      5.932
REMARK  3 active torsions:
REMARK  status: ('A' for Active; 'I' for Inactive)
REMARK    1  A    between atoms: C2_2  and  O2_4 
REMARK    2  A    between atoms: O2_4  and  C3_5 
REMARK    3  A    between atoms: C7_12  and  O3_13 
ROOT
HETATM    1  C3  UNL     1      36.555  23.308  19.937  1.00  0.00     0.300 C 
HETATM    2  C4  UNL     1      37.584  22.186  20.124  1.00  0.00     0.337 C 
HETATM    3  N1  UNL     1      37.080  21.591  21.351  1.00  0.00     0.130 N 
HETATM    4  C5  UNL     1      38.231  21.200  22.134  1.00  0.00     0.357 C 
HETATM    5  C6  UNL     1      37.788  21.488  23.562  1.00  0.00     0.299 C 
HETATM    6  F1  UNL     1      38.849  21.549  24.416  1.00  0.00    -0.201 F 
HETATM    7  F2  UNL     1      36.895  20.567  24.024  1.00  0.00    -0.201 F 
HETATM    8  C7  UNL     1      37.137  22.861  23.359  1.00  0.00     0.251 C 
HETATM    9  C8  UNL     1      36.423  22.664  22.053  1.00  0.00     0.396 C 
HETATM   10  O4  UNL     1      36.455  23.784  21.236  1.00  0.00    -0.322 OA
ENDROOT
BRANCH   1  11
HETATM   11  O2  UNL     1      37.080  24.250  19.036  1.00  0.00    -0.288 OA
BRANCH  11  12
HETATM   12  C2  UNL     1      36.578  24.377  17.758  1.00  0.00     0.257 C 
HETATM   13  C1  UNL     1      37.108  23.654  16.579  1.00  0.00     0.126 C 
HETATM   14  O1  UNL     1      35.606  25.155  17.567  1.00  0.00    -0.266 OA
ENDBRANCH  11  12
ENDBRANCH   1  11
BRANCH   8  15
HETATM   15  O3  UNL     1      36.270  23.057  24.428  1.00  0.00    -0.385 OA
ATOM     16  H3  UNL     1      36.795  23.373  25.154  1.00  0.00     0.210 HD
ENDBRANCH   8  15
TORSDOF 3
ENDMDL
MODEL 5
REMARK VINA RESULT: -5.340002252      3.080      5.857
REMARK  3 active torsions:
REMARK  status: ('A' for Active; 'I' for Inactive)
REMARK    1  A    between atoms: C2_2  and  O2_4 
REMARK    2  A    between atoms: O2_4  and  C3_5 
REMARK    3  A    between atoms: C7_12  and  O3_13 
ROOT
HETATM    1  C3  UNL     1      37.145  23.118  20.243  1.00  0.00     0.300 C 
HETATM    2  C4  UNL     1      38.063  23.970  21.130  1.00  0.00     0.337 C 
HETATM    3  N1  UNL     1      38.496  22.958  22.080  1.00  0.00     0.130 N 
HETATM    4  C5  UNL     1      38.580  23.600  23.371  1.00  0.00     0.357 C 
HETATM    5  C6  UNL     1      38.109  22.512  24.327  1.00  0.00     0.299 C 
HETATM    6  F1  UNL     1      37.752  23.026  25.539  1.00  0.00    -0.201 F 
HETATM    7  F2  UNL     1      39.050  21.543  24.512  1.00  0.00    -0.201 F 
HETATM    8  C7  UNL     1      36.897  21.990  23.547  1.00  0.00     0.251 C 
HETATM    9  C8  UNL     1      37.418  22.004  22.139  1.00  0.00     0.396 C 
HETATM   10  O4  UNL     1      36.466  22.386  21.206  1.00  0.00    -0.322 OA
ENDROOT
BRANCH   1  11
HETATM   11  O2  UNL     1      36.312  23.978  19.507  1.00  0.00    -0.288 OA
BRANCH  11  12
HETATM   12  C2  UNL     1      36.559  24.250  18.178  1.00  0.00     0.257 C 
HETATM   13  C1  UNL     1      37.633  23.611  17.382  1.00  0.00     0.126 C 
HETATM   14  O1  UNL     1      35.833  25.095  17.591  1.00  0.00    -0.266 OA
ENDBRANCH  11  12
ENDBRANCH   1  11
BRANCH   8  15
HETATM   15  O3  UNL     1      36.638  20.708  24.018  1.00  0.00    -0.385 OA
ATOM     16  H3  UNL     1      35.962  20.789  24.680  1.00  0.00     0.210 HD
ENDBRANCH   8  15
TORSDOF 3
ENDMDL
