MODEL 1
REMARK VINA RESULT: -4.709462992      0.000      0.000
REMARK  0 active torsions:
REMARK  status: ('A' for Active; 'I' for Inactive)
ROOT
HETATM    1  O1  UNL     1      37.389  21.735  19.831  1.00  0.00    -0.196 OA
HETATM    2  S1  UNL     1      38.102  23.010  20.302  1.00  0.00     0.310 S 
HETATM    3  O2  UNL     1      36.885  24.090  20.813  1.00  0.00    -0.247 OA
HETATM    4  C1  UNL     1      36.890  24.036  22.168  1.00  0.00     0.303 C 
HETATM    5 CL1  UNL     1      35.220  23.616  22.690  1.00  0.00    -0.088 Cl
HETATM    6  C2  UNL     1      37.844  23.090  22.712  1.00  0.00     0.244 C 
HETATM    7  C3  UNL     1      37.221  21.749  23.121  1.00  0.00     0.241 C 
HETATM    8  O3  UNL     1      38.236  21.001  23.705  1.00  0.00    -0.384 OA
HETATM    9  C4  UNL     1      38.541  21.524  24.953  1.00  0.00     0.194 C 
HETATM   10  C5  UNL     1      38.109  22.971  25.000  1.00  0.00     0.198 C 
HETATM   11  O4  UNL     1      38.474  23.647  23.840  1.00  0.00    -0.347 OA
HETATM   12  O5  UNL     1      38.845  22.782  21.815  1.00  0.00    -0.228 OA
ENDROOT
TORSDOF 0
ENDMDL
MODEL 2
REMARK VINA RESULT: -4.678657042      1.025      1.121
REMARK  0 active torsions:
REMARK  status: ('A' for Active; 'I' for Inactive)
ROOT
HETATM    1  O1  UNL     1      37.121  22.819  19.389  1.00  0.00    -0.196 OA
HETATM    2  S1  UNL     1      38.101  23.560  20.310  1.00  0.00     0.310 S 
HETATM    3  O2  UNL     1      37.156  24.495  21.378  1.00  0.00    -0.247 OA
HETATM    4  C1  UNL     1      37.149  23.818  22.553  1.00  0.00     0.303 C 
HETATM    5 CL1  UNL     1      35.427  23.544  22.998  1.00  0.00    -0.088 Cl
HETATM    6  C2  UNL     1      37.867  22.560  22.507  1.00  0.00     0.244 C 
HETATM    7  C3  UNL     1      36.960  21.336  22.327  1.00  0.00     0.241 C 
HETATM    8  O3  UNL     1      37.783  20.218  22.400  1.00  0.00    -0.384 OA
HETATM    9  C4  UNL     1      38.197  20.030  23.710  1.00  0.00     0.194 C 
HETATM   10  C5  UNL     1      38.099  21.342  24.452  1.00  0.00     0.198 C 
HETATM   11  O4  UNL     1      38.606  22.392  23.693  1.00  0.00    -0.347 OA
HETATM   12  O5  UNL     1      38.774  22.513  21.470  1.00  0.00    -0.228 OA
ENDROOT
TORSDOF 0
ENDMDL
MODEL 3
REMARK VINA RESULT: -4.540945767      1.910      2.670
REMARK  0 active torsions:
REMARK  status: ('A' for Active; 'I' for Inactive)
ROOT
HETATM    1  O1  UNL     1      36.420  23.989  20.091  1.00  0.00    -0.196 OA
HETATM    2  S1  UNL     1      35.635  22.917  20.860  1.00  0.00     0.310 S 
HETATM    3  O2  UNL     1      36.327  21.414  20.445  1.00  0.00    -0.247 OA
HETATM    4  C1  UNL     1      37.106  21.064  21.498  1.00  0.00     0.303 C 
HETATM    5 CL1  UNL     1      38.763  20.775  20.861  1.00  0.00    -0.088 Cl
HETATM    6  C2  UNL     1      37.136  22.053  22.557  1.00  0.00     0.244 C 
HETATM    7  C3  UNL     1      38.379  22.952  22.529  1.00  0.00     0.241 C 
HETATM    8  O3  UNL     1      38.303  23.769  23.651  1.00  0.00    -0.384 OA
HETATM    9  C4  UNL     1      38.564  23.022  24.790  1.00  0.00     0.194 C 
HETATM   10  C5  UNL     1      38.281  21.566  24.500  1.00  0.00     0.198 C 
HETATM   11  O4  UNL     1      37.084  21.411  23.808  1.00  0.00    -0.347 OA
HETATM   12  O5  UNL     1      36.053  22.905  22.508  1.00  0.00    -0.228 OA
ENDROOT
TORSDOF 0
ENDMDL
MODEL 4
REMARK VINA RESULT: -4.341761501      2.319      3.645
REMARK  0 active torsions:
REMARK  status: ('A' for Active; 'I' for Inactive)
ROOT
HETATM    1  O1  UNL     1      38.794  24.017  23.643  1.00  0.00    -0.196 OA
HETATM    2  S1  UNL     1      38.238  22.635  24.013  1.00  0.00     0.310 S 
HETATM    3  O2  UNL     1      36.556  22.694  23.736  1.00  0.00    -0.247 OA
HETATM    4  C1  UNL     1      36.354  22.046  22.562  1.00  0.00     0.303 C 
HETATM    5 CL1  UNL     1      35.475  23.179  21.475  1.00  0.00    -0.088 Cl
HETATM    6  C2  UNL     1      37.574  21.583  21.932  1.00  0.00     0.244 C 
HETATM    7  C3  UNL     1      38.077  22.499  20.808  1.00  0.00     0.241 C 
HETATM    8  O3  UNL     1      39.184  21.871  20.250  1.00  0.00    -0.384 OA
HETATM    9  C4  UNL     1      38.773  20.773  19.510  1.00  0.00     0.194 C 
HETATM   10  C5  UNL     1      37.420  20.322  20.006  1.00  0.00     0.198 C 
HETATM   11  O4  UNL     1      37.373  20.297  21.396  1.00  0.00    -0.347 OA
HETATM   12  O5  UNL     1      38.617  21.477  22.827  1.00  0.00    -0.228 OA
ENDROOT
TORSDOF 0
ENDMDL
MODEL 5
REMARK VINA RESULT: -4.322625327      2.434      3.862
REMARK  0 active torsions:
REMARK  status: ('A' for Active; 'I' for Inactive)
ROOT
HETATM    1  O1  UNL     1      38.537  23.661  23.674  1.00  0.00    -0.196 OA
HETATM    2  S1  UNL     1      38.495  24.114  22.207  1.00  0.00     0.310 S 
HETATM    3  O2  UNL     1      38.778  22.724  21.259  1.00  0.00    -0.247 OA
HETATM    4  C1  UNL     1      37.565  22.349  20.785  1.00  0.00     0.303 C 
HETATM    5 CL1  UNL     1      37.312  20.635  21.273  1.00  0.00    -0.088 Cl
HETATM    6  C2  UNL     1      36.472  23.176  21.256  1.00  0.00     0.244 C 
HETATM    7  C3  UNL     1      35.691  22.564  22.426  1.00  0.00     0.241 C 
HETATM    8  O3  UNL     1      34.632  23.424  22.690  1.00  0.00    -0.384 OA
HETATM    9  C4  UNL     1      33.686  23.322  21.681  1.00  0.00     0.194 C 
HETATM   10  C5  UNL     1      34.351  22.788  20.434  1.00  0.00     0.198 C 
HETATM   11  O4  UNL     1      35.571  23.416  20.202  1.00  0.00    -0.347 OA
HETATM   12  O5  UNL     1      36.901  24.410  21.694  1.00  0.00    -0.228 OA
ENDROOT
TORSDOF 0
ENDMDL
