MODEL 1
REMARK VINA RESULT: -4.982267280      0.000      0.000
REMARK  2 active torsions:
REMARK  status: ('A' for Active; 'I' for Inactive)
REMARK    1  A    between atoms: O1_1  and  C1_3 
REMARK    2  A    between atoms: C7_13  and  C8_14 
ROOT
HETATM    1  C1  UNL     1      37.321  20.667  23.440  1.00  0.00     0.268 C 
HETATM    2  O2  UNL     1      37.755  19.771  22.457  1.00  0.00    -0.334 OA
HETATM    3  C2  UNL     1      37.546  20.236  21.187  1.00  0.00     0.256 C 
HETATM    4  C3  UNL     1      38.641  21.190  20.735  1.00  0.00     0.170 C 
HETATM    5  N1  UNL     1      37.767  22.259  21.071  1.00  0.00    -0.208 NA
HETATM    6  C4  UNL     1      37.925  22.819  22.377  1.00  0.00     0.156 C 
HETATM    7  S1  UNL     1      36.385  23.677  22.787  1.00  0.00    -0.118 SA
HETATM    8  C5  UNL     1      35.110  23.038  21.722  1.00  0.00     0.065 C 
HETATM    9  C6  UNL     1      35.376  21.976  20.989  1.00  0.00     0.114 C 
HETATM   10  N2  UNL     1      36.670  21.391  21.083  1.00  0.00    -0.290 N 
HETATM   11  C7  UNL     1      38.264  21.842  23.439  1.00  0.00     0.099 C 
ENDROOT
BRANCH   1  12
HETATM   12  O1  UNL     1      37.513  20.004  24.669  1.00  0.00    -0.371 OA
ATOM     13  H1  UNL     1      38.007  20.609  25.211  1.00  0.00     0.212 HD
ENDBRANCH   1  12
BRANCH  11  14
HETATM   14  C8  UNL     1      38.255  22.472  24.789  1.00  0.00     0.234 C 
HETATM   15  F1  UNL     1      39.209  23.429  24.910  1.00  0.00    -0.255 F 
ENDBRANCH  11  14
TORSDOF 2
ENDMDL
MODEL 2
REMARK VINA RESULT: -4.852142846      2.905      3.783
REMARK  2 active torsions:
REMARK  status: ('A' for Active; 'I' for Inactive)
REMARK    1  A    between atoms: O1_1  and  C1_3 
REMARK    2  A    between atoms: C7_13  and  C8_14 
ROOT
HETATM    1  C1  UNL     1      38.198  24.067  21.622  1.00  0.00     0.268 C 
HETATM    2  O2  UNL     1      38.693  24.118  22.930  1.00  0.00    -0.334 OA
HETATM    3  C2  UNL     1      37.906  23.438  23.820  1.00  0.00     0.256 C 
HETATM    4  C3  UNL     1      38.193  21.945  23.819  1.00  0.00     0.170 C 
HETATM    5  N1  UNL     1      37.058  21.786  22.980  1.00  0.00    -0.208 NA
HETATM    6  C4  UNL     1      37.308  21.757  21.573  1.00  0.00     0.156 C 
HETATM    7  S1  UNL     1      35.756  22.164  20.738  1.00  0.00    -0.118 SA
HETATM    8  C5  UNL     1      34.704  22.983  21.920  1.00  0.00     0.065 C 
HETATM    9  C6  UNL     1      35.220  23.342  23.077  1.00  0.00     0.114 C 
HETATM   10  N2  UNL     1      36.592  23.059  23.328  1.00  0.00    -0.290 N 
HETATM   11  C7  UNL     1      38.389  22.662  21.113  1.00  0.00     0.099 C 
ENDROOT
BRANCH   1  12
HETATM   12  O1  UNL     1      39.054  24.886  20.860  1.00  0.00    -0.371 OA
ATOM     13  H1  UNL     1      39.595  25.347  21.491  1.00  0.00     0.212 HD
ENDBRANCH   1  12
BRANCH  11  14
HETATM   14  C8  UNL     1      38.484  22.694  19.626  1.00  0.00     0.234 C 
HETATM   15  F1  UNL     1      39.378  21.789  19.154  1.00  0.00    -0.255 F 
ENDBRANCH  11  14
TORSDOF 2
ENDMDL
MODEL 3
REMARK VINA RESULT: -4.804830512      1.443      1.711
REMARK  2 active torsions:
REMARK  status: ('A' for Active; 'I' for Inactive)
REMARK    1  A    between atoms: O1_1  and  C1_3 
REMARK    2  A    between atoms: C7_13  and  C8_14 
ROOT
HETATM    1  C1  UNL     1      37.927  21.709  22.397  1.00  0.00     0.268 C 
HETATM    2  O2  UNL     1      38.697  21.769  21.230  1.00  0.00    -0.334 OA
HETATM    3  C2  UNL     1      38.129  22.552  20.261  1.00  0.00     0.256 C 
HETATM    4  C3  UNL     1      38.415  24.030  20.473  1.00  0.00     0.170 C 
HETATM    5  N1  UNL     1      37.123  24.137  21.055  1.00  0.00    -0.208 NA
HETATM    6  C4  UNL     1      37.058  24.025  22.479  1.00  0.00     0.156 C 
HETATM    7  S1  UNL     1      35.359  23.580  22.910  1.00  0.00    -0.118 SA
HETATM    8  C5  UNL     1      34.589  22.906  21.452  1.00  0.00     0.065 C 
HETATM    9  C6  UNL     1      35.346  22.646  20.406  1.00  0.00     0.114 C 
HETATM   10  N2  UNL     1      36.740  22.916  20.489  1.00  0.00    -0.290 N 
HETATM   11  C7  UNL     1      38.008  23.053  23.072  1.00  0.00     0.099 C 
ENDROOT
BRANCH   1  12
HETATM   12  O1  UNL     1      38.592  20.798  23.242  1.00  0.00    -0.371 OA
ATOM     13  H1  UNL     1      38.552  19.960  22.797  1.00  0.00     0.212 HD
ENDBRANCH   1  12
BRANCH  11  14
HETATM   14  C8  UNL     1      37.773  22.876  24.533  1.00  0.00     0.234 C 
HETATM   15  F1  UNL     1      38.850  23.250  25.269  1.00  0.00    -0.255 F 
ENDBRANCH  11  14
TORSDOF 2
ENDMDL
MODEL 4
REMARK VINA RESULT: -4.703599569      2.371      3.178
REMARK  2 active torsions:
REMARK  status: ('A' for Active; 'I' for Inactive)
REMARK    1  A    between atoms: O1_1  and  C1_3 
REMARK    2  A    between atoms: C7_13  and  C8_14 
ROOT
HETATM    1  C1  UNL     1      38.192  23.074  23.444  1.00  0.00     0.268 C 
HETATM    2  O2  UNL     1      37.282  24.125  23.288  1.00  0.00    -0.334 OA
HETATM    3  C2  UNL     1      36.573  24.043  22.120  1.00  0.00     0.256 C 
HETATM    4  C3  UNL     1      35.389  23.095  22.230  1.00  0.00     0.170 C 
HETATM    5  N1  UNL     1      36.193  22.111  21.594  1.00  0.00    -0.208 NA
HETATM    6  C4  UNL     1      36.894  21.212  22.457  1.00  0.00     0.156 C 
HETATM    7  S1  UNL     1      38.261  20.505  21.505  1.00  0.00    -0.118 SA
HETATM    8  C5  UNL     1      38.563  21.575  20.115  1.00  0.00     0.065 C 
HETATM    9  C6  UNL     1      37.954  22.743  20.076  1.00  0.00     0.114 C 
HETATM   10  N2  UNL     1      37.084  23.092  21.147  1.00  0.00    -0.290 N 
HETATM   11  C7  UNL     1      37.403  21.818  23.710  1.00  0.00     0.099 C 
ENDROOT
BRANCH   1  12
HETATM   12  O1  UNL     1      38.900  23.358  24.629  1.00  0.00    -0.371 OA
ATOM     13  H1  UNL     1      39.509  22.637  24.741  1.00  0.00     0.212 HD
ENDBRANCH   1  12
BRANCH  11  14
HETATM   14  C8  UNL     1      38.254  20.865  24.477  1.00  0.00     0.234 C 
HETATM   15  F1  UNL     1      37.564  19.761  24.857  1.00  0.00    -0.255 F 
ENDBRANCH  11  14
TORSDOF 2
ENDMDL
MODEL 5
REMARK VINA RESULT: -4.573036678      2.296      3.086
REMARK  2 active torsions:
REMARK  status: ('A' for Active; 'I' for Inactive)
REMARK    1  A    between atoms: O1_1  and  C1_3 
REMARK    2  A    between atoms: C7_13  and  C8_14 
ROOT
HETATM    1  C1  UNL     1      37.024  22.885  23.479  1.00  0.00     0.268 C 
HETATM    2  O2  UNL     1      35.746  23.448  23.387  1.00  0.00    -0.334 OA
HETATM    3  C2  UNL     1      35.280  23.496  22.101  1.00  0.00     0.256 C 
HETATM    4  C3  UNL     1      34.679  22.173  21.656  1.00  0.00     0.170 C 
HETATM    5  N1  UNL     1      35.910  21.900  21.002  1.00  0.00    -0.208 NA
HETATM    6  C4  UNL     1      36.863  21.131  21.740  1.00  0.00     0.156 C 
HETATM    7  S1  UNL     1      38.488  21.434  21.006  1.00  0.00    -0.118 SA
HETATM    8  C5  UNL     1      38.387  22.946  20.072  1.00  0.00     0.065 C 
HETATM    9  C6  UNL     1      37.307  23.690  20.196  1.00  0.00     0.114 C 
HETATM   10  N2  UNL     1      36.273  23.249  21.069  1.00  0.00    -0.290 N 
HETATM   11  C7  UNL     1      36.898  21.411  23.196  1.00  0.00     0.099 C 
ENDROOT
BRANCH   1  12
HETATM   12  O1  UNL     1      37.393  23.000  24.834  1.00  0.00    -0.371 OA
ATOM     13  H1  UNL     1      38.297  23.293  24.829  1.00  0.00     0.212 HD
ENDBRANCH   1  12
BRANCH  11  14
HETATM   14  C8  UNL     1      38.017  20.691  23.868  1.00  0.00     0.234 C 
HETATM   15  F1  UNL     1      37.571  19.831  24.816  1.00  0.00    -0.255 F 
ENDBRANCH  11  14
TORSDOF 2
ENDMDL
