MODEL 1
REMARK VINA RESULT: -5.404607955      0.000      0.000
REMARK  0 active torsions:
REMARK  status: ('A' for Active; 'I' for Inactive)
ROOT
HETATM    1  O1  UNL     1      37.118  20.094  24.677  1.00  0.00    -0.194 OA
HETATM    2  S1  UNL     1      38.235  21.026  24.426  1.00  0.00     0.328 S 
HETATM    3  O2  UNL     1      38.712  21.272  22.850  1.00  0.00    -0.270 OA
HETATM    4  C1  UNL     1      37.931  20.904  21.820  1.00  0.00     0.225 C 
HETATM    5  C2  UNL     1      37.172  22.026  21.120  1.00  0.00     0.186 C 
HETATM    6  O3  UNL     1      38.014  22.816  20.413  1.00  0.00    -0.377 OA
HETATM    7  C3  UNL     1      38.003  24.195  20.741  1.00  0.00     0.198 C 
HETATM    8  C4  UNL     1      38.378  24.203  22.172  1.00  0.00     0.029 C 
HETATM    9  C5  UNL     1      37.578  23.458  22.940  1.00  0.00     0.068 C 
HETATM   10  N1  UNL     1      38.025  23.512  24.278  1.00  0.00    -0.251 N 
ATOM     11  H1  UNL     1      38.377  24.425  24.565  1.00  0.00     0.195 HD
HETATM   12  O4  UNL     1      38.072  22.544  25.277  1.00  0.00    -0.149 OA
HETATM   13  C6  UNL     1      36.459  22.762  22.249  1.00  0.00     0.252 C 
HETATM   14  F1  UNL     1      35.499  23.623  21.856  1.00  0.00    -0.240 F 
ENDROOT
TORSDOF 0
ENDMDL
MODEL 2
REMARK VINA RESULT: -5.272838908      2.624      3.536
REMARK  0 active torsions:
REMARK  status: ('A' for Active; 'I' for Inactive)
ROOT
HETATM    1  O1  UNL     1      35.212  23.566  19.635  1.00  0.00    -0.194 OA
HETATM    2  S1  UNL     1      34.902  22.955  20.943  1.00  0.00     0.328 S 
HETATM    3  O2  UNL     1      35.909  21.755  21.506  1.00  0.00    -0.270 OA
HETATM    4  C1  UNL     1      37.126  21.558  20.971  1.00  0.00     0.225 C 
HETATM    5  C2  UNL     1      38.307  22.082  21.780  1.00  0.00     0.186 C 
HETATM    6  O3  UNL     1      38.498  21.342  22.898  1.00  0.00    -0.377 OA
HETATM    7  C3  UNL     1      38.465  22.044  24.128  1.00  0.00     0.198 C 
HETATM    8  C4  UNL     1      37.113  22.642  24.139  1.00  0.00     0.029 C 
HETATM    9  C5  UNL     1      36.856  23.405  23.072  1.00  0.00     0.068 C 
HETATM   10  N1  UNL     1      35.541  23.913  23.161  1.00  0.00    -0.251 N 
ATOM     11  H1  UNL     1      35.253  24.165  24.107  1.00  0.00     0.195 HD
HETATM   12  O4  UNL     1      34.567  24.132  22.192  1.00  0.00    -0.149 OA
HETATM   13  C6  UNL     1      37.950  23.535  22.073  1.00  0.00     0.252 C 
HETATM   14  F1  UNL     1      38.965  24.293  22.536  1.00  0.00    -0.240 F 
ENDROOT
TORSDOF 0
ENDMDL
MODEL 3
REMARK VINA RESULT: -5.041095372      2.284      3.439
REMARK  0 active torsions:
REMARK  status: ('A' for Active; 'I' for Inactive)
ROOT
HETATM    1  O1  UNL     1      37.078  21.710  19.206  1.00  0.00    -0.194 OA
HETATM    2  S1  UNL     1      38.130  21.238  20.128  1.00  0.00     0.328 S 
HETATM    3  O2  UNL     1      38.915  22.368  21.066  1.00  0.00    -0.270 OA
HETATM    4  C1  UNL     1      38.417  23.606  21.229  1.00  0.00     0.225 C 
HETATM    5  C2  UNL     1      37.728  23.881  22.560  1.00  0.00     0.186 C 
HETATM    6  O3  UNL     1      38.626  23.930  23.572  1.00  0.00    -0.377 OA
HETATM    7  C3  UNL     1      38.414  23.028  24.644  1.00  0.00     0.198 C 
HETATM    8  C4  UNL     1      38.463  21.705  23.984  1.00  0.00     0.029 C 
HETATM    9  C5  UNL     1      37.588  21.572  22.983  1.00  0.00     0.068 C 
HETATM   10  N1  UNL     1      37.723  20.291  22.405  1.00  0.00    -0.251 N 
ATOM     11  H1  UNL     1      37.916  19.548  23.076  1.00  0.00     0.195 HD
HETATM   12  O4  UNL     1      37.641  19.859  21.084  1.00  0.00    -0.149 OA
HETATM   13  C6  UNL     1      36.719  22.747  22.704  1.00  0.00     0.252 C 
HETATM   14  F1  UNL     1      35.791  22.924  23.667  1.00  0.00    -0.240 F 
ENDROOT
TORSDOF 0
ENDMDL
MODEL 4
REMARK VINA RESULT: -5.008358125      2.726      3.953
REMARK  0 active torsions:
REMARK  status: ('A' for Active; 'I' for Inactive)
ROOT
HETATM    1  O1  UNL     1      35.827  21.852  18.841  1.00  0.00    -0.194 OA
HETATM    2  S1  UNL     1      36.315  23.130  19.395  1.00  0.00     0.328 S 
HETATM    3  O2  UNL     1      35.944  23.491  20.977  1.00  0.00    -0.270 OA
HETATM    4  C1  UNL     1      35.503  22.545  21.823  1.00  0.00     0.225 C 
HETATM    5  C2  UNL     1      36.521  22.013  22.825  1.00  0.00     0.186 C 
HETATM    6  O3  UNL     1      36.815  22.947  23.761  1.00  0.00    -0.377 OA
HETATM    7  C3  UNL     1      38.181  23.303  23.885  1.00  0.00     0.198 C 
HETATM    8  C4  UNL     1      38.519  23.811  22.537  1.00  0.00     0.029 C 
HETATM    9  C5  UNL     1      38.274  22.936  21.557  1.00  0.00     0.068 C 
HETATM   10  N1  UNL     1      38.606  23.515  20.313  1.00  0.00    -0.251 N 
ATOM     11  H1  UNL     1      39.439  24.105  20.336  1.00  0.00     0.195 HD
HETATM   12  O4  UNL     1      38.005  23.427  19.061  1.00  0.00    -0.149 OA
HETATM   13  C6  UNL     1      37.721  21.618  21.971  1.00  0.00     0.252 C 
HETATM   14  F1  UNL     1      38.645  20.860  22.596  1.00  0.00    -0.240 F 
ENDROOT
TORSDOF 0
ENDMDL
MODEL 5
REMARK VINA RESULT: -4.835760111      2.351      3.954
REMARK  0 active torsions:
REMARK  status: ('A' for Active; 'I' for Inactive)
ROOT
HETATM    1  O1  UNL     1      37.042  24.401  19.340  1.00  0.00    -0.194 OA
HETATM    2  S1  UNL     1      37.730  23.136  19.664  1.00  0.00     0.328 S 
HETATM    3  O2  UNL     1      38.728  23.105  20.997  1.00  0.00    -0.270 OA
HETATM    4  C1  UNL     1      38.676  24.071  21.929  1.00  0.00     0.225 C 
HETATM    5  C2  UNL     1      37.955  23.716  23.224  1.00  0.00     0.186 C 
HETATM    6  O3  UNL     1      38.671  22.825  23.950  1.00  0.00    -0.377 OA
HETATM    7  C3  UNL     1      38.015  21.612  24.276  1.00  0.00     0.198 C 
HETATM    8  C4  UNL     1      37.687  21.041  22.951  1.00  0.00     0.029 C 
HETATM    9  C5  UNL     1      36.963  21.857  22.180  1.00  0.00     0.068 C 
HETATM   10  N1  UNL     1      36.719  21.237  20.935  1.00  0.00    -0.251 N 
ATOM     11  H1  UNL     1      36.548  20.233  20.995  1.00  0.00     0.195 HD
HETATM   12  O4  UNL     1      36.668  21.748  19.642  1.00  0.00    -0.149 OA
HETATM   13  C6  UNL     1      36.604  23.176  22.768  1.00  0.00     0.252 C 
HETATM   14  F1  UNL     1      35.677  23.056  23.740  1.00  0.00    -0.240 F 
ENDROOT
TORSDOF 0
ENDMDL
