MODEL 1
REMARK VINA RESULT: -5.321470544      0.000      0.000
REMARK  2 active torsions:
REMARK  status: ('A' for Active; 'I' for Inactive)
REMARK    1  A    between atoms: N1_2  and  C1_4 
REMARK    2  A    between atoms: C3_6  and  O3_7 
ROOT
HETATM    1  C1  UNL     1      36.418  22.975  22.714  1.00  0.00     0.114 C 
HETATM    2  C2  UNL     1      36.927  23.405  23.827  1.00  0.00     0.040 C 
HETATM    3  C3  UNL     1      38.040  22.740  24.499  1.00  0.00     0.164 C 
HETATM    4  C4  UNL     1      38.505  21.464  23.899  1.00  0.00     0.150 C 
HETATM    5 CL1  UNL     1      37.529  20.129  24.602  1.00  0.00    -0.119 Cl
HETATM    6  C5  UNL     1      38.299  21.408  22.409  1.00  0.00     0.219 C 
HETATM    7  O4  UNL     1      38.589  22.535  21.689  1.00  0.00    -0.230 OA
HETATM    8  O5  UNL     1      37.605  22.182  20.855  1.00  0.00    -0.226 OA
HETATM    9  C6  UNL     1      36.912  21.767  22.012  1.00  0.00     0.249 C 
ENDROOT
BRANCH   1  10
HETATM   10  N1  UNL     1      35.330  23.671  22.103  1.00  0.00    -0.117 N 
HETATM   11  O1  UNL     1      34.827  24.624  22.707  1.00  0.00    -0.532 OA
HETATM   12  O2  UNL     1      34.827  23.321  20.887  1.00  0.00    -0.532 OA
ENDBRANCH   1  10
BRANCH   3  13
HETATM   13  O3  UNL     1      37.722  22.504  25.853  1.00  0.00    -0.390 OA
ATOM     14  H3  UNL     1      37.911  21.603  26.083  1.00  0.00     0.210 HD
ENDBRANCH   3  13
TORSDOF 2
ENDMDL
MODEL 2
REMARK VINA RESULT: -5.190482781      2.369      3.983
REMARK  2 active torsions:
REMARK  status: ('A' for Active; 'I' for Inactive)
REMARK    1  A    between atoms: N1_2  and  C1_4 
REMARK    2  A    between atoms: C3_6  and  O3_7 
ROOT
HETATM    1  C1  UNL     1      37.817  22.896  22.956  1.00  0.00     0.114 C 
HETATM    2  C2  UNL     1      38.567  23.434  22.044  1.00  0.00     0.040 C 
HETATM    3  C3  UNL     1      38.118  23.642  20.671  1.00  0.00     0.164 C 
HETATM    4  C4  UNL     1      36.777  23.107  20.327  1.00  0.00     0.150 C 
HETATM    5 CL1  UNL     1      36.977  21.399  19.802  1.00  0.00    -0.119 Cl
HETATM    6  C5  UNL     1      35.835  23.087  21.500  1.00  0.00     0.219 C 
HETATM    7  O4  UNL     1      35.836  24.177  22.329  1.00  0.00    -0.230 OA
HETATM    8  O5  UNL     1      35.547  23.339  23.330  1.00  0.00    -0.226 OA
HETATM    9  C6  UNL     1      36.432  22.440  22.698  1.00  0.00     0.249 C 
ENDROOT
BRANCH   1  10
HETATM   10  N1  UNL     1      38.314  22.719  24.284  1.00  0.00    -0.117 N 
HETATM   11  O1  UNL     1      38.598  23.723  24.946  1.00  0.00    -0.532 OA
HETATM   12  O2  UNL     1      38.485  21.490  24.844  1.00  0.00    -0.532 OA
ENDBRANCH   1  10
BRANCH   3  13
HETATM   13  O3  UNL     1      39.057  23.108  19.764  1.00  0.00    -0.390 OA
ATOM     14  H3  UNL     1      38.841  22.206  19.559  1.00  0.00     0.210 HD
ENDBRANCH   3  13
TORSDOF 2
ENDMDL
MODEL 3
REMARK VINA RESULT: -5.139230945      2.093      2.351
REMARK  2 active torsions:
REMARK  status: ('A' for Active; 'I' for Inactive)
REMARK    1  A    between atoms: N1_2  and  C1_4 
REMARK    2  A    between atoms: C3_6  and  O3_7 
ROOT
HETATM    1  C1  UNL     1      35.843  23.146  21.102  1.00  0.00     0.114 C 
HETATM    2  C2  UNL     1      35.663  23.447  22.352  1.00  0.00     0.040 C 
HETATM    3  C3  UNL     1      36.767  23.693  23.275  1.00  0.00     0.164 C 
HETATM    4  C4  UNL     1      38.135  23.477  22.740  1.00  0.00     0.150 C 
HETATM    5 CL1  UNL     1      38.563  21.749  22.986  1.00  0.00    -0.119 Cl
HETATM    6  C5  UNL     1      38.233  23.737  21.261  1.00  0.00     0.219 C 
HETATM    7  O4  UNL     1      37.576  24.832  20.767  1.00  0.00    -0.230 OA
HETATM    8  O5  UNL     1      37.386  24.134  19.642  1.00  0.00    -0.226 OA
HETATM    9  C6  UNL     1      37.185  23.022  20.487  1.00  0.00     0.249 C 
ENDROOT
BRANCH   1  10
HETATM   10  N1  UNL     1      34.721  22.917  20.248  1.00  0.00    -0.117 N 
HETATM   11  O1  UNL     1      34.399  21.751  19.998  1.00  0.00    -0.532 OA
HETATM   12  O2  UNL     1      33.999  23.932  19.701  1.00  0.00    -0.532 OA
ENDBRANCH   1  10
BRANCH   3  13
HETATM   13  O3  UNL     1      36.615  22.909  24.437  1.00  0.00    -0.390 OA
ATOM     14  H3  UNL     1      37.052  22.073  24.330  1.00  0.00     0.210 HD
ENDBRANCH   3  13
TORSDOF 2
ENDMDL
MODEL 4
REMARK VINA RESULT: -5.137529698      2.129      3.267
REMARK  2 active torsions:
REMARK  status: ('A' for Active; 'I' for Inactive)
REMARK    1  A    between atoms: N1_2  and  C1_4 
REMARK    2  A    between atoms: C3_6  and  O3_7 
ROOT
HETATM    1  C1  UNL     1      38.193  21.868  21.642  1.00  0.00     0.114 C 
HETATM    2  C2  UNL     1      37.893  20.972  22.531  1.00  0.00     0.040 C 
HETATM    3  C3  UNL     1      37.358  21.309  23.847  1.00  0.00     0.164 C 
HETATM    4  C4  UNL     1      37.269  22.755  24.172  1.00  0.00     0.150 C 
HETATM    5 CL1  UNL     1      38.837  23.263  24.888  1.00  0.00    -0.119 Cl
HETATM    6  C5  UNL     1      37.053  23.616  22.957  1.00  0.00     0.219 C 
HETATM    7  O4  UNL     1      36.164  23.171  22.017  1.00  0.00    -0.230 OA
HETATM    8  O5  UNL     1      36.932  23.765  21.097  1.00  0.00    -0.226 OA
HETATM    9  C6  UNL     1      38.025  23.321  21.871  1.00  0.00     0.249 C 
ENDROOT
BRANCH   1  10
HETATM   10  N1  UNL     1      38.713  21.474  20.371  1.00  0.00    -0.117 N 
HETATM   11  O1  UNL     1      38.545  20.308  20.000  1.00  0.00    -0.532 OA
HETATM   12  O2  UNL     1      39.385  22.334  19.557  1.00  0.00    -0.532 OA
ENDBRANCH   1  10
BRANCH   3  13
HETATM   13  O3  UNL     1      38.107  20.672  24.857  1.00  0.00    -0.390 OA
ATOM     14  H3  UNL     1      37.876  19.752  24.908  1.00  0.00     0.210 HD
ENDBRANCH   3  13
TORSDOF 2
ENDMDL
MODEL 5
REMARK VINA RESULT: -5.097707438      1.760      1.893
REMARK  2 active torsions:
REMARK  status: ('A' for Active; 'I' for Inactive)
REMARK    1  A    between atoms: N1_2  and  C1_4 
REMARK    2  A    between atoms: C3_6  and  O3_7 
ROOT
HETATM    1  C1  UNL     1      35.659  23.150  21.661  1.00  0.00     0.114 C 
HETATM    2  C2  UNL     1      35.797  23.508  22.900  1.00  0.00     0.040 C 
HETATM    3  C3  UNL     1      37.099  23.628  23.550  1.00  0.00     0.164 C 
HETATM    4  C4  UNL     1      38.277  23.212  22.748  1.00  0.00     0.150 C 
HETATM    5 CL1  UNL     1      38.526  21.449  22.996  1.00  0.00    -0.119 Cl
HETATM    6  C5  UNL     1      38.080  23.413  21.270  1.00  0.00     0.219 C 
HETATM    7  O4  UNL     1      37.475  24.573  20.865  1.00  0.00    -0.230 OA
HETATM    8  O5  UNL     1      36.955  23.875  19.849  1.00  0.00    -0.226 OA
HETATM    9  C6  UNL     1      36.805  22.826  20.780  1.00  0.00     0.249 C 
ENDROOT
BRANCH   1  10
HETATM   10  N1  UNL     1      34.356  23.052  21.081  1.00  0.00    -0.117 N 
HETATM   11  O1  UNL     1      33.702  24.087  20.922  1.00  0.00    -0.532 OA
HETATM   12  O2  UNL     1      33.813  21.863  20.699  1.00  0.00    -0.532 OA
ENDBRANCH   1  10
BRANCH   3  13
HETATM   13  O3  UNL     1      37.108  22.905  24.761  1.00  0.00    -0.390 OA
ATOM     14  H3  UNL     1      37.982  22.581  24.944  1.00  0.00     0.210 HD
ENDBRANCH   3  13
TORSDOF 2
ENDMDL
