MODEL 1
REMARK VINA RESULT: -5.195579798      0.000      0.000
REMARK  1 active torsions:
REMARK  status: ('A' for Active; 'I' for Inactive)
REMARK    1  A    between atoms: O1_1  and  C1_3 
ROOT
HETATM    1  C1  UNL     1      37.980  23.484  23.912  1.00  0.00     0.307 C 
HETATM    2  O2  UNL     1      38.764  23.657  22.780  1.00  0.00    -0.317 OA
HETATM    3  C2  UNL     1      38.043  23.473  21.631  1.00  0.00     0.221 C 
HETATM    4  C3  UNL     1      38.541  22.258  20.886  1.00  0.00     0.076 C 
HETATM    5  C4  UNL     1      38.270  22.285  19.429  1.00  0.00     0.032 C 
HETATM    6  C5  UNL     1      37.342  23.312  18.943  1.00  0.00     0.168 C 
HETATM    7  O3  UNL     1      37.146  24.414  19.704  1.00  0.00    -0.386 OA
HETATM    8  C6  UNL     1      38.158  24.639  20.658  1.00  0.00     0.239 C 
HETATM    9  O4  UNL     1      36.683  23.350  21.932  1.00  0.00    -0.197 OA
HETATM   10  O5  UNL     1      36.553  22.166  22.523  1.00  0.00    -0.212 OA
HETATM   11  C7  UNL     1      37.036  22.324  23.815  1.00  0.00     0.310 C 
HETATM   12 CL1  UNL     1      37.730  20.819  24.464  1.00  0.00    -0.087 Cl
ENDROOT
BRANCH   1  13
HETATM   13  O1  UNL     1      38.834  23.379  25.004  1.00  0.00    -0.367 OA
ATOM     14  H1  UNL     1      39.490  22.725  24.796  1.00  0.00     0.212 HD
ENDBRANCH   1  13
TORSDOF 1
ENDMDL
MODEL 2
REMARK VINA RESULT: -4.990404970      2.142      4.190
REMARK  1 active torsions:
REMARK  status: ('A' for Active; 'I' for Inactive)
REMARK    1  A    between atoms: O1_1  and  C1_3 
ROOT
HETATM    1  C1  UNL     1      37.427  23.954  19.781  1.00  0.00     0.307 C 
HETATM    2  O2  UNL     1      36.738  23.765  20.970  1.00  0.00    -0.317 OA
HETATM    3  C2  UNL     1      37.523  23.172  21.922  1.00  0.00     0.221 C 
HETATM    4  C3  UNL     1      36.995  21.798  22.258  1.00  0.00     0.076 C 
HETATM    5  C4  UNL     1      37.368  21.318  23.610  1.00  0.00     0.032 C 
HETATM    6  C5  UNL     1      38.396  22.079  24.328  1.00  0.00     0.168 C 
HETATM    7  O3  UNL     1      38.614  23.365  23.966  1.00  0.00    -0.386 OA
HETATM    8  C6  UNL     1      37.556  23.942  23.236  1.00  0.00     0.239 C 
HETATM    9  O4  UNL     1      38.847  23.102  21.478  1.00  0.00    -0.197 OA
HETATM   10  O5  UNL     1      38.853  22.186  20.515  1.00  0.00    -0.212 OA
HETATM   11  C7  UNL     1      38.294  22.793  19.399  1.00  0.00     0.310 C 
HETATM   12 CL1  UNL     1      37.455  21.628  18.348  1.00  0.00    -0.087 Cl
ENDROOT
BRANCH   1  13
HETATM   13  O1  UNL     1      36.494  24.263  18.797  1.00  0.00    -0.367 OA
ATOM     14  H1  UNL     1      36.329  25.197  18.839  1.00  0.00     0.212 HD
ENDBRANCH   1  13
TORSDOF 1
ENDMDL
MODEL 3
REMARK VINA RESULT: -4.679207754      2.496      4.410
REMARK  1 active torsions:
REMARK  status: ('A' for Active; 'I' for Inactive)
REMARK    1  A    between atoms: O1_1  and  C1_3 
ROOT
HETATM    1  C1  UNL     1      38.130  22.124  19.896  1.00  0.00     0.307 C 
HETATM    2  O2  UNL     1      38.910  21.535  20.880  1.00  0.00    -0.317 OA
HETATM    3  C2  UNL     1      38.172  21.219  21.990  1.00  0.00     0.221 C 
HETATM    4  C3  UNL     1      38.619  22.047  23.171  1.00  0.00     0.076 C 
HETATM    5  C4  UNL     1      38.336  21.427  24.488  1.00  0.00     0.032 C 
HETATM    6  C5  UNL     1      37.443  20.264  24.500  1.00  0.00     0.168 C 
HETATM    7  O3  UNL     1      37.295  19.555  23.355  1.00  0.00    -0.386 OA
HETATM    8  C6  UNL     1      38.323  19.764  22.415  1.00  0.00     0.239 C 
HETATM    9  O4  UNL     1      36.812  21.411  21.732  1.00  0.00    -0.197 OA
HETATM   10  O5  UNL     1      36.643  22.728  21.663  1.00  0.00    -0.212 OA
HETATM   11  C7  UNL     1      37.142  23.118  20.428  1.00  0.00     0.310 C 
HETATM   12 CL1  UNL     1      37.785  24.777  20.454  1.00  0.00    -0.087 Cl
ENDROOT
BRANCH   1  13
HETATM   13  O1  UNL     1      38.989  22.685  18.957  1.00  0.00    -0.367 OA
ATOM     14  H1  UNL     1      39.124  22.043  18.270  1.00  0.00     0.212 HD
ENDBRANCH   1  13
TORSDOF 1
ENDMDL
MODEL 4
REMARK VINA RESULT: -4.658816247      2.202      4.196
REMARK  1 active torsions:
REMARK  status: ('A' for Active; 'I' for Inactive)
REMARK    1  A    between atoms: O1_1  and  C1_3 
ROOT
HETATM    1  C1  UNL     1      36.681  22.092  20.133  1.00  0.00     0.307 C 
HETATM    2  O2  UNL     1      36.276  21.923  21.450  1.00  0.00    -0.317 OA
HETATM    3  C2  UNL     1      37.244  22.322  22.333  1.00  0.00     0.221 C 
HETATM    4  C3  UNL     1      37.759  21.138  23.117  1.00  0.00     0.076 C 
HETATM    5  C4  UNL     1      38.339  21.490  24.435  1.00  0.00     0.032 C 
HETATM    6  C5  UNL     1      38.590  22.911  24.695  1.00  0.00     0.168 C 
HETATM    7  O3  UNL     1      37.902  23.828  23.975  1.00  0.00    -0.386 OA
HETATM    8  C6  UNL     1      36.738  23.322  23.365  1.00  0.00     0.239 C 
HETATM    9  O4  UNL     1      38.284  22.958  21.650  1.00  0.00    -0.197 OA
HETATM   10  O5  UNL     1      38.912  21.998  20.979  1.00  0.00    -0.212 OA
HETATM   11  C7  UNL     1      38.106  21.697  19.889  1.00  0.00     0.310 C 
HETATM   12 CL1  UNL     1      38.269  20.000  19.378  1.00  0.00    -0.087 Cl
ENDROOT
BRANCH   1  13
HETATM   13  O1  UNL     1      35.793  21.391  19.325  1.00  0.00    -0.367 OA
ATOM     14  H1  UNL     1      36.102  20.495  19.267  1.00  0.00     0.212 HD
ENDBRANCH   1  13
TORSDOF 1
ENDMDL
MODEL 5
REMARK VINA RESULT: -4.628643848      2.637      3.090
REMARK  1 active torsions:
REMARK  status: ('A' for Active; 'I' for Inactive)
REMARK    1  A    between atoms: O1_1  and  C1_3 
ROOT
HETATM    1  C1  UNL     1      34.666  23.990  23.005  1.00  0.00     0.307 C 
HETATM    2  O2  UNL     1      35.857  23.319  23.242  1.00  0.00    -0.317 OA
HETATM    3  C2  UNL     1      36.578  23.144  22.091  1.00  0.00     0.221 C 
HETATM    4  C3  UNL     1      36.678  21.675  21.752  1.00  0.00     0.076 C 
HETATM    5  C4  UNL     1      37.854  21.322  20.922  1.00  0.00     0.032 C 
HETATM    6  C5  UNL     1      38.600  22.431  20.317  1.00  0.00     0.168 C 
HETATM    7  O3  UNL     1      38.489  23.660  20.874  1.00  0.00    -0.386 OA
HETATM    8  C6  UNL     1      38.011  23.648  22.199  1.00  0.00     0.239 C 
HETATM    9  O4  UNL     1      35.991  23.858  21.043  1.00  0.00    -0.197 OA
HETATM   10  O5  UNL     1      34.865  23.212  20.756  1.00  0.00    -0.212 OA
HETATM   11  C7  UNL     1      33.963  23.542  21.759  1.00  0.00     0.310 C 
HETATM   12 CL1  UNL     1      32.790  22.240  22.065  1.00  0.00    -0.087 Cl
ENDROOT
BRANCH   1  13
HETATM   13  O1  UNL     1      33.872  23.852  24.138  1.00  0.00    -0.367 OA
ATOM     14  H1  UNL     1      34.257  23.174  24.679  1.00  0.00     0.212 HD
ENDBRANCH   1  13
TORSDOF 1
ENDMDL
