MODEL 1
REMARK VINA RESULT: -5.898980124      0.000      0.000
REMARK  4 active torsions:
REMARK  status: ('A' for Active; 'I' for Inactive)
REMARK    1  A    between atoms: C2_3  and  C3_4 
REMARK    2  A    between atoms: C8_11  and  O3_12 
REMARK    3  A    between atoms: C9_14  and  C10_15 
REMARK    4  A    between atoms: C10_15  and  O4_16 
ROOT
HETATM    1  N1  UNL     1      38.048  18.512  22.515  1.00  0.00    -0.191 NA
HETATM    2  C1  UNL     1      37.947  19.620  22.193  1.00  0.00     0.134 C 
HETATM    3  C2  UNL     1      37.800  21.036  21.781  1.00  0.00     0.286 C 
HETATM    4  O2  UNL     1      36.474  21.274  21.598  1.00  0.00    -0.337 OA
HETATM    5  C7  UNL     1      36.006  22.496  21.960  1.00  0.00     0.207 C 
HETATM    6  C8  UNL     1      36.521  23.026  23.260  1.00  0.00     0.173 C 
HETATM    7  C9  UNL     1      37.614  22.107  23.813  1.00  0.00     0.180 C 
HETATM    8  O5  UNL     1      38.420  21.789  22.745  1.00  0.00    -0.330 OA
ENDROOT
BRANCH   3   9
HETATM    9  C3  UNL     1      38.577  21.157  20.493  1.00  0.00     0.019 C 
HETATM   10  C4  UNL     1      38.690  22.225  19.713  1.00  0.00     0.011 C 
HETATM   11  C5  UNL     1      39.570  21.850  18.543  1.00  0.00     0.196 C 
HETATM   12  O1  UNL     1      40.302  20.792  19.094  1.00  0.00    -0.383 OA
HETATM   13  C6  UNL     1      39.371  20.082  19.846  1.00  0.00     0.208 C 
ENDBRANCH   3   9
BRANCH   7  14
HETATM   14  C10 UNL     1      38.412  22.919  24.801  1.00  0.00     0.199 C 
BRANCH  14  15
HETATM   15  O4  UNL     1      37.893  22.753  26.094  1.00  0.00    -0.398 OA
ATOM     16  H4  UNL     1      37.720  23.600  26.488  1.00  0.00     0.209 HD
ENDBRANCH  14  15
ENDBRANCH   7  14
BRANCH   6  17
HETATM   17  O3  UNL     1      35.569  23.159  24.242  1.00  0.00    -0.391 OA
ATOM     18  H3  UNL     1      35.590  23.989  24.704  1.00  0.00     0.210 HD
ENDBRANCH   6  17
TORSDOF 4
ENDMDL
MODEL 2
REMARK VINA RESULT: -5.696392275      1.771      2.085
REMARK  4 active torsions:
REMARK  status: ('A' for Active; 'I' for Inactive)
REMARK    1  A    between atoms: C2_3  and  C3_4 
REMARK    2  A    between atoms: C8_11  and  O3_12 
REMARK    3  A    between atoms: C9_14  and  C10_15 
REMARK    4  A    between atoms: C10_15  and  O4_16 
ROOT
HETATM    1  N1  UNL     1      35.199  21.145  20.248  1.00  0.00    -0.191 NA
HETATM    2  C1  UNL     1      36.255  21.411  20.642  1.00  0.00     0.134 C 
HETATM    3  C2  UNL     1      37.600  21.769  21.149  1.00  0.00     0.286 C 
HETATM    4  O2  UNL     1      37.555  23.067  21.552  1.00  0.00    -0.337 OA
HETATM    5  C7  UNL     1      38.277  23.402  22.652  1.00  0.00     0.207 C 
HETATM    6  C8  UNL     1      38.207  22.436  23.790  1.00  0.00     0.173 C 
HETATM    7  C9  UNL     1      37.444  21.175  23.371  1.00  0.00     0.180 C 
HETATM    8  O5  UNL     1      37.908  20.848  22.119  1.00  0.00    -0.330 OA
ENDROOT
BRANCH   3   9
HETATM    9  C3  UNL     1      38.531  21.574  19.978  1.00  0.00     0.019 C 
HETATM   10  C4  UNL     1      38.762  22.417  18.979  1.00  0.00     0.011 C 
HETATM   11  C5  UNL     1      39.770  21.772  18.056  1.00  0.00     0.196 C 
HETATM   12  O1  UNL     1      40.406  20.891  18.938  1.00  0.00    -0.383 OA
HETATM   13  C6  UNL     1      39.375  20.380  19.720  1.00  0.00     0.208 C 
ENDBRANCH   3   9
BRANCH   7  14
HETATM   14  C10 UNL     1      37.835  20.084  24.335  1.00  0.00     0.199 C 
BRANCH  14  15
HETATM   15  O4  UNL     1      36.982  20.096  25.450  1.00  0.00    -0.398 OA
ATOM     16  H4  UNL     1      37.456  19.822  26.227  1.00  0.00     0.209 HD
ENDBRANCH  14  15
ENDBRANCH   7  14
BRANCH   6  17
HETATM   17  O3  UNL     1      37.595  22.923  24.919  1.00  0.00    -0.391 OA
ATOM     18  H3  UNL     1      37.847  23.807  25.157  1.00  0.00     0.210 HD
ENDBRANCH   6  17
TORSDOF 4
ENDMDL
MODEL 3
REMARK VINA RESULT: -5.642895672      2.411      5.076
REMARK  4 active torsions:
REMARK  status: ('A' for Active; 'I' for Inactive)
REMARK    1  A    between atoms: C2_3  and  C3_4 
REMARK    2  A    between atoms: C8_11  and  O3_12 
REMARK    3  A    between atoms: C9_14  and  C10_15 
REMARK    4  A    between atoms: C10_15  and  O4_16 
ROOT
HETATM    1  N1  UNL     1      37.961  24.361  21.169  1.00  0.00    -0.191 NA
HETATM    2  C1  UNL     1      37.978  23.205  21.094  1.00  0.00     0.134 C 
HETATM    3  C2  UNL     1      37.982  21.727  20.989  1.00  0.00     0.286 C 
HETATM    4  O2  UNL     1      36.809  21.353  20.413  1.00  0.00    -0.337 OA
HETATM    5  C7  UNL     1      36.844  20.297  19.559  1.00  0.00     0.207 C 
HETATM    6  C8  UNL     1      37.997  20.274  18.607  1.00  0.00     0.173 C 
HETATM    7  C9  UNL     1      38.984  21.398  18.940  1.00  0.00     0.180 C 
HETATM    8  O5  UNL     1      39.123  21.388  20.307  1.00  0.00    -0.330 OA
ENDROOT
BRANCH   3   9
HETATM    9  C3  UNL     1      38.096  21.229  22.409  1.00  0.00     0.019 C 
HETATM   10  C4  UNL     1      38.233  21.953  23.513  1.00  0.00     0.011 C 
HETATM   11  C5  UNL     1      38.303  21.001  24.684  1.00  0.00     0.196 C 
HETATM   12  O1  UNL     1      37.634  19.890  24.158  1.00  0.00    -0.383 OA
HETATM   13  C6  UNL     1      38.080  19.809  22.842  1.00  0.00     0.208 C 
ENDBRANCH   3   9
BRANCH   7  14
HETATM   14  C10 UNL     1      40.303  21.023  18.313  1.00  0.00     0.199 C 
BRANCH  14  15
HETATM   15  O4  UNL     1      41.173  22.124  18.323  1.00  0.00    -0.398 OA
ATOM     16  H4  UNL     1      41.843  22.017  17.659  1.00  0.00     0.209 HD
ENDBRANCH  14  15
ENDBRANCH   7  14
BRANCH   6  17
HETATM   17  O3  UNL     1      37.650  20.418  17.285  1.00  0.00    -0.391 OA
ATOM     18  H3  UNL     1      38.240  19.994  16.673  1.00  0.00     0.210 HD
ENDBRANCH   6  17
TORSDOF 4
ENDMDL
MODEL 4
REMARK VINA RESULT: -5.590512894      1.987      5.083
REMARK  4 active torsions:
REMARK  status: ('A' for Active; 'I' for Inactive)
REMARK    1  A    between atoms: C2_3  and  C3_4 
REMARK    2  A    between atoms: C8_11  and  O3_12 
REMARK    3  A    between atoms: C9_14  and  C10_15 
REMARK    4  A    between atoms: C10_15  and  O4_16 
ROOT
HETATM    1  N1  UNL     1      35.663  23.018  20.514  1.00  0.00    -0.191 NA
HETATM    2  C1  UNL     1      36.568  22.396  20.881  1.00  0.00     0.134 C 
HETATM    3  C2  UNL     1      37.716  21.584  21.348  1.00  0.00     0.286 C 
HETATM    4  O2  UNL     1      37.334  20.279  21.320  1.00  0.00    -0.337 OA
HETATM    5  C7  UNL     1      38.271  19.364  20.959  1.00  0.00     0.207 C 
HETATM    6  C8  UNL     1      39.133  19.745  19.799  1.00  0.00     0.173 C 
HETATM    7  C9  UNL     1      38.854  21.192  19.382  1.00  0.00     0.180 C 
HETATM    8  O5  UNL     1      38.780  21.916  20.548  1.00  0.00    -0.330 OA
ENDROOT
BRANCH   3   9
HETATM    9  C3  UNL     1      37.994  22.059  22.753  1.00  0.00     0.019 C 
HETATM   10  C4  UNL     1      38.301  21.321  23.812  1.00  0.00     0.011 C 
HETATM   11  C5  UNL     1      38.486  22.253  24.987  1.00  0.00     0.196 C 
HETATM   12  O1  UNL     1      38.814  23.444  24.327  1.00  0.00    -0.383 OA
HETATM   13  C6  UNL     1      37.971  23.469  23.219  1.00  0.00     0.208 C 
ENDBRANCH   3   9
BRANCH   7  14
HETATM   14  C10 UNL     1      40.050  21.660  18.593  1.00  0.00     0.199 C 
BRANCH  14  15
HETATM   15  O4  UNL     1      41.170  20.873  18.902  1.00  0.00    -0.398 OA
ATOM     16  H4  UNL     1      40.960  19.952  18.805  1.00  0.00     0.209 HD
ENDBRANCH  14  15
ENDBRANCH   7  14
BRANCH   6  17
HETATM   17  O3  UNL     1      38.967  18.963  18.682  1.00  0.00    -0.391 OA
ATOM     18  H3  UNL     1      39.697  18.981  18.073  1.00  0.00     0.210 HD
ENDBRANCH   6  17
TORSDOF 4
ENDMDL
MODEL 5
REMARK VINA RESULT: -5.408083420      1.813      4.515
REMARK  4 active torsions:
REMARK  status: ('A' for Active; 'I' for Inactive)
REMARK    1  A    between atoms: C2_3  and  C3_4 
REMARK    2  A    between atoms: C8_11  and  O3_12 
REMARK    3  A    between atoms: C9_14  and  C10_15 
REMARK    4  A    between atoms: C10_15  and  O4_16 
ROOT
HETATM    1  N1  UNL     1      38.147  18.914  21.856  1.00  0.00    -0.191 NA
HETATM    2  C1  UNL     1      37.984  20.061  21.839  1.00  0.00     0.134 C 
HETATM    3  C2  UNL     1      37.788  21.529  21.805  1.00  0.00     0.286 C 
HETATM    4  O2  UNL     1      38.695  22.043  20.933  1.00  0.00    -0.337 OA
HETATM    5  C7  UNL     1      38.299  23.097  20.173  1.00  0.00     0.207 C 
HETATM    6  C8  UNL     1      36.925  22.995  19.594  1.00  0.00     0.173 C 
HETATM    7  C9  UNL     1      36.205  21.761  20.147  1.00  0.00     0.180 C 
HETATM    8  O5  UNL     1      36.468  21.740  21.496  1.00  0.00    -0.330 OA
ENDROOT
BRANCH   3   9
HETATM    9  C3  UNL     1      38.039  21.995  23.219  1.00  0.00     0.019 C 
HETATM   10  C4  UNL     1      38.384  21.257  24.266  1.00  0.00     0.011 C 
HETATM   11  C5  UNL     1      38.518  22.178  25.456  1.00  0.00     0.196 C 
HETATM   12  O1  UNL     1      38.781  23.395  24.817  1.00  0.00    -0.383 OA
HETATM   13  C6  UNL     1      37.939  23.393  23.709  1.00  0.00     0.208 C 
ENDBRANCH   3   9
BRANCH   7  14
HETATM   14  C10 UNL     1      34.728  21.986  19.943  1.00  0.00     0.199 C 
BRANCH  14  15
HETATM   15  O4  UNL     1      34.450  23.361  19.899  1.00  0.00    -0.398 OA
ATOM     16  H4  UNL     1      33.601  23.536  20.288  1.00  0.00     0.209 HD
ENDBRANCH  14  15
ENDBRANCH   7  14
BRANCH   6  17
HETATM   17  O3  UNL     1      36.885  22.906  18.224  1.00  0.00    -0.391 OA
ATOM     18  H3  UNL     1      36.018  22.771  17.860  1.00  0.00     0.210 HD
ENDBRANCH   6  17
TORSDOF 4
ENDMDL
