MODEL 1
REMARK VINA RESULT: -5.694774994      0.000      0.000
REMARK  4 active torsions:
REMARK  status: ('A' for Active; 'I' for Inactive)
REMARK    1  A    between atoms: O1_1  and  C1_3 
REMARK    2  A    between atoms: C1_3  and  C2_4 
REMARK    3  A    between atoms: C7_12  and  C8_13 
REMARK    4  A    between atoms: C8_13  and  O5_14 
ROOT
HETATM    1  C2  UNL     1      37.825  21.611  23.265  1.00  0.00     0.090 C 
HETATM    2  C3  UNL     1      38.251  23.052  23.490  1.00  0.00     0.078 C 
HETATM    3  C4  UNL     1      37.248  23.816  22.690  1.00  0.00     0.200 C 
HETATM    4  O2  UNL     1      37.750  24.093  21.398  1.00  0.00    -0.230 OA
HETATM    5  O3  UNL     1      38.642  23.166  21.163  1.00  0.00    -0.205 OA
HETATM    6  C5  UNL     1      38.130  21.908  20.987  1.00  0.00     0.321 C 
HETATM    7  C6  UNL     1      36.720  21.845  20.532  1.00  0.00     0.232 C 
HETATM    8  O4  UNL     1      35.820  22.611  21.172  1.00  0.00    -0.370 OA
HETATM    9  C7  UNL     1      36.051  22.926  22.475  1.00  0.00     0.114 C 
HETATM   10  C9  UNL     1      36.334  21.737  23.360  1.00  0.00     0.083 C 
HETATM   11  O6  UNL     1      38.279  21.079  22.095  1.00  0.00    -0.343 OA
ENDROOT
BRANCH   1  12
HETATM   12  C1  UNL     1      38.382  20.753  24.407  1.00  0.00     0.202 C 
BRANCH  12  13
HETATM   13  O1  UNL     1      37.358  20.220  25.178  1.00  0.00    -0.398 OA
ATOM     14  H1  UNL     1      37.659  20.020  26.057  1.00  0.00     0.209 HD
ENDBRANCH  12  13
ENDBRANCH   1  12
BRANCH   9  15
HETATM   15  C8  UNL     1      34.846  23.692  22.998  1.00  0.00     0.205 C 
BRANCH  15  16
HETATM   16  O5  UNL     1      35.185  25.037  23.167  1.00  0.00    -0.398 OA
ATOM     17  H5  UNL     1      35.855  25.115  23.836  1.00  0.00     0.209 HD
ENDBRANCH  15  16
ENDBRANCH   9  15
TORSDOF 4
ENDMDL
MODEL 2
REMARK VINA RESULT: -5.188571007      1.564      2.911
REMARK  4 active torsions:
REMARK  status: ('A' for Active; 'I' for Inactive)
REMARK    1  A    between atoms: O1_1  and  C1_3 
REMARK    2  A    between atoms: C1_3  and  C2_4 
REMARK    3  A    between atoms: C7_12  and  C8_13 
REMARK    4  A    between atoms: C8_13  and  O5_14 
ROOT
HETATM    1  C2  UNL     1      37.798  21.288  21.264  1.00  0.00     0.090 C 
HETATM    2  C3  UNL     1      38.539  22.584  20.977  1.00  0.00     0.078 C 
HETATM    3  C4  UNL     1      38.095  23.466  22.098  1.00  0.00     0.200 C 
HETATM    4  O2  UNL     1      36.993  24.258  21.699  1.00  0.00    -0.230 OA
HETATM    5  O3  UNL     1      36.417  23.593  20.731  1.00  0.00    -0.205 OA
HETATM    6  C5  UNL     1      35.791  22.439  21.119  1.00  0.00     0.321 C 
HETATM    7  C6  UNL     1      35.364  22.384  22.539  1.00  0.00     0.232 C 
HETATM    8  O4  UNL     1      36.256  22.749  23.476  1.00  0.00    -0.370 OA
HETATM    9  C7  UNL     1      37.579  22.585  23.206  1.00  0.00     0.114 C 
HETATM   10  C9  UNL     1      37.953  21.195  22.753  1.00  0.00     0.083 C 
HETATM   11  O6  UNL     1      36.508  21.283  20.824  1.00  0.00    -0.343 OA
ENDROOT
BRANCH   1  12
HETATM   12  C1  UNL     1      38.530  20.141  20.559  1.00  0.00     0.202 C 
BRANCH  12  13
HETATM   13  O1  UNL     1      39.609  20.614  19.823  1.00  0.00    -0.398 OA
ATOM     14  H1  UNL     1      39.490  21.527  19.591  1.00  0.00     0.209 HD
ENDBRANCH  12  13
ENDBRANCH   1  12
BRANCH   9  15
HETATM   15  C8  UNL     1      38.366  22.958  24.452  1.00  0.00     0.205 C 
BRANCH  15  16
HETATM   16  O5  UNL     1      37.561  22.793  25.582  1.00  0.00    -0.398 OA
ATOM     17  H5  UNL     1      38.021  23.109  26.351  1.00  0.00     0.209 HD
ENDBRANCH  15  16
ENDBRANCH   9  15
TORSDOF 4
ENDMDL
MODEL 3
REMARK VINA RESULT: -5.039178518      1.305      2.615
REMARK  4 active torsions:
REMARK  status: ('A' for Active; 'I' for Inactive)
REMARK    1  A    between atoms: O1_1  and  C1_3 
REMARK    2  A    between atoms: C1_3  and  C2_4 
REMARK    3  A    between atoms: C7_12  and  C8_13 
REMARK    4  A    between atoms: C8_13  and  O5_14 
ROOT
HETATM    1  C2  UNL     1      37.805  21.709  23.108  1.00  0.00     0.090 C 
HETATM    2  C3  UNL     1      36.301  21.921  23.165  1.00  0.00     0.078 C 
HETATM    3  C4  UNL     1      35.934  22.034  21.721  1.00  0.00     0.200 C 
HETATM    4  O2  UNL     1      35.897  23.391  21.323  1.00  0.00    -0.230 OA
HETATM    5  O3  UNL     1      36.688  24.020  22.153  1.00  0.00    -0.205 OA
HETATM    6  C5  UNL     1      38.019  23.736  22.004  1.00  0.00     0.321 C 
HETATM    7  C6  UNL     1      38.429  23.252  20.663  1.00  0.00     0.232 C 
HETATM    8  O4  UNL     1      37.695  22.279  20.097  1.00  0.00    -0.370 OA
HETATM    9  C7  UNL     1      37.040  21.407  20.911  1.00  0.00     0.114 C 
HETATM   10  C9  UNL     1      37.915  20.756  21.955  1.00  0.00     0.083 C 
HETATM   11  O6  UNL     1      38.518  22.861  22.965  1.00  0.00    -0.343 OA
ENDROOT
BRANCH   1  12
HETATM   12  C1  UNL     1      38.254  21.048  24.417  1.00  0.00     0.202 C 
BRANCH  12  13
HETATM   13  O1  UNL     1      37.188  20.428  25.055  1.00  0.00    -0.398 OA
ATOM     14  H1  UNL     1      37.442  20.109  25.913  1.00  0.00     0.209 HD
ENDBRANCH  12  13
ENDBRANCH   1  12
BRANCH   9  15
HETATM   15  C8  UNL     1      36.386  20.346  20.041  1.00  0.00     0.205 C 
BRANCH  15  16
HETATM   16  O5  UNL     1      35.075  20.725  19.747  1.00  0.00    -0.398 OA
ATOM     17  H5  UNL     1      34.675  20.075  19.180  1.00  0.00     0.209 HD
ENDBRANCH  15  16
ENDBRANCH   9  15
TORSDOF 4
ENDMDL
MODEL 4
REMARK VINA RESULT: -5.017343559      1.590      3.191
REMARK  4 active torsions:
REMARK  status: ('A' for Active; 'I' for Inactive)
REMARK    1  A    between atoms: O1_1  and  C1_3 
REMARK    2  A    between atoms: C1_3  and  C2_4 
REMARK    3  A    between atoms: C7_12  and  C8_13 
REMARK    4  A    between atoms: C8_13  and  O5_14 
ROOT
HETATM    1  C2  UNL     1      35.865  22.706  21.460  1.00  0.00     0.090 C 
HETATM    2  C3  UNL     1      36.514  21.335  21.561  1.00  0.00     0.078 C 
HETATM    3  C4  UNL     1      37.878  21.659  22.077  1.00  0.00     0.200 C 
HETATM    4  O2  UNL     1      38.797  21.780  21.008  1.00  0.00    -0.230 OA
HETATM    5  O3  UNL     1      38.078  22.099  19.963  1.00  0.00    -0.205 OA
HETATM    6  C5  UNL     1      37.542  23.359  19.998  1.00  0.00     0.321 C 
HETATM    7  C6  UNL     1      38.256  24.339  20.852  1.00  0.00     0.232 C 
HETATM    8  O4  UNL     1      38.591  23.959  22.097  1.00  0.00    -0.370 OA
HETATM    9  C7  UNL     1      37.821  23.023  22.715  1.00  0.00     0.114 C 
HETATM   10  C9  UNL     1      36.346  23.343  22.729  1.00  0.00     0.083 C 
HETATM   11  O6  UNL     1      36.189  23.385  20.323  1.00  0.00    -0.343 OA
ENDROOT
BRANCH   1  12
HETATM   12  C1  UNL     1      34.343  22.527  21.472  1.00  0.00     0.202 C 
BRANCH  12  13
HETATM   13  O1  UNL     1      33.849  22.536  22.770  1.00  0.00    -0.398 OA
ATOM     14  H1  UNL     1      32.903  22.624  22.776  1.00  0.00     0.209 HD
ENDBRANCH  12  13
ENDBRANCH   1  12
BRANCH   9  15
HETATM   15  C8  UNL     1      38.333  22.853  24.137  1.00  0.00     0.205 C 
BRANCH  15  16
HETATM   16  O5  UNL     1      37.252  22.809  25.021  1.00  0.00    -0.398 OA
ATOM     17  H5  UNL     1      36.441  22.746  24.530  1.00  0.00     0.209 HD
ENDBRANCH  15  16
ENDBRANCH   9  15
TORSDOF 4
ENDMDL
MODEL 5
REMARK VINA RESULT: -4.865037166      1.566      1.643
REMARK  4 active torsions:
REMARK  status: ('A' for Active; 'I' for Inactive)
REMARK    1  A    between atoms: O1_1  and  C1_3 
REMARK    2  A    between atoms: C1_3  and  C2_4 
REMARK    3  A    between atoms: C7_12  and  C8_13 
REMARK    4  A    between atoms: C8_13  and  O5_14 
ROOT
HETATM    1  C2  UNL     1      37.862  22.026  23.213  1.00  0.00     0.090 C 
HETATM    2  C3  UNL     1      38.116  23.360  22.529  1.00  0.00     0.078 C 
HETATM    3  C4  UNL     1      37.145  23.333  21.394  1.00  0.00     0.200 C 
HETATM    4  O2  UNL     1      37.769  22.853  20.219  1.00  0.00    -0.230 OA
HETATM    5  O3  UNL     1      38.769  22.117  20.630  1.00  0.00    -0.205 OA
HETATM    6  C5  UNL     1      38.407  20.944  21.237  1.00  0.00     0.321 C 
HETATM    7  C6  UNL     1      37.074  20.410  20.864  1.00  0.00     0.232 C 
HETATM    8  O4  UNL     1      36.034  21.261  20.873  1.00  0.00    -0.370 OA
HETATM    9  C7  UNL     1      36.075  22.323  21.723  1.00  0.00     0.114 C 
HETATM   10  C9  UNL     1      36.365  21.958  23.158  1.00  0.00     0.083 C 
HETATM   11  O6  UNL     1      38.502  20.977  22.625  1.00  0.00    -0.343 OA
ENDROOT
BRANCH   1  12
HETATM   12  C1  UNL     1      38.360  22.118  24.660  1.00  0.00     0.202 C 
BRANCH  12  13
HETATM   13  O1  UNL     1      38.240  23.411  25.149  1.00  0.00    -0.398 OA
ATOM     14  H1  UNL     1      38.716  23.515  25.965  1.00  0.00     0.209 HD
ENDBRANCH  12  13
ENDBRANCH   1  12
BRANCH   9  15
HETATM   15  C8  UNL     1      34.748  23.058  21.628  1.00  0.00     0.205 C 
BRANCH  15  16
HETATM   16  O5  UNL     1      34.520  23.445  20.305  1.00  0.00    -0.398 OA
ATOM     17  H5  UNL     1      33.713  23.944  20.253  1.00  0.00     0.209 HD
ENDBRANCH  15  16
ENDBRANCH   9  15
TORSDOF 4
ENDMDL
