MODEL 1
REMARK VINA RESULT: -4.687957241      0.000      0.000
REMARK  2 active torsions:
REMARK  status: ('A' for Active; 'I' for Inactive)
REMARK    1  A    between atoms: C1_4  and  O1_5 
REMARK    2  A    between atoms: O1_5  and  C2_6 
ROOT
HETATM    1  O1  UNL     1      -0.475  19.158  24.020  1.00  0.00    -0.342 OA
ENDROOT
BRANCH   1   2
HETATM    2  C1  UNL     1      -1.238  19.886  23.117  1.00  0.00     0.219 C 
HETATM    3  N1  UNL     1      -1.045  21.138  23.099  1.00  0.00    -0.390 N 
ATOM      4  H12 UNL     1      -0.363  21.572  23.720  1.00  0.00     0.157 HD
ATOM      5  H11 UNL     1      -1.606  21.672  22.436  1.00  0.00     0.157 HD
ENDBRANCH   1   2
BRANCH   1   6
HETATM    6  C2  UNL     1       0.544  18.273  23.722  1.00  0.00     0.129 A 
HETATM    7  C3  UNL     1       1.923  18.801  23.525  1.00  0.00     0.032 A 
HETATM    8  C4  UNL     1       2.487  17.923  24.611  1.00  0.00     0.005 A 
HETATM    9  C5  UNL     1       1.066  17.418  24.854  1.00  0.00     0.032 A 
ENDBRANCH   1   6
TORSDOF 2
ENDMDL
MODEL 2
REMARK VINA RESULT: -4.168275904      0.632      1.277
REMARK  2 active torsions:
REMARK  status: ('A' for Active; 'I' for Inactive)
REMARK    1  A    between atoms: C1_4  and  O1_5 
REMARK    2  A    between atoms: O1_5  and  C2_6 
ROOT
HETATM    1  O1  UNL     1      -0.280  18.415  23.134  1.00  0.00    -0.342 OA
ENDROOT
BRANCH   1   2
HETATM    2  C1  UNL     1      -1.202  19.342  22.669  1.00  0.00     0.219 C 
HETATM    3  N1  UNL     1      -1.090  20.521  23.118  1.00  0.00    -0.390 N 
ATOM      4  H12 UNL     1      -0.356  20.760  23.785  1.00  0.00     0.157 HD
ATOM      5  H11 UNL     1      -1.767  21.202  22.777  1.00  0.00     0.157 HD
ENDBRANCH   1   2
BRANCH   1   6
HETATM    6  C2  UNL     1       0.580  18.564  24.206  1.00  0.00     0.129 A 
HETATM    7  C3  UNL     1       1.128  17.345  24.866  1.00  0.00     0.032 A 
HETATM    8  C4  UNL     1       2.552  17.771  24.624  1.00  0.00     0.005 A 
HETATM    9  C5  UNL     1       1.996  18.996  23.899  1.00  0.00     0.032 A 
ENDBRANCH   1   6
TORSDOF 2
ENDMDL
MODEL 3
REMARK VINA RESULT: -4.029277316      2.946      4.965
REMARK  2 active torsions:
REMARK  status: ('A' for Active; 'I' for Inactive)
REMARK    1  A    between atoms: C1_4  and  O1_5 
REMARK    2  A    between atoms: O1_5  and  C2_6 
ROOT
HETATM    1  O1  UNL     1      -1.710  21.013  23.701  1.00  0.00    -0.342 OA
ENDROOT
BRANCH   1   2
HETATM    2  C1  UNL     1      -1.082  19.938  23.087  1.00  0.00     0.219 C 
HETATM    3  N1  UNL     1       0.127  19.738  23.405  1.00  0.00    -0.390 N 
ATOM      4  H12 UNL     1       0.600  20.342  24.076  1.00  0.00     0.157 HD
ATOM      5  H11 UNL     1       0.588  18.948  22.954  1.00  0.00     0.157 HD
ENDBRANCH   1   2
BRANCH   1   6
HETATM    6  C2  UNL     1      -1.939  22.263  23.156  1.00  0.00     0.129 A 
HETATM    7  C3  UNL     1      -2.845  23.206  23.871  1.00  0.00     0.032 A 
HETATM    8  C4  UNL     1      -1.779  24.266  23.964  1.00  0.00     0.005 A 
HETATM    9  C5  UNL     1      -0.831  23.283  23.280  1.00  0.00     0.032 A 
ENDBRANCH   1   6
TORSDOF 2
ENDMDL
MODEL 4
REMARK VINA RESULT: -3.898769526      1.724      2.323
REMARK  2 active torsions:
REMARK  status: ('A' for Active; 'I' for Inactive)
REMARK    1  A    between atoms: C1_4  and  O1_5 
REMARK    2  A    between atoms: O1_5  and  C2_6 
ROOT
HETATM    1  O1  UNL     1      -1.411  20.907  23.507  1.00  0.00    -0.342 OA
ENDROOT
BRANCH   1   2
HETATM    2  C1  UNL     1      -1.525  22.241  23.141  1.00  0.00     0.219 C 
HETATM    3  N1  UNL     1      -0.496  22.959  23.306  1.00  0.00    -0.390 N 
ATOM      4  H12 UNL     1       0.363  22.564  23.689  1.00  0.00     0.157 HD
ATOM      5  H11 UNL     1      -0.580  23.939  23.037  1.00  0.00     0.157 HD
ENDBRANCH   1   2
BRANCH   1   6
HETATM    6  C2  UNL     1      -0.645  19.937  22.887  1.00  0.00     0.129 A 
HETATM    7  C3  UNL     1       0.571  19.427  23.580  1.00  0.00     0.032 A 
HETATM    8  C4  UNL     1       0.080  18.004  23.539  1.00  0.00     0.005 A 
HETATM    9  C5  UNL     1      -1.192  18.528  22.877  1.00  0.00     0.032 A 
ENDBRANCH   1   6
TORSDOF 2
ENDMDL
MODEL 5
REMARK VINA RESULT: -3.771043079      2.410      3.547
REMARK  2 active torsions:
REMARK  status: ('A' for Active; 'I' for Inactive)
REMARK    1  A    between atoms: C1_4  and  O1_5 
REMARK    2  A    between atoms: O1_5  and  C2_6 
ROOT
HETATM    1  O1  UNL     1       1.196  17.475  23.449  1.00  0.00    -0.342 OA
ENDROOT
BRANCH   1   2
HETATM    2  C1  UNL     1       1.840  17.566  24.675  1.00  0.00     0.219 C 
HETATM    3  N1  UNL     1       2.989  18.097  24.669  1.00  0.00    -0.390 N 
ATOM      4  H12 UNL     1       3.406  18.435  23.802  1.00  0.00     0.157 HD
ATOM      5  H11 UNL     1       3.462  18.163  25.571  1.00  0.00     0.157 HD
ENDBRANCH   1   2
BRANCH   1   6
HETATM    6  C2  UNL     1       0.555  18.495  22.770  1.00  0.00     0.129 A 
HETATM    7  C3  UNL     1      -0.901  18.366  22.482  1.00  0.00     0.032 A 
HETATM    8  C4  UNL     1      -1.226  19.649  23.200  1.00  0.00     0.005 A 
HETATM    9  C5  UNL     1       0.258  19.759  23.544  1.00  0.00     0.032 A 
ENDBRANCH   1   6
TORSDOF 2
ENDMDL
