MODEL 1
REMARK VINA RESULT: -4.658197295      0.000      0.000
REMARK  0 active torsions:
REMARK  status: ('A' for Active; 'I' for Inactive)
ROOT
HETATM    1  C1  UNL     1      -1.363  20.192  23.158  1.00  0.00     0.097 C 
HETATM    2  C2  UNL     1      -0.587  19.226  23.225  1.00  0.00    -0.181 C 
HETATM    3  C3  UNL     1       0.307  18.114  23.301  1.00  0.00     0.079 C 
HETATM    4  C4  UNL     1       1.747  18.637  23.181  1.00  0.00     0.045 C 
HETATM    5  C5  UNL     1       2.408  18.307  24.462  1.00  0.00     0.233 C 
HETATM    6  N1  UNL     1       1.686  17.159  24.999  1.00  0.00    -0.074 N 
ATOM      7  H11 UNL     1       1.868  16.961  25.982  1.00  0.00     0.277 HD
ATOM      8  H12 UNL     1       2.005  16.253  24.653  1.00  0.00     0.277 HD
HETATM    9  C6  UNL     1       0.310  17.477  24.688  1.00  0.00     0.248 C 
ENDROOT
TORSDOF 0
ENDMDL
MODEL 2
REMARK VINA RESULT: -4.078774827      4.768      5.821
REMARK  0 active torsions:
REMARK  status: ('A' for Active; 'I' for Inactive)
ROOT
HETATM    1  C1  UNL     1      -4.676  22.697  24.551  1.00  0.00     0.097 C 
HETATM    2  C2  UNL     1      -3.683  22.997  23.868  1.00  0.00    -0.181 C 
HETATM    3  C3  UNL     1      -2.541  23.342  23.083  1.00  0.00     0.079 C 
HETATM    4  C4  UNL     1      -1.840  24.539  23.742  1.00  0.00     0.045 C 
HETATM    5  C5  UNL     1      -0.498  24.059  24.138  1.00  0.00     0.233 C 
HETATM    6  N1  UNL     1      -0.192  22.951  23.241  1.00  0.00    -0.074 N 
ATOM      7  H11 UNL     1       0.589  22.365  23.536  1.00  0.00     0.277 HD
ATOM      8  H12 UNL     1       0.220  23.224  22.348  1.00  0.00     0.277 HD
HETATM    9  C6  UNL     1      -1.461  22.265  23.140  1.00  0.00     0.248 C 
ENDROOT
TORSDOF 0
ENDMDL
MODEL 3
REMARK VINA RESULT: -4.076619356      1.129      1.746
REMARK  0 active torsions:
REMARK  status: ('A' for Active; 'I' for Inactive)
ROOT
HETATM    1  C1  UNL     1      -1.294  18.631  22.086  1.00  0.00     0.097 C 
HETATM    2  C2  UNL     1      -0.463  18.798  22.994  1.00  0.00    -0.181 C 
HETATM    3  C3  UNL     1       0.492  18.989  24.039  1.00  0.00     0.079 C 
HETATM    4  C4  UNL     1       0.502  17.735  24.926  1.00  0.00     0.045 C 
HETATM    5  C5  UNL     1       1.859  17.160  24.802  1.00  0.00     0.233 C 
HETATM    6  N1  UNL     1       2.732  18.271  24.444  1.00  0.00    -0.074 N 
ATOM      7  H11 UNL     1       3.649  17.998  24.093  1.00  0.00     0.277 HD
ATOM      8  H12 UNL     1       3.083  18.812  25.235  1.00  0.00     0.277 HD
HETATM    9  C6  UNL     1       1.922  19.020  23.508  1.00  0.00     0.248 C 
ENDROOT
TORSDOF 0
ENDMDL
MODEL 4
REMARK VINA RESULT: -3.772462613      8.226      9.200
REMARK  0 active torsions:
REMARK  status: ('A' for Active; 'I' for Inactive)
ROOT
HETATM    1  C1  UNL     1      -6.257  11.400  23.447  1.00  0.00     0.097 C 
HETATM    2  C2  UNL     1      -5.695  11.735  24.503  1.00  0.00    -0.181 C 
HETATM    3  C3  UNL     1      -5.048  12.120  25.717  1.00  0.00     0.079 C 
HETATM    4  C4  UNL     1      -5.155  13.646  25.863  1.00  0.00     0.045 C 
HETATM    5  C5  UNL     1      -5.955  13.884  27.083  1.00  0.00     0.233 C 
HETATM    6  N1  UNL     1      -5.774  12.700  27.916  1.00  0.00    -0.074 N 
ATOM      7  H11 UNL     1      -6.443  12.607  28.679  1.00  0.00     0.277 HD
ATOM      8  H12 UNL     1      -4.945  12.719  28.511  1.00  0.00     0.277 HD
HETATM    9  C6  UNL     1      -5.802  11.626  26.948  1.00  0.00     0.248 C 
ENDROOT
TORSDOF 0
ENDMDL
MODEL 5
REMARK VINA RESULT: -3.702149502      3.964      5.668
REMARK  0 active torsions:
REMARK  status: ('A' for Active; 'I' for Inactive)
ROOT
HETATM    1  C1  UNL     1      -1.200  19.959  23.276  1.00  0.00     0.097 C 
HETATM    2  C2  UNL     1      -1.397  21.169  23.071  1.00  0.00    -0.181 C 
HETATM    3  C3  UNL     1      -1.624  22.559  22.835  1.00  0.00     0.079 C 
HETATM    4  C4  UNL     1      -2.824  23.008  23.682  1.00  0.00     0.045 C 
HETATM    5  C5  UNL     1      -2.299  24.013  24.631  1.00  0.00     0.233 C 
HETATM    6  N1  UNL     1      -1.117  24.582  23.996  1.00  0.00    -0.074 N 
ATOM      7  H11 UNL     1      -0.511  25.115  24.619  1.00  0.00     0.277 HD
ATOM      8  H12 UNL     1      -1.304  25.352  23.354  1.00  0.00     0.277 HD
HETATM    9  C6  UNL     1      -0.496  23.424  23.390  1.00  0.00     0.248 C 
ENDROOT
TORSDOF 0
ENDMDL
