MODEL 1
REMARK VINA RESULT: -4.647194834      0.000      0.000
REMARK  2 active torsions:
REMARK  status: ('A' for Active; 'I' for Inactive)
REMARK    1  A    between atoms: C2_2  and  N1_3 
REMARK    2  A    between atoms: N1_3  and  C3_5 
ROOT
HETATM    1  C3  UNL     1      -1.271  22.257  23.127  1.00  0.00     0.076 A 
HETATM    2  N2  UNL     1      -0.191  22.916  23.434  1.00  0.00    -0.380 N 
ATOM      3  H2  UNL     1       0.757  22.579  23.263  1.00  0.00     0.160 HD
HETATM    4  C4  UNL     1      -0.506  24.176  24.043  1.00  0.00     0.121 A 
HETATM    5  C5  UNL     1      -1.995  24.295  24.084  1.00  0.00     0.027 A 
HETATM    6  C6  UNL     1      -2.478  23.004  23.500  1.00  0.00     0.078 A 
ENDROOT
BRANCH   1   7
HETATM    7  N1  UNL     1      -1.215  20.978  22.512  1.00  0.00    -0.357 N 
ATOM      8  H1  UNL     1      -1.201  20.933  21.493  1.00  0.00     0.166 HD
BRANCH   7   9
HETATM    9  C2  UNL     1      -1.179  19.760  23.238  1.00  0.00     0.079 C 
HETATM   10  C1  UNL     1      -0.596  18.723  22.703  1.00  0.00     0.029 C 
ENDBRANCH   7   9
ENDBRANCH   1   7
TORSDOF 2
ENDMDL
MODEL 2
REMARK VINA RESULT: -4.570426654      2.571      4.934
REMARK  2 active torsions:
REMARK  status: ('A' for Active; 'I' for Inactive)
REMARK    1  A    between atoms: C2_2  and  N1_3 
REMARK    2  A    between atoms: N1_3  and  C3_5 
ROOT
HETATM    1  C3  UNL     1       0.733  18.827  23.517  1.00  0.00     0.076 A 
HETATM    2  N2  UNL     1       2.019  19.007  23.614  1.00  0.00    -0.380 N 
ATOM      3  H2  UNL     1       2.540  19.723  23.108  1.00  0.00     0.160 HD
HETATM    4  C4  UNL     1       2.608  18.066  24.522  1.00  0.00     0.121 A 
HETATM    5  C5  UNL     1       1.506  17.215  25.065  1.00  0.00     0.027 A 
HETATM    6  C6  UNL     1       0.282  17.718  24.365  1.00  0.00     0.078 A 
ENDROOT
BRANCH   1   7
HETATM    7  N1  UNL     1      -0.072  19.639  22.675  1.00  0.00    -0.357 N 
ATOM      8  H1  UNL     1       0.282  19.870  21.747  1.00  0.00     0.166 HD
BRANCH   7   9
HETATM    9  C2  UNL     1      -1.341  20.146  23.055  1.00  0.00     0.079 C 
HETATM   10  C1  UNL     1      -1.499  21.436  23.166  1.00  0.00     0.029 C 
ENDBRANCH   7   9
ENDBRANCH   1   7
TORSDOF 2
ENDMDL
MODEL 3
REMARK VINA RESULT: -4.497887794      1.320      4.278
REMARK  2 active torsions:
REMARK  status: ('A' for Active; 'I' for Inactive)
REMARK    1  A    between atoms: C2_2  and  N1_3 
REMARK    2  A    between atoms: N1_3  and  C3_5 
ROOT
HETATM    1  C3  UNL     1      -0.579  20.037  23.207  1.00  0.00     0.076 A 
HETATM    2  N2  UNL     1       0.685  20.196  23.473  1.00  0.00    -0.380 N 
ATOM      3  H2  UNL     1       1.117  21.091  23.702  1.00  0.00     0.160 HD
HETATM    4  C4  UNL     1       1.392  18.950  23.402  1.00  0.00     0.121 A 
HETATM    5  C5  UNL     1       0.397  17.887  23.066  1.00  0.00     0.027 A 
HETATM    6  C6  UNL     1      -0.892  18.633  22.915  1.00  0.00     0.078 A 
ENDROOT
BRANCH   1   7
HETATM    7  N1  UNL     1      -1.486  21.129  23.214  1.00  0.00    -0.357 N 
ATOM      8  H1  UNL     1      -2.457  20.948  23.472  1.00  0.00     0.166 HD
BRANCH   7   9
HETATM    9  C2  UNL     1      -1.117  22.458  22.883  1.00  0.00     0.079 C 
HETATM   10  C1  UNL     1      -2.043  23.374  22.819  1.00  0.00     0.029 C 
ENDBRANCH   7   9
ENDBRANCH   1   7
TORSDOF 2
ENDMDL
MODEL 4
REMARK VINA RESULT: -4.424157537      1.237      1.600
REMARK  2 active torsions:
REMARK  status: ('A' for Active; 'I' for Inactive)
REMARK    1  A    between atoms: C2_2  and  N1_3 
REMARK    2  A    between atoms: N1_3  and  C3_5 
ROOT
HETATM    1  C3  UNL     1      -1.500  21.759  23.328  1.00  0.00     0.076 A 
HETATM    2  N2  UNL     1      -2.500  21.662  24.157  1.00  0.00    -0.380 N 
ATOM      3  H2  UNL     1      -2.802  20.792  24.595  1.00  0.00     0.160 HD
HETATM    4  C4  UNL     1      -3.121  22.937  24.374  1.00  0.00     0.121 A 
HETATM    5  C5  UNL     1      -2.364  23.947  23.573  1.00  0.00     0.027 A 
HETATM    6  C6  UNL     1      -1.317  23.141  22.870  1.00  0.00     0.078 A 
ENDROOT
BRANCH   1   7
HETATM    7  N1  UNL     1      -0.727  20.628  22.956  1.00  0.00    -0.357 N 
ATOM      8  H1  UNL     1       0.173  20.787  22.503  1.00  0.00     0.166 HD
BRANCH   7   9
HETATM    9  C2  UNL     1      -1.139  19.289  23.180  1.00  0.00     0.079 C 
HETATM   10  C1  UNL     1      -0.294  18.448  23.708  1.00  0.00     0.029 C 
ENDBRANCH   7   9
ENDBRANCH   1   7
TORSDOF 2
ENDMDL
MODEL 5
REMARK VINA RESULT: -4.299402347      2.453      4.939
REMARK  2 active torsions:
REMARK  status: ('A' for Active; 'I' for Inactive)
REMARK    1  A    between atoms: C2_2  and  N1_3 
REMARK    2  A    between atoms: N1_3  and  C3_5 
ROOT
HETATM    1  C3  UNL     1       0.438  18.931  23.475  1.00  0.00     0.076 A 
HETATM    2  N2  UNL     1       0.049  17.938  24.222  1.00  0.00    -0.380 N 
ATOM      3  H2  UNL     1      -0.918  17.626  24.308  1.00  0.00     0.160 HD
HETATM    4  C4  UNL     1       1.157  17.339  24.908  1.00  0.00     0.121 A 
HETATM    5  C5  UNL     1       2.392  18.069  24.490  1.00  0.00     0.027 A 
HETATM    6  C6  UNL     1       1.888  19.133  23.566  1.00  0.00     0.078 A 
ENDROOT
BRANCH   1   7
HETATM    7  N1  UNL     1      -0.481  19.683  22.697  1.00  0.00    -0.357 N 
ATOM      8  H1  UNL     1      -0.400  19.640  21.681  1.00  0.00     0.166 HD
BRANCH   7   9
HETATM    9  C2  UNL     1      -1.506  20.490  23.255  1.00  0.00     0.079 C 
HETATM   10  C1  UNL     1      -1.489  21.775  23.033  1.00  0.00     0.029 C 
ENDBRANCH   7   9
ENDBRANCH   1   7
TORSDOF 2
ENDMDL
