MODEL 1
REMARK VINA RESULT: -4.631507246      0.000      0.000
REMARK  1 active torsions:
REMARK  status: ('A' for Active; 'I' for Inactive)
REMARK    1  A    between atoms: N1_2  and  C2_4 
ROOT
HETATM    1  C2  UNL     1       0.685  19.060  23.678  1.00  0.00     0.283 C 
HETATM    2  C3  UNL     1       0.188  17.723  24.242  1.00  0.00     0.056 C 
HETATM    3  C4  UNL     1       1.411  17.302  25.041  1.00  0.00     0.031 C 
HETATM    4  C5  UNL     1       2.565  18.076  24.409  1.00  0.00     0.235 C 
HETATM    5  N2  UNL     1       1.991  18.668  23.203  1.00  0.00    -0.054 N 
ATOM      6  H21 UNL     1       2.542  19.413  22.776  1.00  0.00     0.279 HD
ATOM      7  H22 UNL     1       1.994  18.069  22.378  1.00  0.00     0.279 HD
ENDROOT
BRANCH   1   8
HETATM    8  N1  UNL     1      -0.189  19.509  22.663  1.00  0.00    -0.382 N 
HETATM    9  C1  UNL     1      -1.286  20.052  23.014  1.00  0.00     0.114 C 
ATOM     10  H1  UNL     1       0.053  19.402  21.678  1.00  0.00     0.160 HD
ENDBRANCH   1   8
TORSDOF 1
ENDMDL
MODEL 2
REMARK VINA RESULT: -4.458528266      1.115      1.545
REMARK  1 active torsions:
REMARK  status: ('A' for Active; 'I' for Inactive)
REMARK    1  A    between atoms: N1_2  and  C2_4 
ROOT
HETATM    1  C2  UNL     1       0.611  18.272  23.098  1.00  0.00     0.283 C 
HETATM    2  C3  UNL     1       1.889  19.025  23.488  1.00  0.00     0.056 C 
HETATM    3  C4  UNL     1       2.460  18.061  24.516  1.00  0.00     0.031 C 
HETATM    4  C5  UNL     1       1.257  17.249  24.989  1.00  0.00     0.235 C 
HETATM    5  N2  UNL     1       0.104  17.932  24.407  1.00  0.00    -0.054 N 
ATOM      6  H21 UNL     1      -0.768  17.403  24.414  1.00  0.00     0.279 HD
ATOM      7  H22 UNL     1      -0.261  18.714  24.950  1.00  0.00     0.279 HD
ENDROOT
BRANCH   1   8
HETATM    8  N1  UNL     1      -0.238  19.119  22.351  1.00  0.00    -0.382 N 
HETATM    9  C1  UNL     1      -1.135  19.771  22.977  1.00  0.00     0.114 C 
ATOM     10  H1  UNL     1      -0.135  19.205  21.340  1.00  0.00     0.160 HD
ENDBRANCH   1   8
TORSDOF 1
ENDMDL
MODEL 3
REMARK VINA RESULT: -4.436177413      0.874      3.070
REMARK  1 active torsions:
REMARK  status: ('A' for Active; 'I' for Inactive)
REMARK    1  A    between atoms: N1_2  and  C2_4 
ROOT
HETATM    1  C2  UNL     1       1.069  19.104  23.160  1.00  0.00     0.283 C 
HETATM    2  C3  UNL     1       0.090  18.057  23.707  1.00  0.00     0.056 C 
HETATM    3  C4  UNL     1      -1.216  18.601  23.151  1.00  0.00     0.031 C 
HETATM    4  C5  UNL     1      -0.935  20.079  22.889  1.00  0.00     0.235 C 
HETATM    5  N2  UNL     1       0.367  20.317  23.507  1.00  0.00    -0.054 N 
ATOM      6  H21 UNL     1       0.830  21.184  23.232  1.00  0.00     0.279 HD
ATOM      7  H22 UNL     1       0.345  20.539  24.503  1.00  0.00     0.279 HD
ENDROOT
BRANCH   1   8
HETATM    8  N1  UNL     1       2.326  18.963  23.789  1.00  0.00    -0.382 N 
HETATM    9  C1  UNL     1       2.498  17.971  24.569  1.00  0.00     0.114 C 
ATOM     10  H1  UNL     1       3.074  19.636  23.623  1.00  0.00     0.160 HD
ENDBRANCH   1   8
TORSDOF 1
ENDMDL
MODEL 4
REMARK VINA RESULT: -3.950131621      5.479      6.276
REMARK  1 active torsions:
REMARK  status: ('A' for Active; 'I' for Inactive)
REMARK    1  A    between atoms: N1_2  and  C2_4 
ROOT
HETATM    1  C2  UNL     1      -1.479  24.335  24.352  1.00  0.00     0.283 C 
HETATM    2  C3  UNL     1      -0.721  23.485  23.326  1.00  0.00     0.056 C 
HETATM    3  C4  UNL     1      -1.864  22.638  22.788  1.00  0.00     0.031 C 
HETATM    4  C5  UNL     1      -2.919  22.677  23.890  1.00  0.00     0.235 C 
HETATM    5  N2  UNL     1      -2.243  23.308  25.021  1.00  0.00    -0.054 N 
ATOM      6  H21 UNL     1      -2.855  23.636  25.769  1.00  0.00     0.279 HD
ATOM      7  H22 UNL     1      -1.703  22.679  25.615  1.00  0.00     0.279 HD
ENDROOT
BRANCH   1   8
HETATM    8  N1  UNL     1      -0.562  25.010  25.189  1.00  0.00    -0.382 N 
HETATM    9  C1  UNL     1       0.644  25.117  24.794  1.00  0.00     0.114 C 
ATOM     10  H1  UNL     1      -0.857  25.401  26.084  1.00  0.00     0.160 HD
ENDBRANCH   1   8
TORSDOF 1
ENDMDL
MODEL 5
REMARK VINA RESULT: -3.939058784      2.868      5.005
REMARK  1 active torsions:
REMARK  status: ('A' for Active; 'I' for Inactive)
REMARK    1  A    between atoms: N1_2  and  C2_4 
ROOT
HETATM    1  C2  UNL     1      -1.417  21.847  23.027  1.00  0.00     0.283 C 
HETATM    2  C3  UNL     1      -2.524  21.776  24.086  1.00  0.00     0.056 C 
HETATM    3  C4  UNL     1      -2.992  23.223  24.076  1.00  0.00     0.031 C 
HETATM    4  C5  UNL     1      -1.809  24.004  23.511  1.00  0.00     0.235 C 
HETATM    5  N2  UNL     1      -0.719  23.032  23.466  1.00  0.00    -0.054 N 
ATOM      6  H21 UNL     1       0.084  23.302  22.897  1.00  0.00     0.279 HD
ATOM      7  H22 UNL     1      -0.187  22.931  24.330  1.00  0.00     0.279 HD
ENDROOT
BRANCH   1   8
HETATM    8  N1  UNL     1      -0.638  20.669  23.066  1.00  0.00    -0.382 N 
HETATM    9  C1  UNL     1      -1.243  19.553  23.164  1.00  0.00     0.114 C 
ATOM     10  H1  UNL     1       0.380  20.711  23.016  1.00  0.00     0.160 HD
ENDBRANCH   1   8
TORSDOF 1
ENDMDL
