MODEL 1
REMARK VINA RESULT: -4.243137961      0.000      0.000
REMARK  2 active torsions:
REMARK  status: ('A' for Active; 'I' for Inactive)
REMARK    1  A    between atoms: C3_3  and  N1_4 
REMARK    2  A    between atoms: N1_4  and  C4_7 
ROOT
HETATM    1  N1  UNL     1      -0.713  21.197  23.183  1.00  0.00    -0.043 N 
ATOM      2  H11 UNL     1      -0.114  21.336  22.369  1.00  0.00     0.280 HD
ATOM      3  H12 UNL     1      -0.042  21.394  23.925  1.00  0.00     0.280 HD
ENDROOT
BRANCH   1   4
HETATM    4  C3  UNL     1      -1.165  19.833  23.255  1.00  0.00     0.189 A 
HETATM    5  C1  UNL     1      -0.286  18.788  23.818  1.00  0.00     0.035 A 
HETATM    6  C2  UNL     1      -0.630  18.776  22.370  1.00  0.00     0.035 A 
ENDBRANCH   1   4
BRANCH   1   7
HETATM    7  C4  UNL     1      -1.782  22.155  23.197  1.00  0.00     0.345 A 
HETATM    8  C5  UNL     1      -1.613  23.522  23.532  1.00  0.00     0.231 A 
HETATM    9  O1  UNL     1      -1.728  23.152  22.129  1.00  0.00    -0.353 OA
ENDBRANCH   1   7
TORSDOF 2
ENDMDL
MODEL 2
REMARK VINA RESULT: -4.148721995      3.618      4.747
REMARK  2 active torsions:
REMARK  status: ('A' for Active; 'I' for Inactive)
REMARK    1  A    between atoms: C3_3  and  N1_4 
REMARK    2  A    between atoms: N1_4  and  C4_7 
ROOT
HETATM    1  N1  UNL     1       0.050  18.109  24.409  1.00  0.00    -0.043 N 
ATOM      2  H11 UNL     1      -0.727  17.456  24.315  1.00  0.00     0.280 HD
ATOM      3  H12 UNL     1      -0.106  18.424  25.366  1.00  0.00     0.280 HD
ENDROOT
BRANCH   1   4
HETATM    4  C3  UNL     1      -0.089  19.203  23.484  1.00  0.00     0.189 A 
HETATM    5  C1  UNL     1      -1.404  19.845  23.287  1.00  0.00     0.035 A 
HETATM    6  C2  UNL     1      -0.784  19.057  22.187  1.00  0.00     0.035 A 
ENDBRANCH   1   4
BRANCH   1   7
HETATM    7  C4  UNL     1       1.306  17.423  24.298  1.00  0.00     0.345 A 
HETATM    8  C5  UNL     1       2.568  18.056  24.434  1.00  0.00     0.231 A 
HETATM    9  O1  UNL     1       2.044  17.285  25.552  1.00  0.00    -0.353 OA
ENDBRANCH   1   7
TORSDOF 2
ENDMDL
MODEL 3
REMARK VINA RESULT: -4.069957926      1.844      3.887
REMARK  2 active torsions:
REMARK  status: ('A' for Active; 'I' for Inactive)
REMARK    1  A    between atoms: C3_3  and  N1_4 
REMARK    2  A    between atoms: N1_4  and  C4_7 
ROOT
HETATM    1  N1  UNL     1      -0.716  21.408  23.214  1.00  0.00    -0.043 N 
ATOM      2  H11 UNL     1      -0.219  21.619  24.079  1.00  0.00     0.280 HD
ATOM      3  H12 UNL     1       0.048  21.516  22.548  1.00  0.00     0.280 HD
ENDROOT
BRANCH   1   4
HETATM    4  C3  UNL     1      -1.747  22.381  22.969  1.00  0.00     0.189 A 
HETATM    5  C1  UNL     1      -1.633  23.741  23.533  1.00  0.00     0.035 A 
HETATM    6  C2  UNL     1      -2.691  22.815  24.022  1.00  0.00     0.035 A 
ENDBRANCH   1   4
BRANCH   1   7
HETATM    7  C4  UNL     1      -1.196  20.055  23.221  1.00  0.00     0.345 A 
HETATM    8  C5  UNL     1      -0.519  18.973  22.605  1.00  0.00     0.231 A 
HETATM    9  O1  UNL     1      -0.423  19.132  24.049  1.00  0.00    -0.353 OA
ENDBRANCH   1   7
TORSDOF 2
ENDMDL
MODEL 4
REMARK VINA RESULT: -4.023267974      2.548      3.336
REMARK  2 active torsions:
REMARK  status: ('A' for Active; 'I' for Inactive)
REMARK    1  A    between atoms: C3_3  and  N1_4 
REMARK    2  A    between atoms: N1_4  and  C4_7 
ROOT
HETATM    1  N1  UNL     1       0.911  19.614  23.624  1.00  0.00    -0.043 N 
ATOM      2  H11 UNL     1       1.596  20.296  23.298  1.00  0.00     0.280 HD
ATOM      3  H12 UNL     1       0.742  19.977  24.562  1.00  0.00     0.280 HD
ENDROOT
BRANCH   1   4
HETATM    4  C3  UNL     1       1.492  18.299  23.684  1.00  0.00     0.189 A 
HETATM    5  C1  UNL     1       1.255  17.437  24.859  1.00  0.00     0.035 A 
HETATM    6  C2  UNL     1       2.617  17.973  24.587  1.00  0.00     0.035 A 
ENDBRANCH   1   4
BRANCH   1   7
HETATM    7  C4  UNL     1      -0.285  19.676  22.832  1.00  0.00     0.345 A 
HETATM    8  C5  UNL     1      -1.407  18.832  23.027  1.00  0.00     0.231 A 
HETATM    9  O1  UNL     1      -1.458  20.197  23.529  1.00  0.00    -0.353 OA
ENDBRANCH   1   7
TORSDOF 2
ENDMDL
MODEL 5
REMARK VINA RESULT: -3.868055358      3.635      4.675
REMARK  2 active torsions:
REMARK  status: ('A' for Active; 'I' for Inactive)
REMARK    1  A    between atoms: C3_3  and  N1_4 
REMARK    2  A    between atoms: N1_4  and  C4_7 
ROOT
HETATM    1  N1  UNL     1       1.011  17.992  22.824  1.00  0.00    -0.043 N 
ATOM      2  H11 UNL     1       1.767  18.103  22.149  1.00  0.00     0.280 HD
ATOM      3  H12 UNL     1       0.822  16.996  22.706  1.00  0.00     0.280 HD
ENDROOT
BRANCH   1   4
HETATM    4  C3  UNL     1      -0.134  18.776  22.441  1.00  0.00     0.189 A 
HETATM    5  C1  UNL     1      -0.558  19.922  23.269  1.00  0.00     0.035 A 
HETATM    6  C2  UNL     1      -1.417  18.710  23.173  1.00  0.00     0.035 A 
ENDBRANCH   1   4
BRANCH   1   7
HETATM    7  C4  UNL     1       1.473  18.267  24.155  1.00  0.00     0.345 A 
HETATM    8  C5  UNL     1       1.487  17.310  25.201  1.00  0.00     0.231 A 
HETATM    9  O1  UNL     1       2.733  17.618  24.515  1.00  0.00    -0.353 OA
ENDBRANCH   1   7
TORSDOF 2
ENDMDL
