MODEL 1
REMARK VINA RESULT: -5.592656197      0.000      0.000
REMARK  4 active torsions:
REMARK  status: ('A' for Active; 'I' for Inactive)
REMARK    1  A    between atoms: C2_2  and  O1_6 
REMARK    2  A    between atoms: O1_6  and  C3_7 
REMARK    3  A    between atoms: C4_8  and  C5_9 
REMARK    4  A    between atoms: N2_14  and  O5_15 
ROOT
HETATM    1  C3  UNL     1      -4.157 -27.436  -3.665  1.00  0.00     0.178 A 
HETATM    2  C4  UNL     1      -3.380 -27.921  -2.631  1.00  0.00     0.162 A 
HETATM    3  C6  UNL     1      -3.959 -28.007  -1.356  1.00  0.00     0.297 A 
HETATM    4  O4  UNL     1      -3.232 -28.452  -0.423  1.00  0.00    -0.264 OA
HETATM    5  N2  UNL     1      -5.213 -27.621  -1.211  1.00  0.00    -0.133 N 
HETATM    6  C7  UNL     1      -5.937 -27.153  -2.254  1.00  0.00     0.357 A 
HETATM    7  O6  UNL     1      -7.138 -26.803  -2.027  1.00  0.00    -0.244 OA
HETATM    8  N3  UNL     1      -5.428 -27.052  -3.485  1.00  0.00    -0.281 N 
HETATM    9  C8  UNL     1      -6.173 -26.559  -4.608  1.00  0.00     0.163 C 
ENDROOT
BRANCH   1  10
HETATM   10  O1  UNL     1      -3.647 -27.321  -4.946  1.00  0.00    -0.280 OA
BRANCH  10  11
HETATM   11  C2  UNL     1      -3.954 -28.372  -5.827  1.00  0.00     0.115 C 
HETATM   12  C1  UNL     1      -4.113 -28.107  -7.303  1.00  0.00     0.097 C 
HETATM   13  N1  UNL     1      -4.099 -29.563  -5.361  1.00  0.00    -0.383 N 
ATOM     14  H12 UNL     1      -4.322 -30.326  -6.000  1.00  0.00     0.157 HD
ATOM     15  H11 UNL     1      -3.991 -29.743  -4.363  1.00  0.00     0.157 HD
ENDBRANCH  10  11
ENDBRANCH   1  10
BRANCH   2  16
HETATM   16  C5  UNL     1      -2.015 -28.349  -2.849  1.00  0.00     0.219 C 
HETATM   17  O2  UNL     1      -1.782 -29.526  -3.209  1.00  0.00    -0.644 OA
HETATM   18  O3  UNL     1      -0.983 -27.467  -2.662  1.00  0.00    -0.644 OA
ENDBRANCH   2  16
BRANCH   5  19
HETATM   19  O5  UNL     1      -5.771 -27.711   0.044  1.00  0.00    -0.276 OA
ATOM     20  H5  UNL     1      -5.216 -27.514   0.790  1.00  0.00     0.245 HD
ENDBRANCH   5  19
TORSDOF 4
ENDMDL
MODEL 2
REMARK VINA RESULT: -5.417251337      1.946      5.355
REMARK  4 active torsions:
REMARK  status: ('A' for Active; 'I' for Inactive)
REMARK    1  A    between atoms: C2_2  and  O1_6 
REMARK    2  A    between atoms: O1_6  and  C3_7 
REMARK    3  A    between atoms: C4_8  and  C5_9 
REMARK    4  A    between atoms: N2_14  and  O5_15 
ROOT
HETATM    1  C3  UNL     1      -5.029 -28.891  -2.793  1.00  0.00     0.178 A 
HETATM    2  C4  UNL     1      -5.790 -28.398  -3.834  1.00  0.00     0.162 A 
HETATM    3  C6  UNL     1      -5.223 -28.389  -5.118  1.00  0.00     0.297 A 
HETATM    4  O4  UNL     1      -5.934 -27.933  -6.058  1.00  0.00    -0.264 OA
HETATM    5  N2  UNL     1      -3.995 -28.851  -5.263  1.00  0.00    -0.133 N 
HETATM    6  C7  UNL     1      -3.286 -29.326  -4.213  1.00  0.00     0.357 A 
HETATM    7  O6  UNL     1      -2.110 -29.753  -4.440  1.00  0.00    -0.244 OA
HETATM    8  N3  UNL     1      -3.784 -29.354  -2.974  1.00  0.00    -0.281 N 
HETATM    9  C8  UNL     1      -3.055 -29.852  -1.842  1.00  0.00     0.163 C 
ENDROOT
BRANCH   1  10
HETATM   10  O1  UNL     1      -5.525 -28.925  -1.502  1.00  0.00    -0.280 OA
BRANCH  10  11
HETATM   11  C2  UNL     1      -5.173 -27.841  -0.678  1.00  0.00     0.115 C 
HETATM   12  C1  UNL     1      -5.038 -28.029   0.811  1.00  0.00     0.097 C 
HETATM   13  N1  UNL     1      -4.969 -26.687  -1.209  1.00  0.00    -0.383 N 
ATOM     14  H12 UNL     1      -4.714 -25.900  -0.612  1.00  0.00     0.157 HD
ATOM     15  H11 UNL     1      -5.061 -26.559  -2.217  1.00  0.00     0.157 HD
ENDBRANCH  10  11
ENDBRANCH   1  10
BRANCH   2  16
HETATM   16  C5  UNL     1      -7.140 -27.921  -3.624  1.00  0.00     0.219 C 
HETATM   17  O2  UNL     1      -7.332 -26.745  -3.240  1.00  0.00    -0.644 OA
HETATM   18  O3  UNL     1      -8.203 -28.757  -3.848  1.00  0.00    -0.644 OA
ENDBRANCH   2  16
BRANCH   5  19
HETATM   19  O5  UNL     1      -3.449 -28.838  -6.527  1.00  0.00    -0.276 OA
ATOM     20  H5  UNL     1      -2.609 -29.264  -6.650  1.00  0.00     0.245 HD
ENDBRANCH   5  19
TORSDOF 4
ENDMDL
MODEL 3
REMARK VINA RESULT: -5.343240187      1.787      4.084
REMARK  4 active torsions:
REMARK  status: ('A' for Active; 'I' for Inactive)
REMARK    1  A    between atoms: C2_2  and  O1_6 
REMARK    2  A    between atoms: O1_6  and  C3_7 
REMARK    3  A    between atoms: C4_8  and  C5_9 
REMARK    4  A    between atoms: N2_14  and  O5_15 
ROOT
HETATM    1  C3  UNL     1      -5.082 -28.079  -2.539  1.00  0.00     0.178 A 
HETATM    2  C4  UNL     1      -4.332 -28.032  -3.697  1.00  0.00     0.162 A 
HETATM    3  C6  UNL     1      -2.937 -27.945  -3.576  1.00  0.00     0.297 A 
HETATM    4  O4  UNL     1      -2.269 -27.901  -4.647  1.00  0.00    -0.264 OA
HETATM    5  N2  UNL     1      -2.415 -27.911  -2.364  1.00  0.00    -0.133 N 
HETATM    6  C7  UNL     1      -3.190 -27.961  -1.256  1.00  0.00     0.357 A 
HETATM    7  O6  UNL     1      -2.606 -27.924  -0.127  1.00  0.00    -0.244 OA
HETATM    8  N3  UNL     1      -4.521 -28.044  -1.322  1.00  0.00    -0.281 N 
HETATM    9  C8  UNL     1      -5.366 -28.098  -0.163  1.00  0.00     0.163 C 
ENDROOT
BRANCH   1  10
HETATM   10  O1  UNL     1      -6.463 -28.162  -2.586  1.00  0.00    -0.280 OA
BRANCH  10  11
HETATM   11  C2  UNL     1      -7.139 -26.977  -2.923  1.00  0.00     0.115 C 
HETATM   12  C1  UNL     1      -8.352 -27.020  -3.818  1.00  0.00     0.097 C 
HETATM   13  N1  UNL     1      -6.711 -25.854  -2.461  1.00  0.00    -0.383 N 
ATOM     14  H12 UNL     1      -7.202 -24.994  -2.706  1.00  0.00     0.157 HD
ATOM     15  H11 UNL     1      -5.891 -25.825  -1.856  1.00  0.00     0.157 HD
ENDBRANCH  10  11
ENDBRANCH   1  10
BRANCH   2  16
HETATM   16  C5  UNL     1      -4.954 -28.092  -5.003  1.00  0.00     0.219 C 
HETATM   17  O2  UNL     1      -5.260 -29.201  -5.496  1.00  0.00    -0.644 OA
HETATM   18  O3  UNL     1      -5.207 -26.935  -5.693  1.00  0.00    -0.644 OA
ENDBRANCH   2  16
BRANCH   5  19
HETATM   19  O5  UNL     1      -1.046 -27.825  -2.257  1.00  0.00    -0.276 OA
ATOM     20  H5  UNL     1      -0.680 -27.635  -1.402  1.00  0.00     0.245 HD
ENDBRANCH   5  19
TORSDOF 4
ENDMDL
MODEL 4
REMARK VINA RESULT: -5.276602150      1.716      4.146
REMARK  4 active torsions:
REMARK  status: ('A' for Active; 'I' for Inactive)
REMARK    1  A    between atoms: C2_2  and  O1_6 
REMARK    2  A    between atoms: O1_6  and  C3_7 
REMARK    3  A    between atoms: C4_8  and  C5_9 
REMARK    4  A    between atoms: N2_14  and  O5_15 
ROOT
HETATM    1  C3  UNL     1      -4.825 -28.818  -2.761  1.00  0.00     0.178 A 
HETATM    2  C4  UNL     1      -3.453 -28.971  -2.748  1.00  0.00     0.162 A 
HETATM    3  C6  UNL     1      -2.765 -28.841  -3.964  1.00  0.00     0.297 A 
HETATM    4  O4  UNL     1      -1.510 -28.985  -3.932  1.00  0.00    -0.264 OA
HETATM    5  N2  UNL     1      -3.463 -28.580  -5.054  1.00  0.00    -0.133 N 
HETATM    6  C7  UNL     1      -4.808 -28.437  -5.018  1.00  0.00     0.357 A 
HETATM    7  O6  UNL     1      -5.403 -28.187  -6.113  1.00  0.00    -0.244 OA
HETATM    8  N3  UNL     1      -5.505 -28.553  -3.885  1.00  0.00    -0.281 N 
HETATM    9  C8  UNL     1      -6.932 -28.407  -3.818  1.00  0.00     0.163 C 
ENDROOT
BRANCH   1  10
HETATM   10  O1  UNL     1      -5.566 -28.937  -1.597  1.00  0.00    -0.280 OA
BRANCH  10  11
HETATM   11  C2  UNL     1      -5.435 -27.885  -0.674  1.00  0.00     0.115 C 
HETATM   12  C1  UNL     1      -5.582 -28.146   0.803  1.00  0.00     0.097 C 
HETATM   13  N1  UNL     1      -5.190 -26.696  -1.103  1.00  0.00    -0.383 N 
ATOM     14  H12 UNL     1      -5.094 -25.933  -0.433  1.00  0.00     0.157 HD
ATOM     15  H11 UNL     1      -5.090 -26.519  -2.103  1.00  0.00     0.157 HD
ENDBRANCH  10  11
ENDBRANCH   1  10
BRANCH   2  16
HETATM   16  C5  UNL     1      -2.734 -29.236  -1.521  1.00  0.00     0.219 C 
HETATM   17  O2  UNL     1      -2.470 -30.416  -1.197  1.00  0.00    -0.644 OA
HETATM   18  O3  UNL     1      -2.342 -28.196  -0.719  1.00  0.00    -0.644 OA
ENDBRANCH   2  16
BRANCH   5  19
HETATM   19  O5  UNL     1      -2.777 -28.455  -6.240  1.00  0.00    -0.276 OA
ATOM     20  H5  UNL     1      -3.172 -27.930  -6.926  1.00  0.00     0.245 HD
ENDBRANCH   5  19
TORSDOF 4
ENDMDL
MODEL 5
REMARK VINA RESULT: -5.202179767      1.765      2.488
REMARK  4 active torsions:
REMARK  status: ('A' for Active; 'I' for Inactive)
REMARK    1  A    between atoms: C2_2  and  O1_6 
REMARK    2  A    between atoms: O1_6  and  C3_7 
REMARK    3  A    between atoms: C4_8  and  C5_9 
REMARK    4  A    between atoms: N2_14  and  O5_15 
ROOT
HETATM    1  C3  UNL     1      -4.372 -28.706  -3.591  1.00  0.00     0.178 A 
HETATM    2  C4  UNL     1      -4.605 -28.748  -2.231  1.00  0.00     0.162 A 
HETATM    3  C6  UNL     1      -5.637 -27.950  -1.715  1.00  0.00     0.297 A 
HETATM    4  O4  UNL     1      -5.834 -28.001  -0.468  1.00  0.00    -0.264 OA
HETATM    5  N2  UNL     1      -6.328 -27.202  -2.554  1.00  0.00    -0.133 N 
HETATM    6  C7  UNL     1      -6.065 -27.193  -3.881  1.00  0.00     0.357 A 
HETATM    7  O6  UNL     1      -6.780 -26.444  -4.618  1.00  0.00    -0.244 OA
HETATM    8  N3  UNL     1      -5.093 -27.936  -4.417  1.00  0.00    -0.281 N 
HETATM    9  C8  UNL     1      -4.792 -27.946  -5.821  1.00  0.00     0.163 C 
ENDROOT
BRANCH   1  10
HETATM   10  O1  UNL     1      -3.367 -29.466  -4.166  1.00  0.00    -0.280 OA
BRANCH  10  11
HETATM   11  C2  UNL     1      -2.129 -28.822  -4.334  1.00  0.00     0.115 C 
HETATM   12  C1  UNL     1      -1.268 -29.127  -5.534  1.00  0.00     0.097 C 
HETATM   13  N1  UNL     1      -1.737 -27.970  -3.453  1.00  0.00    -0.383 N 
ATOM     14  H12 UNL     1      -0.838 -27.502  -3.575  1.00  0.00     0.157 HD
ATOM     15  H11 UNL     1      -2.318 -27.763  -2.641  1.00  0.00     0.157 HD
ENDBRANCH  10  11
ENDBRANCH   1  10
BRANCH   2  16
HETATM   16  C5  UNL     1      -3.828 -29.602  -1.358  1.00  0.00     0.219 C 
HETATM   17  O2  UNL     1      -4.107 -30.819  -1.268  1.00  0.00    -0.644 OA
HETATM   18  O3  UNL     1      -2.790 -29.076  -0.633  1.00  0.00    -0.644 OA
ENDBRANCH   2  16
BRANCH   5  19
HETATM   19  O5  UNL     1      -7.338 -26.423  -2.035  1.00  0.00    -0.276 OA
ATOM     20  H5  UNL     1      -7.608 -25.660  -2.532  1.00  0.00     0.245 HD
ENDBRANCH   5  19
TORSDOF 4
ENDMDL
