MODEL 1
REMARK VINA RESULT: -6.471077420      0.000      0.000
REMARK  6 active torsions:
REMARK  status: ('A' for Active; 'I' for Inactive)
REMARK    1  A    between atoms: C2_2  and  O1_3 
REMARK    2  A    between atoms: O1_3  and  C3_4 
REMARK    3  A    between atoms: C3_4  and  C4_5 
REMARK    4  A    between atoms: C5_6  and  C6_7 
REMARK    5  A    between atoms: C6_7  and  O2_8 
REMARK    6  A    between atoms: N3_19  and  O5_21 
ROOT
HETATM    1  C6  UNL     1     -10.969 -26.749  -4.068  1.00  0.00     0.271 C 
HETATM    2  C7  UNL     1     -11.029 -26.316  -5.481  1.00  0.00     0.222 C 
HETATM    3  O3  UNL     1     -12.081 -26.504  -6.131  1.00  0.00    -0.287 OA
HETATM    4  C8  UNL     1      -9.906 -25.677  -6.144  1.00  0.00     0.162 C 
HETATM    5  N1  UNL     1      -8.939 -25.186  -5.432  1.00  0.00    -0.305 N 
ATOM      6  H1  UNL     1      -8.153 -24.739  -5.903  1.00  0.00     0.186 HD
HETATM    7  N2  UNL     1      -8.944 -25.251  -4.041  1.00  0.00    -0.266 N 
ATOM      8  H2  UNL     1      -8.168 -24.854  -3.513  1.00  0.00     0.190 HD
HETATM    9  C9  UNL     1     -10.009 -25.859  -3.364  1.00  0.00     0.291 C 
HETATM   10  O4  UNL     1     -10.175 -25.657  -2.112  1.00  0.00    -0.267 OA
ENDROOT
BRANCH   1  11
HETATM   11  C5  UNL     1     -12.284 -26.521  -3.434  1.00  0.00    -0.041 C 
HETATM   12  C4  UNL     1     -13.367 -26.355  -2.919  1.00  0.00    -0.017 C 
BRANCH  12  13
HETATM   13  C3  UNL     1     -14.652 -26.182  -2.301  1.00  0.00     0.219 C 
HETATM   14  N3  UNL     1     -15.342 -25.116  -2.528  1.00  0.00    -0.240 N 
ATOM     15  H3  UNL     1     -16.252 -25.023  -2.075  1.00  0.00     0.197 HD
BRANCH  13  16
HETATM   16  O1  UNL     1     -15.216 -27.121  -1.448  1.00  0.00    -0.328 OA
BRANCH  16  17
HETATM   17  C2  UNL     1     -14.722 -28.469  -1.396  1.00  0.00     0.173 C 
HETATM   18  C1  UNL     1     -14.618 -28.867   0.044  1.00  0.00     0.034 C 
ENDBRANCH  16  17
ENDBRANCH  13  16
BRANCH  14  19
HETATM   19  O5  UNL     1     -14.916 -24.099  -3.350  1.00  0.00    -0.287 OA
ATOM     20  H5  UNL     1     -14.598 -24.238  -4.234  1.00  0.00     0.244 HD
ENDBRANCH  14  19
ENDBRANCH  12  13
ENDBRANCH   1  11
BRANCH   1  21
HETATM   21  O2  UNL     1     -10.596 -28.087  -3.979  1.00  0.00    -0.363 OA
ATOM     22  H2  UNL     1     -10.247 -28.287  -3.118  1.00  0.00     0.212 HD
ENDBRANCH   1  21
TORSDOF 6
ENDMDL
MODEL 2
REMARK VINA RESULT: -6.129527240      1.412      2.371
REMARK  6 active torsions:
REMARK  status: ('A' for Active; 'I' for Inactive)
REMARK    1  A    between atoms: C2_2  and  O1_3 
REMARK    2  A    between atoms: O1_3  and  C3_4 
REMARK    3  A    between atoms: C3_4  and  C4_5 
REMARK    4  A    between atoms: C5_6  and  C6_7 
REMARK    5  A    between atoms: C6_7  and  O2_8 
REMARK    6  A    between atoms: N3_19  and  O5_21 
ROOT
HETATM    1  C6  UNL     1     -10.854 -26.096  -4.404  1.00  0.00     0.271 C 
HETATM    2  C7  UNL     1      -9.862 -26.934  -3.695  1.00  0.00     0.222 C 
HETATM    3  O3  UNL     1      -9.833 -26.916  -2.445  1.00  0.00    -0.287 OA
HETATM    4  C8  UNL     1      -8.917 -27.780  -4.401  1.00  0.00     0.162 C 
HETATM    5  N1  UNL     1      -9.125 -28.065  -5.650  1.00  0.00    -0.305 N 
ATOM      6  H1  UNL     1      -8.457 -28.660  -6.140  1.00  0.00     0.186 HD
HETATM    7  N2  UNL     1     -10.233 -27.583  -6.339  1.00  0.00    -0.266 N 
ATOM      8  H2  UNL     1     -10.366 -27.828  -7.320  1.00  0.00     0.190 HD
HETATM    9  C9  UNL     1     -11.169 -26.764  -5.694  1.00  0.00     0.291 C 
HETATM   10  O4  UNL     1     -12.322 -26.573  -6.211  1.00  0.00    -0.267 OA
ENDROOT
BRANCH   1  11
HETATM   11  C5  UNL     1     -12.114 -26.078  -3.632  1.00  0.00    -0.041 C 
HETATM   12  C4  UNL     1     -13.156 -26.054  -3.016  1.00  0.00    -0.017 C 
BRANCH  12  13
HETATM   13  C3  UNL     1     -14.405 -26.028  -2.307  1.00  0.00     0.219 C 
HETATM   14  N3  UNL     1     -15.254 -25.081  -2.524  1.00  0.00    -0.240 N 
ATOM     15  H3  UNL     1     -16.132 -25.091  -2.005  1.00  0.00     0.197 HD
BRANCH  13  16
HETATM   16  O1  UNL     1     -14.767 -26.988  -1.373  1.00  0.00    -0.328 OA
BRANCH  16  17
HETATM   17  C2  UNL     1     -14.527 -28.385  -1.612  1.00  0.00     0.173 C 
HETATM   18  C1  UNL     1     -14.471 -29.077  -0.284  1.00  0.00     0.034 C 
ENDBRANCH  16  17
ENDBRANCH  13  16
BRANCH  14  19
HETATM   19  O5  UNL     1     -15.037 -24.060  -3.420  1.00  0.00    -0.287 OA
ATOM     20  H5  UNL     1     -14.775 -24.201  -4.321  1.00  0.00     0.244 HD
ENDBRANCH  14  19
ENDBRANCH  12  13
ENDBRANCH   1  11
BRANCH   1  21
HETATM   21  O2  UNL     1     -10.364 -24.807  -4.593  1.00  0.00    -0.363 OA
ATOM     22  H2  UNL     1     -11.066 -24.204  -4.806  1.00  0.00     0.212 HD
ENDBRANCH   1  21
TORSDOF 6
ENDMDL
MODEL 3
REMARK VINA RESULT: -6.084864366      2.465      3.521
REMARK  6 active torsions:
REMARK  status: ('A' for Active; 'I' for Inactive)
REMARK    1  A    between atoms: C2_2  and  O1_3 
REMARK    2  A    between atoms: O1_3  and  C3_4 
REMARK    3  A    between atoms: C3_4  and  C4_5 
REMARK    4  A    between atoms: C5_6  and  C6_7 
REMARK    5  A    between atoms: C6_7  and  O2_8 
REMARK    6  A    between atoms: N3_19  and  O5_21 
ROOT
HETATM    1  C6  UNL     1      -8.372 -25.458  -3.369  1.00  0.00     0.271 C 
HETATM    2  C7  UNL     1      -7.662 -25.808  -4.618  1.00  0.00     0.222 C 
HETATM    3  O3  UNL     1      -7.880 -26.918  -5.152  1.00  0.00    -0.287 OA
HETATM    4  C8  UNL     1      -6.715 -24.906  -5.250  1.00  0.00     0.162 C 
HETATM    5  N1  UNL     1      -6.706 -23.653  -4.913  1.00  0.00    -0.305 N 
ATOM      6  H1  UNL     1      -6.039 -23.024  -5.360  1.00  0.00     0.186 HD
HETATM    7  N2  UNL     1      -7.581 -23.142  -3.959  1.00  0.00    -0.266 N 
ATOM      8  H2  UNL     1      -7.547 -22.151  -3.719  1.00  0.00     0.190 HD
HETATM    9  C9  UNL     1      -8.509 -23.979  -3.327  1.00  0.00     0.291 C 
HETATM   10  O4  UNL     1      -9.501 -23.479  -2.694  1.00  0.00    -0.267 OA
ENDROOT
BRANCH   1  11
HETATM   11  C5  UNL     1      -9.747 -25.998  -3.425  1.00  0.00    -0.041 C 
HETATM   12  C4  UNL     1     -10.866 -26.457  -3.482  1.00  0.00    -0.017 C 
BRANCH  12  13
HETATM   13  C3  UNL     1     -12.183 -27.025  -3.550  1.00  0.00     0.219 C 
HETATM   14  N3  UNL     1     -12.373 -28.262  -3.239  1.00  0.00    -0.240 N 
ATOM     15  H3  UNL     1     -13.320 -28.636  -3.298  1.00  0.00     0.197 HD
BRANCH  13  16
HETATM   16  O1  UNL     1     -13.301 -26.301  -3.942  1.00  0.00    -0.328 OA
BRANCH  16  17
HETATM   17  C2  UNL     1     -13.903 -25.332  -3.069  1.00  0.00     0.173 C 
HETATM   18  C1  UNL     1     -15.145 -25.940  -2.490  1.00  0.00     0.034 C 
ENDBRANCH  16  17
ENDBRANCH  13  16
BRANCH  14  19
HETATM   19  O5  UNL     1     -11.364 -29.104  -2.833  1.00  0.00    -0.287 OA
ATOM     20  H5  UNL     1     -11.494 -30.026  -2.648  1.00  0.00     0.244 HD
ENDBRANCH  14  19
ENDBRANCH  12  13
ENDBRANCH   1  11
BRANCH   1  21
HETATM   21  O2  UNL     1      -7.688 -25.947  -2.260  1.00  0.00    -0.363 OA
ATOM     22  H2  UNL     1      -7.622 -25.286  -1.581  1.00  0.00     0.212 HD
ENDBRANCH   1  21
TORSDOF 6
ENDMDL
MODEL 4
REMARK VINA RESULT: -6.051776016      2.362      3.745
REMARK  6 active torsions:
REMARK  status: ('A' for Active; 'I' for Inactive)
REMARK    1  A    between atoms: C2_2  and  O1_3 
REMARK    2  A    between atoms: O1_3  and  C3_4 
REMARK    3  A    between atoms: C3_4  and  C4_5 
REMARK    4  A    between atoms: C5_6  and  C6_7 
REMARK    5  A    between atoms: C6_7  and  O2_8 
REMARK    6  A    between atoms: N3_19  and  O5_21 
ROOT
HETATM    1  C6  UNL     1      -8.984 -24.986  -3.963  1.00  0.00     0.271 C 
HETATM    2  C7  UNL     1      -7.858 -25.761  -3.397  1.00  0.00     0.222 C 
HETATM    3  O3  UNL     1      -8.049 -26.451  -2.372  1.00  0.00    -0.287 OA
HETATM    4  C8  UNL     1      -6.533 -25.749  -3.992  1.00  0.00     0.162 C 
HETATM    5  N1  UNL     1      -6.382 -25.316  -5.205  1.00  0.00    -0.305 N 
ATOM      6  H1  UNL     1      -5.450 -25.310  -5.617  1.00  0.00     0.186 HD
HETATM    7  N2  UNL     1      -7.458 -24.860  -5.962  1.00  0.00    -0.266 N 
ATOM      8  H2  UNL     1      -7.303 -24.527  -6.914  1.00  0.00     0.190 HD
HETATM    9  C9  UNL     1      -8.752 -24.855  -5.425  1.00  0.00     0.291 C 
HETATM   10  O4  UNL     1      -9.767 -24.734  -6.193  1.00  0.00    -0.267 OA
ENDROOT
BRANCH   1  11
HETATM   11  C5  UNL     1     -10.232 -25.763  -3.813  1.00  0.00    -0.041 C 
HETATM   12  C4  UNL     1     -11.266 -26.382  -3.697  1.00  0.00    -0.017 C 
BRANCH  12  13
HETATM   13  C3  UNL     1     -12.503 -27.104  -3.578  1.00  0.00     0.219 C 
HETATM   14  N3  UNL     1     -12.500 -28.335  -3.195  1.00  0.00    -0.240 N 
ATOM     15  H3  UNL     1     -13.394 -28.821  -3.120  1.00  0.00     0.197 HD
BRANCH  13  16
HETATM   16  O1  UNL     1     -13.740 -26.540  -3.858  1.00  0.00    -0.328 OA
BRANCH  16  17
HETATM   17  C2  UNL     1     -14.184 -25.350  -3.186  1.00  0.00     0.173 C 
HETATM   18  C1  UNL     1     -15.431 -25.686  -2.428  1.00  0.00     0.034 C 
ENDBRANCH  16  17
ENDBRANCH  13  16
BRANCH  14  19
HETATM   19  O5  UNL     1     -11.354 -29.029  -2.881  1.00  0.00    -0.287 OA
ATOM     20  H5  UNL     1     -11.299 -29.977  -2.882  1.00  0.00     0.244 HD
ENDBRANCH  14  19
ENDBRANCH  12  13
ENDBRANCH   1  11
BRANCH   1  21
HETATM   21  O2  UNL     1      -9.089 -23.745  -3.341  1.00  0.00    -0.363 OA
ATOM     22  H2  UNL     1      -8.251 -23.300  -3.326  1.00  0.00     0.212 HD
ENDBRANCH   1  21
TORSDOF 6
ENDMDL
MODEL 5
REMARK VINA RESULT: -5.945016289      2.381      3.651
REMARK  6 active torsions:
REMARK  status: ('A' for Active; 'I' for Inactive)
REMARK    1  A    between atoms: C2_2  and  O1_3 
REMARK    2  A    between atoms: O1_3  and  C3_4 
REMARK    3  A    between atoms: C3_4  and  C4_5 
REMARK    4  A    between atoms: C5_6  and  C6_7 
REMARK    5  A    between atoms: C6_7  and  O2_8 
REMARK    6  A    between atoms: N3_19  and  O5_21 
ROOT
HETATM    1  C6  UNL     1      -9.200 -25.400  -5.120  1.00  0.00     0.271 C 
HETATM    2  C7  UNL     1      -8.558 -24.669  -4.006  1.00  0.00     0.222 C 
HETATM    3  O3  UNL     1      -9.278 -24.110  -3.150  1.00  0.00    -0.287 OA
HETATM    4  C8  UNL     1      -7.115 -24.578  -3.870  1.00  0.00     0.162 C 
HETATM    5  N1  UNL     1      -6.358 -25.394  -4.536  1.00  0.00    -0.305 N 
ATOM      6  H1  UNL     1      -5.346 -25.324  -4.436  1.00  0.00     0.186 HD
HETATM    7  N2  UNL     1      -6.888 -26.362  -5.384  1.00  0.00    -0.266 N 
ATOM      8  H2  UNL     1      -6.263 -26.988  -5.892  1.00  0.00     0.190 HD
HETATM    9  C9  UNL     1      -8.275 -26.483  -5.543  1.00  0.00     0.291 C 
HETATM   10  O4  UNL     1      -8.773 -27.539  -6.063  1.00  0.00    -0.267 OA
ENDROOT
BRANCH   1  11
HETATM   11  C5  UNL     1     -10.419 -26.071  -4.623  1.00  0.00    -0.041 C 
HETATM   12  C4  UNL     1     -11.420 -26.605  -4.200  1.00  0.00    -0.017 C 
BRANCH  12  13
HETATM   13  C3  UNL     1     -12.616 -27.216  -3.691  1.00  0.00     0.219 C 
HETATM   14  N3  UNL     1     -12.552 -28.339  -3.060  1.00  0.00    -0.240 N 
ATOM     15  H3  UNL     1     -13.419 -28.748  -2.711  1.00  0.00     0.197 HD
BRANCH  13  16
HETATM   16  O1  UNL     1     -13.877 -26.655  -3.841  1.00  0.00    -0.328 OA
BRANCH  16  17
HETATM   17  C2  UNL     1     -14.236 -25.441  -3.162  1.00  0.00     0.173 C 
HETATM   18  C1  UNL     1     -15.502 -25.695  -2.400  1.00  0.00     0.034 C 
ENDBRANCH  16  17
ENDBRANCH  13  16
BRANCH  14  19
HETATM   19  O5  UNL     1     -11.375 -29.014  -2.833  1.00  0.00    -0.287 OA
ATOM     20  H5  UNL     1     -11.179 -29.465  -2.021  1.00  0.00     0.244 HD
ENDBRANCH  14  19
ENDBRANCH  12  13
ENDBRANCH   1  11
BRANCH   1  21
HETATM   21  O2  UNL     1      -9.499 -24.534  -6.169  1.00  0.00    -0.363 OA
ATOM     22  H2  UNL     1      -9.006 -24.760  -6.949  1.00  0.00     0.212 HD
ENDBRANCH   1  21
TORSDOF 6
ENDMDL
