MODEL 1
REMARK VINA RESULT: -6.120640631      0.000      0.000
REMARK  2 active torsions:
REMARK  status: ('A' for Active; 'I' for Inactive)
REMARK    1  A    between atoms: N3_11  and  O3_12 
REMARK    2  A    between atoms: N4_17  and  O4_18 
ROOT
HETATM    1  C1  UNL     1      -6.101 -26.597  -4.685  1.00  0.00     0.163 C 
HETATM    2  N1  UNL     1      -4.772 -26.894  -4.178  1.00  0.00    -0.286 N 
HETATM    3  C2  UNL     1      -4.594 -27.268  -2.900  1.00  0.00     0.171 A 
HETATM    4  C3  UNL     1      -3.314 -27.555  -2.414  1.00  0.00     0.174 A 
HETATM    5  C4  UNL     1      -2.254 -27.433  -3.312  1.00  0.00     0.282 A 
HETATM    6  O1  UNL     1      -1.103 -27.696  -2.858  1.00  0.00    -0.265 OA
HETATM    7  N2  UNL     1      -2.456 -27.059  -4.580  1.00  0.00    -0.273 N 
ATOM      8  H2  UNL     1      -1.671 -26.975  -5.227  1.00  0.00     0.173 HD
HETATM    9  C5  UNL     1      -3.705 -26.797  -4.991  1.00  0.00     0.330 A 
HETATM   10  O2  UNL     1      -3.918 -26.441  -6.192  1.00  0.00    -0.246 OA
HETATM   11  N3  UNL     1      -3.420 -27.920  -1.043  1.00  0.00    -0.220 N 
HETATM   12  C6  UNL     1      -4.797 -28.315  -0.857  1.00  0.00     0.152 C 
HETATM   13  C7  UNL     1      -4.948 -29.762  -1.294  1.00  0.00     0.067 C 
HETATM   14  C8  UNL     1      -5.277 -28.108   0.554  1.00  0.00     0.067 C 
HETATM   15  N4  UNL     1      -5.481 -27.464  -1.807  1.00  0.00    -0.210 N 
ENDROOT
BRANCH  11  16
HETATM   16  O3  UNL     1      -2.397 -27.875  -0.164  1.00  0.00    -0.284 OA
ATOM     17  H3  UNL     1      -1.978 -27.074   0.128  1.00  0.00     0.245 HD
ENDBRANCH  11  16
BRANCH  15  18
HETATM   18  O4  UNL     1      -6.714 -26.922  -1.745  1.00  0.00    -0.283 OA
ATOM     19  H4  UNL     1      -7.513 -27.424  -1.855  1.00  0.00     0.245 HD
ENDBRANCH  15  18
TORSDOF 2
ENDMDL
MODEL 2
REMARK VINA RESULT: -5.734111925      1.719      1.807
REMARK  2 active torsions:
REMARK  status: ('A' for Active; 'I' for Inactive)
REMARK    1  A    between atoms: N3_11  and  O3_12 
REMARK    2  A    between atoms: N4_17  and  O4_18 
ROOT
HETATM    1  C1  UNL     1      -6.488 -26.690  -4.498  1.00  0.00     0.163 C 
HETATM    2  N1  UNL     1      -5.297 -27.516  -4.604  1.00  0.00    -0.286 N 
HETATM    3  C2  UNL     1      -4.552 -27.787  -3.519  1.00  0.00     0.171 A 
HETATM    4  C3  UNL     1      -3.407 -28.583  -3.623  1.00  0.00     0.174 A 
HETATM    5  C4  UNL     1      -3.087 -29.070  -4.890  1.00  0.00     0.282 A 
HETATM    6  O1  UNL     1      -2.048 -29.789  -4.967  1.00  0.00    -0.265 OA
HETATM    7  N2  UNL     1      -3.844 -28.787  -5.955  1.00  0.00    -0.273 N 
ATOM      8  H2  UNL     1      -3.598 -29.151  -6.876  1.00  0.00     0.173 HD
HETATM    9  C5  UNL     1      -4.931 -28.019  -5.796  1.00  0.00     0.330 A 
HETATM   10  O2  UNL     1      -5.663 -27.739  -6.796  1.00  0.00    -0.246 OA
HETATM   11  N3  UNL     1      -2.819 -28.703  -2.333  1.00  0.00    -0.220 N 
HETATM   12  C6  UNL     1      -3.875 -28.387  -1.400  1.00  0.00     0.152 C 
HETATM   13  C7  UNL     1      -4.714 -29.633  -1.176  1.00  0.00     0.067 C 
HETATM   14  C8  UNL     1      -3.357 -27.825  -0.103  1.00  0.00     0.067 C 
HETATM   15  N4  UNL     1      -4.655 -27.424  -2.149  1.00  0.00    -0.210 N 
ENDROOT
BRANCH  11  16
HETATM   16  O3  UNL     1      -1.532 -29.046  -2.113  1.00  0.00    -0.284 OA
ATOM     17  H3  UNL     1      -1.030 -29.627  -2.672  1.00  0.00     0.245 HD
ENDBRANCH  11  16
BRANCH  15  18
HETATM   18  O4  UNL     1      -5.366 -26.366  -1.712  1.00  0.00    -0.283 OA
ATOM     19  H4  UNL     1      -6.285 -26.414  -1.478  1.00  0.00     0.245 HD
ENDBRANCH  15  18
TORSDOF 2
ENDMDL
MODEL 3
REMARK VINA RESULT: -5.585023323      4.476      6.472
REMARK  2 active torsions:
REMARK  status: ('A' for Active; 'I' for Inactive)
REMARK    1  A    between atoms: N3_11  and  O3_12 
REMARK    2  A    between atoms: N4_17  and  O4_18 
ROOT
HETATM    1  C1  UNL     1     -11.818 -26.063  -3.216  1.00  0.00     0.163 C 
HETATM    2  N1  UNL     1     -10.911 -26.367  -4.311  1.00  0.00    -0.286 N 
HETATM    3  C2  UNL     1      -9.625 -25.980  -4.263  1.00  0.00     0.171 A 
HETATM    4  C3  UNL     1      -8.754 -26.273  -5.317  1.00  0.00     0.174 A 
HETATM    5  C4  UNL     1      -9.283 -26.977  -6.398  1.00  0.00     0.282 A 
HETATM    6  O1  UNL     1      -8.482 -27.235  -7.343  1.00  0.00    -0.265 OA
HETATM    7  N2  UNL     1     -10.567 -27.352  -6.423  1.00  0.00    -0.273 N 
ATOM      8  H2  UNL     1     -10.940 -27.867  -7.220  1.00  0.00     0.173 HD
HETATM    9  C5  UNL     1     -11.356 -27.043  -5.384  1.00  0.00     0.330 A 
HETATM   10  O2  UNL     1     -12.578 -27.391  -5.389  1.00  0.00    -0.246 OA
HETATM   11  N3  UNL     1      -7.469 -25.749  -5.003  1.00  0.00    -0.220 N 
HETATM   12  C6  UNL     1      -7.465 -25.577  -3.569  1.00  0.00     0.152 C 
HETATM   13  C7  UNL     1      -7.123 -26.908  -2.922  1.00  0.00     0.067 C 
HETATM   14  C8  UNL     1      -6.536 -24.483  -3.116  1.00  0.00     0.067 C 
HETATM   15  N4  UNL     1      -8.855 -25.269  -3.303  1.00  0.00    -0.210 N 
ENDROOT
BRANCH  11  16
HETATM   16  O3  UNL     1      -6.510 -25.492  -5.916  1.00  0.00    -0.284 OA
ATOM     17  H3  UNL     1      -6.195 -24.622  -6.131  1.00  0.00     0.245 HD
ENDBRANCH  11  16
BRANCH  15  18
HETATM   18  O4  UNL     1      -9.395 -24.478  -2.354  1.00  0.00    -0.283 OA
ATOM     19  H4  UNL     1      -8.967 -24.283  -1.529  1.00  0.00     0.245 HD
ENDBRANCH  15  18
TORSDOF 2
ENDMDL
MODEL 4
REMARK VINA RESULT: -5.525643949      2.064      2.582
REMARK  2 active torsions:
REMARK  status: ('A' for Active; 'I' for Inactive)
REMARK    1  A    between atoms: N3_11  and  O3_12 
REMARK    2  A    between atoms: N4_17  and  O4_18 
ROOT
HETATM    1  C1  UNL     1      -6.960 -26.803  -2.418  1.00  0.00     0.163 C 
HETATM    2  N1  UNL     1      -5.612 -26.400  -2.781  1.00  0.00    -0.286 N 
HETATM    3  C2  UNL     1      -4.572 -27.227  -2.579  1.00  0.00     0.171 A 
HETATM    4  C3  UNL     1      -3.275 -26.838  -2.929  1.00  0.00     0.174 A 
HETATM    5  C4  UNL     1      -3.124 -25.570  -3.488  1.00  0.00     0.282 A 
HETATM    6  O1  UNL     1      -1.945 -25.233  -3.800  1.00  0.00    -0.265 OA
HETATM    7  N2  UNL     1      -4.174 -24.764  -3.680  1.00  0.00    -0.273 N 
ATOM      8  H2  UNL     1      -4.048 -23.839  -4.091  1.00  0.00     0.173 HD
HETATM    9  C5  UNL     1      -5.395 -25.191  -3.325  1.00  0.00     0.330 A 
HETATM   10  O2  UNL     1      -6.405 -24.440  -3.499  1.00  0.00    -0.246 OA
HETATM   11  N3  UNL     1      -2.382 -27.898  -2.607  1.00  0.00    -0.220 N 
HETATM   12  C6  UNL     1      -3.205 -29.081  -2.521  1.00  0.00     0.152 C 
HETATM   13  C7  UNL     1      -3.412 -29.630  -3.922  1.00  0.00     0.067 C 
HETATM   14  C8  UNL     1      -2.634 -30.121  -1.595  1.00  0.00     0.067 C 
HETATM   15  N4  UNL     1      -4.457 -28.537  -2.040  1.00  0.00    -0.210 N 
ENDROOT
BRANCH  11  16
HETATM   16  O3  UNL     1      -1.052 -27.743  -2.434  1.00  0.00    -0.284 OA
ATOM     17  H3  UNL     1      -0.440 -27.551  -3.135  1.00  0.00     0.245 HD
ENDBRANCH  11  16
BRANCH  15  18
HETATM   18  O4  UNL     1      -5.386 -29.095  -1.238  1.00  0.00    -0.283 OA
ATOM     19  H4  UNL     1      -6.161 -29.537  -1.563  1.00  0.00     0.245 HD
ENDBRANCH  15  18
TORSDOF 2
ENDMDL
MODEL 5
REMARK VINA RESULT: -5.511261910      1.814      4.343
REMARK  2 active torsions:
REMARK  status: ('A' for Active; 'I' for Inactive)
REMARK    1  A    between atoms: N3_11  and  O3_12 
REMARK    2  A    between atoms: N4_17  and  O4_18 
ROOT
HETATM    1  C1  UNL     1      -2.633 -29.469  -3.836  1.00  0.00     0.163 C 
HETATM    2  N1  UNL     1      -3.551 -29.056  -2.788  1.00  0.00    -0.286 N 
HETATM    3  C2  UNL     1      -4.629 -28.308  -3.077  1.00  0.00     0.171 A 
HETATM    4  C3  UNL     1      -5.511 -27.912  -2.066  1.00  0.00     0.174 A 
HETATM    5  C4  UNL     1      -5.217 -28.329  -0.769  1.00  0.00     0.282 A 
HETATM    6  O1  UNL     1      -6.024 -27.963   0.134  1.00  0.00    -0.265 OA
HETATM    7  N2  UNL     1      -4.137 -29.074  -0.506  1.00  0.00    -0.273 N 
ATOM      8  H2  UNL     1      -3.935 -29.373   0.448  1.00  0.00     0.173 HD
HETATM    9  C5  UNL     1      -3.326 -29.424  -1.515  1.00  0.00     0.330 A 
HETATM   10  O2  UNL     1      -2.296 -30.132  -1.285  1.00  0.00    -0.246 OA
HETATM   11  N3  UNL     1      -6.551 -27.136  -2.650  1.00  0.00    -0.220 N 
HETATM   12  C6  UNL     1      -6.545 -27.481  -4.053  1.00  0.00     0.152 C 
HETATM   13  C7  UNL     1      -7.343 -28.761  -4.239  1.00  0.00     0.067 C 
HETATM   14  C8  UNL     1      -7.062 -26.372  -4.928  1.00  0.00     0.067 C 
HETATM   15  N4  UNL     1      -5.144 -27.763  -4.283  1.00  0.00    -0.210 N 
ENDROOT
BRANCH  11  16
HETATM   16  O3  UNL     1      -7.334 -26.277  -1.965  1.00  0.00    -0.284 OA
ATOM     17  H3  UNL     1      -7.860 -25.595  -2.367  1.00  0.00     0.245 HD
ENDBRANCH  11  16
BRANCH  15  18
HETATM   18  O4  UNL     1      -4.400 -27.576  -5.392  1.00  0.00    -0.283 OA
ATOM     19  H4  UNL     1      -4.676 -27.847  -6.259  1.00  0.00     0.245 HD
ENDBRANCH  15  18
TORSDOF 2
ENDMDL
