MODEL 1
REMARK VINA RESULT: -4.906935898      0.000      0.000
REMARK  2 active torsions:
REMARK  status: ('A' for Active; 'I' for Inactive)
REMARK    1  A    between atoms: C6_7  and  O1_8 
REMARK    2  A    between atoms: C7_10  and  O2_11 
ROOT
HETATM    1  C1  UNL     1      -9.006  12.888 -35.493  1.00  0.00     0.052 C 
HETATM    2  C2  UNL     1      -8.658  11.767 -34.540  1.00  0.00     0.185 A 
HETATM    3  C3  UNL     1      -7.341  11.118 -34.770  1.00  0.00     0.074 A 
HETATM    4  C4  UNL     1      -6.858  11.675 -33.451  1.00  0.00     0.276 A 
HETATM    5  N1  UNL     1      -8.211  12.180 -33.236  1.00  0.00     0.103 N 
HETATM    6  C5  UNL     1      -8.980  11.430 -32.260  1.00  0.00     0.307 C 
HETATM    7  C6  UNL     1     -10.334  11.323 -32.972  1.00  0.00     0.177 C 
HETATM    8  C7  UNL     1      -9.843  10.863 -34.352  1.00  0.00     0.187 C 
ENDROOT
BRANCH   7   9
HETATM    9  O1  UNL     1     -10.835  12.598 -33.093  1.00  0.00    -0.391 OA
ATOM     10  H1  UNL     1     -10.564  12.929 -33.942  1.00  0.00     0.210 HD
ENDBRANCH   7   9
BRANCH   8  11
HETATM   11  O2  UNL     1     -10.838  11.054 -35.286  1.00  0.00    -0.390 OA
ATOM     12  H2  UNL     1     -11.712  11.072 -34.914  1.00  0.00     0.210 HD
ENDBRANCH   8  11
TORSDOF 2
ENDMDL
MODEL 2
REMARK VINA RESULT: -4.855237846      1.541      2.581
REMARK  2 active torsions:
REMARK  status: ('A' for Active; 'I' for Inactive)
REMARK    1  A    between atoms: C6_7  and  O1_8 
REMARK    2  A    between atoms: C7_10  and  O2_11 
ROOT
HETATM    1  C1  UNL     1      -7.531  10.988 -33.411  1.00  0.00     0.052 C 
HETATM    2  C2  UNL     1      -8.444  12.159 -33.693  1.00  0.00     0.185 A 
HETATM    3  C3  UNL     1      -7.761  13.443 -34.000  1.00  0.00     0.074 A 
HETATM    4  C4  UNL     1      -8.297  13.369 -35.411  1.00  0.00     0.276 A 
HETATM    5  N1  UNL     1      -9.039  12.179 -35.003  1.00  0.00     0.103 N 
HETATM    6  C5  UNL     1     -10.464  12.395 -34.825  1.00  0.00     0.307 C 
HETATM    7  C6  UNL     1     -10.715  11.635 -33.518  1.00  0.00     0.177 C 
HETATM    8  C7  UNL     1      -9.557  12.200 -32.685  1.00  0.00     0.187 C 
ENDROOT
BRANCH   7   9
HETATM    9  O1  UNL     1     -10.463  10.304 -33.763  1.00  0.00    -0.391 OA
ATOM     10  H1  UNL     1      -9.862  10.003 -33.092  1.00  0.00     0.210 HD
ENDBRANCH   7   9
BRANCH   8  11
HETATM   11  O2  UNL     1      -9.339  11.397 -31.587  1.00  0.00    -0.390 OA
ATOM     12  H2  UNL     1      -9.835  11.655 -30.820  1.00  0.00     0.210 HD
ENDBRANCH   8  11
TORSDOF 2
ENDMDL
MODEL 3
REMARK VINA RESULT: -4.748926755      1.599      2.553
REMARK  2 active torsions:
REMARK  status: ('A' for Active; 'I' for Inactive)
REMARK    1  A    between atoms: C6_7  and  O1_8 
REMARK    2  A    between atoms: C7_10  and  O2_11 
ROOT
HETATM    1  C1  UNL     1      -7.414  10.898 -34.985  1.00  0.00     0.052 C 
HETATM    2  C2  UNL     1      -8.215  12.120 -34.598  1.00  0.00     0.185 A 
HETATM    3  C3  UNL     1      -7.446  13.388 -34.512  1.00  0.00     0.074 A 
HETATM    4  C4  UNL     1      -8.219  13.914 -35.699  1.00  0.00     0.276 A 
HETATM    5  N1  UNL     1      -9.017  12.693 -35.646  1.00  0.00     0.103 N 
HETATM    6  C5  UNL     1     -10.355  12.876 -35.114  1.00  0.00     0.307 C 
HETATM    7  C6  UNL     1     -10.470  11.662 -34.184  1.00  0.00     0.177 C 
HETATM    8  C7  UNL     1      -9.128  11.794 -33.450  1.00  0.00     0.187 C 
ENDROOT
BRANCH   7   9
HETATM    9  O1  UNL     1     -10.423  10.536 -34.973  1.00  0.00    -0.391 OA
ATOM     10  H1  UNL     1     -10.385   9.785 -34.392  1.00  0.00     0.210 HD
ENDBRANCH   7   9
BRANCH   8  11
HETATM   11  O2  UNL     1      -8.824  10.606 -32.821  1.00  0.00    -0.390 OA
ATOM     12  H2  UNL     1      -9.584  10.150 -32.479  1.00  0.00     0.210 HD
ENDBRANCH   8  11
TORSDOF 2
ENDMDL
MODEL 4
REMARK VINA RESULT: -4.725510691      1.086      2.453
REMARK  2 active torsions:
REMARK  status: ('A' for Active; 'I' for Inactive)
REMARK    1  A    between atoms: C6_7  and  O1_8 
REMARK    2  A    between atoms: C7_10  and  O2_11 
ROOT
HETATM    1  C1  UNL     1      -9.480  10.420 -32.773  1.00  0.00     0.052 C 
HETATM    2  C2  UNL     1      -8.757  11.528 -33.504  1.00  0.00     0.185 A 
HETATM    3  C3  UNL     1      -7.374  11.806 -33.037  1.00  0.00     0.074 A 
HETATM    4  C4  UNL     1      -6.847  11.311 -34.364  1.00  0.00     0.276 A 
HETATM    5  N1  UNL     1      -8.235  11.179 -34.799  1.00  0.00     0.103 N 
HETATM    6  C5  UNL     1      -8.669  12.205 -35.729  1.00  0.00     0.307 C 
HETATM    7  C6  UNL     1     -10.051  12.551 -35.161  1.00  0.00     0.177 C 
HETATM    8  C7  UNL     1      -9.669  12.709 -33.682  1.00  0.00     0.187 C 
ENDROOT
BRANCH   7   9
HETATM    9  O1  UNL     1     -10.838  11.430 -35.288  1.00  0.00    -0.391 OA
ATOM     10  H1  UNL     1     -10.938  11.055 -34.421  1.00  0.00     0.210 HD
ENDBRANCH   7   9
BRANCH   8  11
HETATM   11  O2  UNL     1     -10.803  12.654 -32.902  1.00  0.00    -0.390 OA
ATOM     12  H2  UNL     1     -11.494  13.238 -33.191  1.00  0.00     0.210 HD
ENDBRANCH   8  11
TORSDOF 2
ENDMDL
MODEL 5
REMARK VINA RESULT: -4.678575856      1.108      1.207
REMARK  2 active torsions:
REMARK  status: ('A' for Active; 'I' for Inactive)
REMARK    1  A    between atoms: C6_7  and  O1_8 
REMARK    2  A    between atoms: C7_10  and  O2_11 
ROOT
HETATM    1  C1  UNL     1     -10.510  13.282 -35.146  1.00  0.00     0.052 C 
HETATM    2  C2  UNL     1      -9.287  12.509 -34.709  1.00  0.00     0.185 A 
HETATM    3  C3  UNL     1      -8.033  12.828 -35.440  1.00  0.00     0.074 A 
HETATM    4  C4  UNL     1      -7.464  13.412 -34.168  1.00  0.00     0.276 A 
HETATM    5  N1  UNL     1      -8.673  12.959 -33.488  1.00  0.00     0.103 N 
HETATM    6  C5  UNL     1      -8.484  11.792 -32.645  1.00  0.00     0.307 C 
HETATM    7  C6  UNL     1      -9.720  10.962 -33.010  1.00  0.00     0.177 C 
HETATM    8  C7  UNL     1      -9.629  11.056 -34.539  1.00  0.00     0.187 C 
ENDROOT
BRANCH   7   9
HETATM    9  O1  UNL     1     -10.825  11.671 -32.598  1.00  0.00    -0.391 OA
ATOM     10  H1  UNL     1     -11.087  12.232 -33.319  1.00  0.00     0.210 HD
ENDBRANCH   7   9
BRANCH   8  11
HETATM   11  O2  UNL     1     -10.838  10.704 -35.099  1.00  0.00    -0.390 OA
ATOM     12  H2  UNL     1     -11.586  10.895 -34.545  1.00  0.00     0.210 HD
ENDBRANCH   8  11
TORSDOF 2
ENDMDL
