MODEL 1
REMARK VINA RESULT: -5.950108858      0.000      0.000
REMARK  3 active torsions:
REMARK  status: ('A' for Active; 'I' for Inactive)
REMARK    1  A    between atoms: O1_1  and  C1_3 
REMARK    2  A    between atoms: C2_4  and  O2_5 
REMARK    3  A    between atoms: C7_11  and  O3_12 
ROOT
HETATM    1  C1  UNL     1     -10.838  12.020 -33.089  1.00  0.00     0.176 C 
HETATM    2  C2  UNL     1     -10.394  12.153 -34.544  1.00  0.00     0.154 C 
HETATM    3  C3  UNL     1      -8.911  12.202 -34.436  1.00  0.00     0.024 C 
HETATM    4  C4  UNL     1      -8.135  11.056 -34.987  1.00  0.00     0.008 C 
HETATM    5  C5  UNL     1      -7.462  10.915 -33.619  1.00  0.00     0.008 C 
HETATM    6  C6  UNL     1      -8.536  11.757 -33.036  1.00  0.00     0.024 C 
HETATM    7  C7  UNL     1      -9.780  11.050 -32.570  1.00  0.00     0.154 C 
ENDROOT
BRANCH   1   8
HETATM    8  O1  UNL     1     -10.587  13.239 -32.449  1.00  0.00    -0.390 OA
ATOM      9  H1  UNL     1      -9.766  13.158 -31.979  1.00  0.00     0.210 HD
ENDBRANCH   1   8
BRANCH   2  10
HETATM   10  O2  UNL     1     -10.838  11.063 -35.285  1.00  0.00    -0.393 OA
ATOM     11  H2  UNL     1     -10.133  10.720 -35.821  1.00  0.00     0.210 HD
ENDBRANCH   2  10
BRANCH   7  12
HETATM   12  O3  UNL     1      -9.857  11.054 -31.178  1.00  0.00    -0.393 OA
ATOM     13  H3  UNL     1      -9.581  11.913 -30.881  1.00  0.00     0.210 HD
ENDBRANCH   7  12
TORSDOF 3
ENDMDL
MODEL 2
REMARK VINA RESULT: -5.593092269      1.081      2.605
REMARK  3 active torsions:
REMARK  status: ('A' for Active; 'I' for Inactive)
REMARK    1  A    between atoms: O1_1  and  C1_3 
REMARK    2  A    between atoms: C2_4  and  O2_5 
REMARK    3  A    between atoms: C7_11  and  O3_12 
ROOT
HETATM    1  C1  UNL     1     -10.551  11.315 -33.036  1.00  0.00     0.176 C 
HETATM    2  C2  UNL     1      -9.420  12.006 -32.276  1.00  0.00     0.154 C 
HETATM    3  C3  UNL     1      -8.208  11.590 -33.031  1.00  0.00     0.024 C 
HETATM    4  C4  UNL     1      -7.463  12.638 -33.783  1.00  0.00     0.008 C 
HETATM    5  C5  UNL     1      -7.602  11.771 -35.037  1.00  0.00     0.008 C 
HETATM    6  C6  UNL     1      -8.667  10.999 -34.349  1.00  0.00     0.024 C 
HETATM    7  C7  UNL     1     -10.074  11.518 -34.472  1.00  0.00     0.154 C 
ENDROOT
BRANCH   1   8
HETATM    8  O1  UNL     1     -10.456   9.940 -32.792  1.00  0.00    -0.390 OA
ATOM      9  H1  UNL     1      -9.713   9.608 -33.280  1.00  0.00     0.210 HD
ENDBRANCH   1   8
BRANCH   2  10
HETATM   10  O2  UNL     1      -9.606  13.385 -32.283  1.00  0.00    -0.393 OA
ATOM     11  H2  UNL     1      -8.975  13.798 -32.860  1.00  0.00     0.210 HD
ENDBRANCH   2  10
BRANCH   7  12
HETATM   12  O3  UNL     1     -10.838  10.683 -35.287  1.00  0.00    -0.393 OA
ATOM     13  H3  UNL     1     -10.564   9.790 -35.115  1.00  0.00     0.210 HD
ENDBRANCH   7  12
TORSDOF 3
ENDMDL
MODEL 3
REMARK VINA RESULT: -5.535828805      1.118      1.173
REMARK  3 active torsions:
REMARK  status: ('A' for Active; 'I' for Inactive)
REMARK    1  A    between atoms: O1_1  and  C1_3 
REMARK    2  A    between atoms: C2_4  and  O2_5 
REMARK    3  A    between atoms: C7_11  and  O3_12 
ROOT
HETATM    1  C1  UNL     1     -10.703  11.118 -32.951  1.00  0.00     0.176 C 
HETATM    2  C2  UNL     1     -10.726  12.201 -34.027  1.00  0.00     0.154 C 
HETATM    3  C3  UNL     1      -9.424  12.894 -33.831  1.00  0.00     0.024 C 
HETATM    4  C4  UNL     1      -8.399  12.766 -34.904  1.00  0.00     0.008 C 
HETATM    5  C5  UNL     1      -7.417  12.263 -33.843  1.00  0.00     0.008 C 
HETATM    6  C6  UNL     1      -8.567  12.018 -32.937  1.00  0.00     0.024 C 
HETATM    7  C7  UNL     1      -9.244  10.678 -33.040  1.00  0.00     0.154 C 
ENDROOT
BRANCH   1   8
HETATM    8  O1  UNL     1     -10.838  11.744 -31.707  1.00  0.00    -0.390 OA
ATOM      9  H1  UNL     1      -9.967  11.930 -31.377  1.00  0.00     0.210 HD
ENDBRANCH   1   8
BRANCH   2  10
HETATM   10  O2  UNL     1     -10.838  11.625 -35.289  1.00  0.00    -0.393 OA
ATOM     11  H2  UNL     1     -11.177  12.258 -35.910  1.00  0.00     0.210 HD
ENDBRANCH   2  10
BRANCH   7  12
HETATM   12  O3  UNL     1      -8.973   9.901 -31.915  1.00  0.00    -0.393 OA
ATOM     13  H3  UNL     1      -8.334   9.246 -32.169  1.00  0.00     0.210 HD
ENDBRANCH   7  12
TORSDOF 3
ENDMDL
MODEL 4
REMARK VINA RESULT: -5.306359120      1.226      2.703
REMARK  3 active torsions:
REMARK  status: ('A' for Active; 'I' for Inactive)
REMARK    1  A    between atoms: O1_1  and  C1_3 
REMARK    2  A    between atoms: C2_4  and  O2_5 
REMARK    3  A    between atoms: C7_11  and  O3_12 
ROOT
HETATM    1  C1  UNL     1     -10.613  11.479 -33.968  1.00  0.00     0.176 C 
HETATM    2  C2  UNL     1      -9.437  10.679 -33.410  1.00  0.00     0.154 C 
HETATM    3  C3  UNL     1      -8.277  11.222 -34.166  1.00  0.00     0.024 C 
HETATM    4  C4  UNL     1      -7.258  12.004 -33.411  1.00  0.00     0.008 C 
HETATM    5  C5  UNL     1      -7.462  13.146 -34.409  1.00  0.00     0.008 C 
HETATM    6  C6  UNL     1      -8.727  12.502 -34.844  1.00  0.00     0.024 C 
HETATM    7  C7  UNL     1      -9.973  12.860 -34.080  1.00  0.00     0.154 C 
ENDROOT
BRANCH   1   8
HETATM    8  O1  UNL     1     -10.838  11.054 -35.282  1.00  0.00    -0.390 OA
ATOM      9  H1  UNL     1     -10.598  10.136 -35.337  1.00  0.00     0.210 HD
ENDBRANCH   1   8
BRANCH   2  10
HETATM   10  O2  UNL     1      -9.323  10.884 -32.038  1.00  0.00    -0.393 OA
ATOM     11  H2  UNL     1     -10.159  11.149 -31.675  1.00  0.00     0.210 HD
ENDBRANCH   2  10
BRANCH   7  12
HETATM   12  O3  UNL     1     -10.819  13.650 -34.857  1.00  0.00    -0.393 OA
ATOM     13  H3  UNL     1     -11.710  13.465 -34.585  1.00  0.00     0.210 HD
ENDBRANCH   7  12
TORSDOF 3
ENDMDL
MODEL 5
REMARK VINA RESULT: -5.270233018      1.408      1.992
REMARK  3 active torsions:
REMARK  status: ('A' for Active; 'I' for Inactive)
REMARK    1  A    between atoms: O1_1  and  C1_3 
REMARK    2  A    between atoms: C2_4  and  O2_5 
REMARK    3  A    between atoms: C7_11  and  O3_12 
ROOT
HETATM    1  C1  UNL     1      -9.904  12.091 -32.606  1.00  0.00     0.176 C 
HETATM    2  C2  UNL     1      -8.854  13.139 -32.968  1.00  0.00     0.154 C 
HETATM    3  C3  UNL     1      -7.676  12.314 -33.346  1.00  0.00     0.024 C 
HETATM    4  C4  UNL     1      -7.241  12.335 -34.771  1.00  0.00     0.008 C 
HETATM    5  C5  UNL     1      -7.347  10.808 -34.777  1.00  0.00     0.008 C 
HETATM    6  C6  UNL     1      -8.155  10.887 -33.534  1.00  0.00     0.024 C 
HETATM    7  C7  UNL     1      -9.641  11.056 -33.697  1.00  0.00     0.154 C 
ENDROOT
BRANCH   1   8
HETATM    8  O1  UNL     1      -9.515  11.488 -31.405  1.00  0.00    -0.390 OA
ATOM      9  H1  UNL     1     -10.270  11.469 -30.829  1.00  0.00     0.210 HD
ENDBRANCH   1   8
BRANCH   2  10
HETATM   10  O2  UNL     1      -9.307  13.934 -34.016  1.00  0.00    -0.393 OA
ATOM     11  H2  UNL     1     -10.201  14.213 -33.854  1.00  0.00     0.210 HD
ENDBRANCH   2  10
BRANCH   7  12
HETATM   12  O3  UNL     1     -10.313   9.889 -33.336  1.00  0.00    -0.393 OA
ATOM     13  H3  UNL     1     -10.205   9.268 -34.047  1.00  0.00     0.210 HD
ENDBRANCH   7  12
TORSDOF 3
ENDMDL
