MODEL 1
REMARK VINA RESULT: -4.665406485      0.000      0.000
REMARK  4 active torsions:
REMARK  status: ('A' for Active; 'I' for Inactive)
REMARK    1  A    between atoms: N1_1  and  C1_5 
REMARK    2  A    between atoms: C1_5  and  O1_6 
REMARK    3  A    between atoms: C1_5  and  C2_8 
REMARK    4  A    between atoms: C3_9  and  C4_10 
ROOT
HETATM    1  C1  UNL     1      -9.767  10.854 -31.910  1.00  0.00     0.398 C 
ENDROOT
BRANCH   1   2
HETATM    2  N1  UNL     1     -10.838  11.807 -31.911  1.00  0.00    -0.042 N 
ATOM      3  H13 UNL     1     -11.523  11.577 -32.631  1.00  0.00     0.278 HD
ATOM      4  H12 UNL     1     -11.419  11.696 -31.080  1.00  0.00     0.278 HD
ATOM      5  H11 UNL     1     -10.529  12.775 -32.007  1.00  0.00     0.278 HD
ENDBRANCH   1   2
BRANCH   1   6
HETATM    6  O1  UNL     1     -10.174   9.555 -32.169  1.00  0.00    -0.361 OA
ATOM      7  H1  UNL     1      -9.477   8.989 -32.482  1.00  0.00     0.213 HD
ENDBRANCH   1   6
BRANCH   1   8
HETATM    8  C2  UNL     1      -8.816  11.259 -32.951  1.00  0.00    -0.045 C 
HETATM    9  C3  UNL     1      -8.045  11.610 -33.813  1.00  0.00    -0.087 C 
BRANCH   9  10
HETATM   10  C4  UNL     1      -7.116  12.059 -34.875  1.00  0.00     0.127 C 
HETATM   11  C5  UNL     1      -7.465  11.508 -36.240  1.00  0.00     0.038 C 
HETATM   12  C6  UNL     1      -7.259  12.804 -36.968  1.00  0.00     0.077 C 
HETATM   13  S1  UNL     1      -7.454  13.740 -35.457  1.00  0.00    -0.152 SA
ENDBRANCH   9  10
ENDBRANCH   1   8
TORSDOF 4
ENDMDL
MODEL 2
REMARK VINA RESULT: -4.443509846     10.177     10.685
REMARK  4 active torsions:
REMARK  status: ('A' for Active; 'I' for Inactive)
REMARK    1  A    between atoms: N1_1  and  C1_5 
REMARK    2  A    between atoms: C1_5  and  O1_6 
REMARK    3  A    between atoms: C1_5  and  C2_8 
REMARK    4  A    between atoms: C3_9  and  C4_10 
ROOT
HETATM    1  C1  UNL     1       1.205   5.048 -31.372  1.00  0.00     0.398 C 
ENDROOT
BRANCH   1   2
HETATM    2  N1  UNL     1       0.835   3.685 -31.619  1.00  0.00    -0.042 N 
ATOM      3  H13 UNL     1       0.258   3.326 -30.858  1.00  0.00     0.278 HD
ATOM      4  H12 UNL     1       0.164   3.628 -32.384  1.00  0.00     0.278 HD
ATOM      5  H11 UNL     1       1.628   3.067 -31.790  1.00  0.00     0.278 HD
ENDBRANCH   1   2
BRANCH   1   6
HETATM    6  O1  UNL     1       1.960   5.615 -32.386  1.00  0.00    -0.361 OA
ATOM      7  H1  UNL     1       2.699   5.083 -32.659  1.00  0.00     0.213 HD
ENDBRANCH   1   6
BRANCH   1   8
HETATM    8  C2  UNL     1      -0.035   5.821 -31.229  1.00  0.00    -0.045 C 
HETATM    9  C3  UNL     1      -1.057   6.456 -31.132  1.00  0.00    -0.087 C 
BRANCH   9  10
HETATM   10  C4  UNL     1      -2.313   7.236 -31.039  1.00  0.00     0.127 C 
HETATM   11  C5  UNL     1      -3.289   6.673 -30.031  1.00  0.00     0.038 C 
HETATM   12  C6  UNL     1      -3.651   8.000 -29.431  1.00  0.00     0.077 C 
HETATM   13  S1  UNL     1      -2.146   8.743 -30.048  1.00  0.00    -0.152 SA
ENDBRANCH   9  10
ENDBRANCH   1   8
TORSDOF 4
ENDMDL
MODEL 3
REMARK VINA RESULT: -4.140794914      1.686      1.797
REMARK  4 active torsions:
REMARK  status: ('A' for Active; 'I' for Inactive)
REMARK    1  A    between atoms: N1_1  and  C1_5 
REMARK    2  A    between atoms: C1_5  and  O1_6 
REMARK    3  A    between atoms: C1_5  and  C2_8 
REMARK    4  A    between atoms: C3_9  and  C4_10 
ROOT
HETATM    1  C1  UNL     1      -9.511  10.657 -32.843  1.00  0.00     0.398 C 
ENDROOT
BRANCH   1   2
HETATM    2  N1  UNL     1     -10.154  11.062 -31.627  1.00  0.00    -0.042 N 
ATOM      3  H13 UNL     1     -10.918  11.710 -31.823  1.00  0.00     0.278 HD
ATOM      4  H12 UNL     1     -10.684  10.289 -31.227  1.00  0.00     0.278 HD
ATOM      5  H11 UNL     1      -9.517  11.458 -30.936  1.00  0.00     0.278 HD
ENDBRANCH   1   2
BRANCH   1   6
HETATM    6  O1  UNL     1     -10.391  10.261 -33.838  1.00  0.00    -0.361 OA
ATOM      7  H1  UNL     1     -10.901  10.973 -34.205  1.00  0.00     0.213 HD
ENDBRANCH   1   6
BRANCH   1   8
HETATM    8  C2  UNL     1      -8.740  11.805 -33.336  1.00  0.00    -0.045 C 
HETATM    9  C3  UNL     1      -8.114  12.746 -33.761  1.00  0.00    -0.087 C 
BRANCH   9  10
HETATM   10  C4  UNL     1      -7.356  13.896 -34.305  1.00  0.00     0.127 C 
HETATM   11  C5  UNL     1      -7.259  13.884 -35.814  1.00  0.00     0.038 C 
HETATM   12  C6  UNL     1      -7.558  15.344 -35.984  1.00  0.00     0.077 C 
HETATM   13  S1  UNL     1      -8.325  15.424 -34.371  1.00  0.00    -0.152 SA
ENDBRANCH   9  10
ENDBRANCH   1   8
TORSDOF 4
ENDMDL
MODEL 4
REMARK VINA RESULT: -3.962610006      1.789      1.899
REMARK  4 active torsions:
REMARK  status: ('A' for Active; 'I' for Inactive)
REMARK    1  A    between atoms: N1_1  and  C1_5 
REMARK    2  A    between atoms: C1_5  and  O1_6 
REMARK    3  A    between atoms: C1_5  and  C2_8 
REMARK    4  A    between atoms: C3_9  and  C4_10 
ROOT
HETATM    1  C1  UNL     1     -10.312  10.945 -32.223  1.00  0.00     0.398 C 
ENDROOT
BRANCH   1   2
HETATM    2  N1  UNL     1     -10.405   9.530 -32.441  1.00  0.00    -0.042 N 
ATOM      3  H13 UNL     1     -11.356   9.202 -32.270  1.00  0.00     0.278 HD
ATOM      4  H12 UNL     1     -10.325   9.314 -33.434  1.00  0.00     0.278 HD
ATOM      5  H11 UNL     1      -9.734   8.985 -31.899  1.00  0.00     0.278 HD
ENDBRANCH   1   2
BRANCH   1   6
HETATM    6  O1  UNL     1      -9.430  11.299 -31.215  1.00  0.00    -0.361 OA
ATOM      7  H1  UNL     1      -9.239  12.229 -31.181  1.00  0.00     0.213 HD
ENDBRANCH   1   6
BRANCH   1   8
HETATM    8  C2  UNL     1      -9.853  11.554 -33.477  1.00  0.00    -0.045 C 
HETATM    9  C3  UNL     1      -9.467  12.070 -34.498  1.00  0.00    -0.087 C 
BRANCH   9  10
HETATM   10  C4  UNL     1      -8.985  12.724 -35.737  1.00  0.00     0.127 C 
HETATM   11  C5  UNL     1      -8.441  14.115 -35.501  1.00  0.00     0.038 C 
HETATM   12  C6  UNL     1      -7.231  13.940 -36.371  1.00  0.00     0.077 C 
HETATM   13  S1  UNL     1      -7.342  12.160 -36.249  1.00  0.00    -0.152 SA
ENDBRANCH   9  10
ENDBRANCH   1   8
TORSDOF 4
ENDMDL
MODEL 5
REMARK VINA RESULT: -3.930241315      2.381      2.509
REMARK  4 active torsions:
REMARK  status: ('A' for Active; 'I' for Inactive)
REMARK    1  A    between atoms: N1_1  and  C1_5 
REMARK    2  A    between atoms: C1_5  and  O1_6 
REMARK    3  A    between atoms: C1_5  and  C2_8 
REMARK    4  A    between atoms: C3_9  and  C4_10 
ROOT
HETATM    1  C1  UNL     1     -10.557  11.378 -32.650  1.00  0.00     0.398 C 
ENDROOT
BRANCH   1   2
HETATM    2  N1  UNL     1     -10.251  10.345 -33.598  1.00  0.00    -0.042 N 
ATOM      3  H13 UNL     1      -9.819   9.547 -33.131  1.00  0.00     0.278 HD
ATOM      4  H12 UNL     1     -11.106   9.904 -33.936  1.00  0.00     0.278 HD
ATOM      5  H11 UNL     1      -9.675  10.660 -34.378  1.00  0.00     0.278 HD
ENDBRANCH   1   2
BRANCH   1   6
HETATM    6  O1  UNL     1     -10.183  11.075 -31.351  1.00  0.00    -0.361 OA
ATOM      7  H1  UNL     1      -9.950  10.163 -31.221  1.00  0.00     0.213 HD
ENDBRANCH   1   6
BRANCH   1   8
HETATM    8  C2  UNL     1      -9.839  12.587 -33.070  1.00  0.00    -0.045 C 
HETATM    9  C3  UNL     1      -9.265  13.588 -33.428  1.00  0.00    -0.087 C 
BRANCH   9  10
HETATM   10  C4  UNL     1      -8.581  14.820 -33.881  1.00  0.00     0.127 C 
HETATM   11  C5  UNL     1      -7.312  14.544 -34.656  1.00  0.00     0.038 C 
HETATM   12  C6  UNL     1      -7.584  15.554 -35.732  1.00  0.00     0.077 C 
HETATM   13  S1  UNL     1      -9.332  15.553 -35.357  1.00  0.00    -0.152 SA
ENDBRANCH   9  10
ENDBRANCH   1   8
TORSDOF 4
ENDMDL
