MODEL 1
REMARK VINA RESULT: -5.673110694      0.000      0.000
REMARK  3 active torsions:
REMARK  status: ('A' for Active; 'I' for Inactive)
REMARK    1  A    between atoms: N1_1  and  C1_5 
REMARK    2  A    between atoms: C2_6  and  O1_7 
REMARK    3  A    between atoms: C8_14  and  O2_15 
ROOT
HETATM    1  C1  UNL     1      -9.892  12.016 -34.424  1.00  0.00     0.219 C 
HETATM    2  C2  UNL     1      -9.228  11.801 -33.076  1.00  0.00     0.155 C 
HETATM    3  C3  UNL     1      -7.831  12.393 -33.287  1.00  0.00     0.046 C 
HETATM    4  C4  UNL     1      -6.966  11.311 -33.822  1.00  0.00     0.010 C 
HETATM    5  C5  UNL     1      -7.118  10.985 -35.249  1.00  0.00     0.001 C 
HETATM    6  C6  UNL     1      -7.983  11.865 -36.056  1.00  0.00     0.009 C 
HETATM    7  C7  UNL     1      -8.937  12.722 -35.301  1.00  0.00     0.048 C 
HETATM    8  C8  UNL     1      -8.122  13.500 -34.257  1.00  0.00     0.131 C 
ENDROOT
BRANCH   1   9
HETATM    9  N1  UNL     1     -10.374  10.766 -34.902  1.00  0.00    -0.072 N 
ATOM     10  H13 UNL     1     -10.527  10.094 -34.150  1.00  0.00     0.274 HD
ATOM     11  H12 UNL     1     -11.335  10.821 -35.240  1.00  0.00     0.274 HD
ATOM     12  H11 UNL     1      -9.731  10.416 -35.611  1.00  0.00     0.274 HD
ENDBRANCH   1   9
BRANCH   2  13
HETATM   13  O1  UNL     1      -9.163  10.456 -32.745  1.00  0.00    -0.393 OA
ATOM     14  H1  UNL     1      -8.270  10.133 -32.758  1.00  0.00     0.210 HD
ENDBRANCH   2  13
BRANCH   8  15
HETATM   15  O2  UNL     1      -7.021  14.095 -34.795  1.00  0.00    -0.395 OA
ATOM     16  H2  UNL     1      -6.487  13.528 -35.339  1.00  0.00     0.210 HD
ENDBRANCH   8  15
TORSDOF 3
ENDMDL
MODEL 2
REMARK VINA RESULT: -5.664503423      2.042      2.623
REMARK  3 active torsions:
REMARK  status: ('A' for Active; 'I' for Inactive)
REMARK    1  A    between atoms: N1_1  and  C1_5 
REMARK    2  A    between atoms: C2_6  and  O1_7 
REMARK    3  A    between atoms: C8_14  and  O2_15 
ROOT
HETATM    1  C1  UNL     1     -10.559  11.340 -33.084  1.00  0.00     0.219 C 
HETATM    2  C2  UNL     1     -10.716  12.826 -33.354  1.00  0.00     0.155 C 
HETATM    3  C3  UNL     1      -9.636  13.097 -34.406  1.00  0.00     0.046 C 
HETATM    4  C4  UNL     1      -8.381  13.420 -33.680  1.00  0.00     0.010 C 
HETATM    5  C5  UNL     1      -7.637  12.287 -33.107  1.00  0.00     0.001 C 
HETATM    6  C6  UNL     1      -8.103  10.929 -33.444  1.00  0.00     0.009 C 
HETATM    7  C7  UNL     1      -9.493  10.822 -33.965  1.00  0.00     0.048 C 
HETATM    8  C8  UNL     1      -9.613  11.793 -35.149  1.00  0.00     0.131 C 
ENDROOT
BRANCH   1   9
HETATM    9  N1  UNL     1     -10.367  11.147 -31.688  1.00  0.00    -0.072 N 
ATOM     10  H13 UNL     1     -10.133  10.181 -31.457  1.00  0.00     0.274 HD
ATOM     11  H12 UNL     1      -9.510  11.585 -31.348  1.00  0.00     0.274 HD
ATOM     12  H11 UNL     1     -11.196  11.476 -31.194  1.00  0.00     0.274 HD
ENDBRANCH   1   9
BRANCH   2  13
HETATM   13  O1  UNL     1     -10.509  13.581 -32.209  1.00  0.00    -0.393 OA
ATOM     14  H1  UNL     1     -11.318  13.729 -31.735  1.00  0.00     0.210 HD
ENDBRANCH   2  13
BRANCH   8  15
HETATM   15  O2  UNL     1      -8.590  11.658 -36.037  1.00  0.00    -0.395 OA
ATOM     16  H2  UNL     1      -7.752  11.433 -35.650  1.00  0.00     0.210 HD
ENDBRANCH   8  15
TORSDOF 3
ENDMDL
MODEL 3
REMARK VINA RESULT: -5.596764031      1.965      2.913
REMARK  3 active torsions:
REMARK  status: ('A' for Active; 'I' for Inactive)
REMARK    1  A    between atoms: N1_1  and  C1_5 
REMARK    2  A    between atoms: C2_6  and  O1_7 
REMARK    3  A    between atoms: C8_14  and  O2_15 
ROOT
HETATM    1  C1  UNL     1      -8.901  12.466 -35.095  1.00  0.00     0.219 C 
HETATM    2  C2  UNL     1     -10.415  12.364 -35.127  1.00  0.00     0.155 C 
HETATM    3  C3  UNL     1     -10.823  12.929 -33.763  1.00  0.00     0.046 C 
HETATM    4  C4  UNL     1     -10.825  11.801 -32.798  1.00  0.00     0.010 C 
HETATM    5  C5  UNL     1      -9.515  11.355 -32.297  1.00  0.00     0.001 C 
HETATM    6  C6  UNL     1      -8.339  12.166 -32.661  1.00  0.00     0.009 C 
HETATM    7  C7  UNL     1      -8.508  13.089 -33.815  1.00  0.00     0.048 C 
HETATM    8  C8  UNL     1      -9.749  13.951 -33.532  1.00  0.00     0.131 C 
ENDROOT
BRANCH   1   9
HETATM    9  N1  UNL     1      -8.350  11.182 -35.360  1.00  0.00    -0.072 N 
ATOM     10  H13 UNL     1      -9.058  10.448 -35.370  1.00  0.00     0.274 HD
ATOM     11  H12 UNL     1      -8.033  11.085 -36.325  1.00  0.00     0.274 HD
ATOM     12  H11 UNL     1      -7.608  10.998 -34.686  1.00  0.00     0.274 HD
ENDBRANCH   1   9
BRANCH   2  13
HETATM   13  O1  UNL     1     -10.838  11.052 -35.279  1.00  0.00    -0.393 OA
ATOM     14  H1  UNL     1     -11.041  10.649 -34.443  1.00  0.00     0.210 HD
ENDBRANCH   2  13
BRANCH   8  15
HETATM   15  O2  UNL     1      -9.731  14.491 -32.283  1.00  0.00    -0.395 OA
ATOM     16  H2  UNL     1      -8.915  14.378 -31.810  1.00  0.00     0.210 HD
ENDBRANCH   8  15
TORSDOF 3
ENDMDL
MODEL 4
REMARK VINA RESULT: -5.456047706      1.742      3.021
REMARK  3 active torsions:
REMARK  status: ('A' for Active; 'I' for Inactive)
REMARK    1  A    between atoms: N1_1  and  C1_5 
REMARK    2  A    between atoms: C2_6  and  O1_7 
REMARK    3  A    between atoms: C8_14  and  O2_15 
ROOT
HETATM    1  C1  UNL     1     -10.506  11.497 -34.579  1.00  0.00     0.219 C 
HETATM    2  C2  UNL     1      -9.136  10.877 -34.788  1.00  0.00     0.155 C 
HETATM    3  C3  UNL     1      -8.481  11.029 -33.412  1.00  0.00     0.046 C 
HETATM    4  C4  UNL     1      -7.812  12.355 -33.383  1.00  0.00     0.010 C 
HETATM    5  C5  UNL     1      -8.677  13.528 -33.177  1.00  0.00     0.001 C 
HETATM    6  C6  UNL     1     -10.092  13.278 -32.850  1.00  0.00     0.009 C 
HETATM    7  C7  UNL     1     -10.610  11.919 -33.168  1.00  0.00     0.048 C 
HETATM    8  C8  UNL     1      -9.667  10.905 -32.502  1.00  0.00     0.131 C 
ENDROOT
BRANCH   1   9
HETATM    9  N1  UNL     1     -10.701  12.515 -35.553  1.00  0.00    -0.072 N 
ATOM     10  H13 UNL     1      -9.910  12.601 -36.190  1.00  0.00     0.274 HD
ATOM     11  H12 UNL     1     -11.411  12.266 -36.242  1.00  0.00     0.274 HD
ATOM     12  H11 UNL     1     -10.913  13.390 -35.074  1.00  0.00     0.274 HD
ENDBRANCH   1   9
BRANCH   2  13
HETATM   13  O1  UNL     1      -8.416  11.542 -35.769  1.00  0.00    -0.393 OA
ATOM     14  H1  UNL     1      -7.622  11.930 -35.419  1.00  0.00     0.210 HD
ENDBRANCH   2  13
BRANCH   8  15
HETATM   15  O2  UNL     1      -9.422  11.203 -31.196  1.00  0.00    -0.395 OA
ATOM     16  H2  UNL     1     -10.142  11.021 -30.603  1.00  0.00     0.210 HD
ENDBRANCH   8  15
TORSDOF 3
ENDMDL
MODEL 5
REMARK VINA RESULT: -5.452114393      1.507      3.230
REMARK  3 active torsions:
REMARK  status: ('A' for Active; 'I' for Inactive)
REMARK    1  A    between atoms: N1_1  and  C1_5 
REMARK    2  A    between atoms: C2_6  and  O1_7 
REMARK    3  A    between atoms: C8_14  and  O2_15 
ROOT
HETATM    1  C1  UNL     1      -8.238  11.014 -34.444  1.00  0.00     0.219 C 
HETATM    2  C2  UNL     1      -7.576  12.128 -33.651  1.00  0.00     0.155 C 
HETATM    3  C3  UNL     1      -8.625  12.454 -32.583  1.00  0.00     0.046 C 
HETATM    4  C4  UNL     1      -9.535  13.478 -33.153  1.00  0.00     0.010 C 
HETATM    5  C5  UNL     1     -10.553  13.004 -34.105  1.00  0.00     0.001 C 
HETATM    6  C6  UNL     1     -10.691  11.547 -34.279  1.00  0.00     0.009 C 
HETATM    7  C7  UNL     1      -9.543  10.718 -33.821  1.00  0.00     0.048 C 
HETATM    8  C8  UNL     1      -9.252  11.109 -32.363  1.00  0.00     0.131 C 
ENDROOT
BRANCH   1   9
HETATM    9  N1  UNL     1      -8.269  11.385 -35.816  1.00  0.00    -0.072 N 
ATOM     10  H13 UNL     1      -8.650  10.649 -36.411  1.00  0.00     0.274 HD
ATOM     11  H12 UNL     1      -8.969  12.102 -36.011  1.00  0.00     0.274 HD
ATOM     12  H11 UNL     1      -7.332  11.669 -36.101  1.00  0.00     0.274 HD
ENDBRANCH   1   9
BRANCH   2  13
HETATM   13  O1  UNL     1      -7.303  13.231 -34.446  1.00  0.00    -0.393 OA
ATOM     14  H1  UNL     1      -6.372  13.414 -34.484  1.00  0.00     0.210 HD
ENDBRANCH   2  13
BRANCH   8  15
HETATM   15  O2  UNL     1     -10.376  11.120 -31.595  1.00  0.00    -0.395 OA
ATOM     16  H2  UNL     1     -10.373  10.501 -30.874  1.00  0.00     0.210 HD
ENDBRANCH   8  15
TORSDOF 3
ENDMDL
