MODEL 1
REMARK VINA RESULT: -5.521079049      0.000      0.000
REMARK  4 active torsions:
REMARK  status: ('A' for Active; 'I' for Inactive)
REMARK    1  A    between atoms: C2_2  and  C4_4 
REMARK    2  A    between atoms: C9_10  and  C10_11 
REMARK    3  A    between atoms: C10_11  and  O1_12 
REMARK    4  A    between atoms: C10_11  and  C11_14 
ROOT
HETATM    1  C4  UNL     1       2.379   9.054  11.714  1.00  0.00     0.059 C 
HETATM    2  C5  UNL     1       1.826  10.346  11.157  1.00  0.00     0.281 C 
HETATM    3  N1  UNL     1       1.031   9.515  10.238  1.00  0.00     0.102 N 
HETATM    4  C6  UNL     1       1.158  10.088   8.921  1.00  0.00     0.273 C 
HETATM    5  C7  UNL     1       2.339   9.493   8.247  1.00  0.00     0.033 C 
HETATM    6  C8  UNL     1       3.031   8.748   9.359  1.00  0.00     0.047 C 
HETATM    7  C9  UNL     1       1.961   8.480  10.430  1.00  0.00     0.200 C 
ENDROOT
BRANCH   7   8
HETATM    8  C10 UNL     1       1.561   7.050  10.368  1.00  0.00     0.258 C 
BRANCH   8   9
HETATM    9  O1  UNL     1       2.514   6.378   9.557  1.00  0.00    -0.382 OA
ATOM     10  H1  UNL     1       3.263   6.179  10.105  1.00  0.00     0.210 HD
ENDBRANCH   8   9
BRANCH   8  11
HETATM   11  C11 UNL     1       0.267   6.884   9.667  1.00  0.00     0.205 C 
HETATM   12  O2  UNL     1       0.246   6.688   8.426  1.00  0.00    -0.646 OA
HETATM   13  O3  UNL     1      -0.972   6.931  10.301  1.00  0.00    -0.646 OA
ENDBRANCH   8  11
ENDBRANCH   7   8
BRANCH   1  14
HETATM   14  C2  UNL     1       1.748   8.730  13.002  1.00  0.00    -0.014 C 
HETATM   15  C1  UNL     1       1.302   9.933  13.806  1.00  0.00     0.010 C 
HETATM   16  C3  UNL     1       2.448   7.763  13.891  1.00  0.00     0.010 C 
ENDBRANCH   1  14
TORSDOF 4
ENDMDL
MODEL 2
REMARK VINA RESULT: -5.500091396      7.940      9.839
REMARK  4 active torsions:
REMARK  status: ('A' for Active; 'I' for Inactive)
REMARK    1  A    between atoms: C2_2  and  C4_4 
REMARK    2  A    between atoms: C9_10  and  C10_11 
REMARK    3  A    between atoms: C10_11  and  O1_12 
REMARK    4  A    between atoms: C10_11  and  C11_14 
ROOT
HETATM    1  C4  UNL     1      -3.146   1.372  10.017  1.00  0.00     0.059 C 
HETATM    2  C5  UNL     1      -3.516   2.196   8.805  1.00  0.00     0.281 C 
HETATM    3  N1  UNL     1      -4.900   1.743   9.021  1.00  0.00     0.102 N 
HETATM    4  C6  UNL     1      -5.423   1.331   7.742  1.00  0.00     0.273 C 
HETATM    5  C7  UNL     1      -5.111  -0.105   7.532  1.00  0.00     0.033 C 
HETATM    6  C8  UNL     1      -4.147  -0.414   8.648  1.00  0.00     0.047 C 
HETATM    7  C9  UNL     1      -4.389   0.646   9.734  1.00  0.00     0.200 C 
ENDROOT
BRANCH   7   8
HETATM    8  C10 UNL     1      -5.141   0.026  10.857  1.00  0.00     0.258 C 
BRANCH   8   9
HETATM    9  O1  UNL     1      -5.556  -1.263  10.429  1.00  0.00    -0.382 OA
ATOM     10  H1  UNL     1      -6.497  -1.312  10.548  1.00  0.00     0.210 HD
ENDBRANCH   8   9
BRANCH   8  11
HETATM   11  C11 UNL     1      -6.392   0.765  11.138  1.00  0.00     0.205 C 
HETATM   12  O2  UNL     1      -7.482   0.357  10.664  1.00  0.00    -0.646 OA
HETATM   13  O3  UNL     1      -6.457   1.919  11.915  1.00  0.00    -0.646 OA
ENDBRANCH   8  11
ENDBRANCH   7   8
BRANCH   1  14
HETATM   14  C2  UNL     1      -2.947   2.233  11.191  1.00  0.00    -0.014 C 
HETATM   15  C1  UNL     1      -2.716   3.694  10.871  1.00  0.00     0.010 C 
HETATM   16  C3  UNL     1      -1.967   1.784  12.218  1.00  0.00     0.010 C 
ENDBRANCH   1  14
TORSDOF 4
ENDMDL
MODEL 3
REMARK VINA RESULT: -5.332734625      5.792      7.656
REMARK  4 active torsions:
REMARK  status: ('A' for Active; 'I' for Inactive)
REMARK    1  A    between atoms: C2_2  and  C4_4 
REMARK    2  A    between atoms: C9_10  and  C10_11 
REMARK    3  A    between atoms: C10_11  and  O1_12 
REMARK    4  A    between atoms: C10_11  and  C11_14 
ROOT
HETATM    1  C4  UNL     1      -2.407   4.577   9.877  1.00  0.00     0.059 C 
HETATM    2  C5  UNL     1      -1.027   4.278  10.415  1.00  0.00     0.281 C 
HETATM    3  N1  UNL     1      -1.304   2.864  10.114  1.00  0.00     0.102 N 
HETATM    4  C6  UNL     1      -0.903   2.092  11.264  1.00  0.00     0.273 C 
HETATM    5  C7  UNL     1      -2.048   1.994  12.203  1.00  0.00     0.033 C 
HETATM    6  C8  UNL     1      -3.039   2.982  11.642  1.00  0.00     0.047 C 
HETATM    7  C9  UNL     1      -2.676   3.163  10.160  1.00  0.00     0.200 C 
ENDROOT
BRANCH   7   8
HETATM    8  C10 UNL     1      -3.663   2.429   9.327  1.00  0.00     0.258 C 
BRANCH   8   9
HETATM    9  O1  UNL     1      -4.840   2.268  10.106  1.00  0.00    -0.382 OA
ATOM     10  H1  UNL     1      -4.712   2.749  10.914  1.00  0.00     0.210 HD
ENDBRANCH   8   9
BRANCH   8  11
HETATM   11  C11 UNL     1      -3.201   1.054   9.032  1.00  0.00     0.205 C 
HETATM   12  O2  UNL     1      -2.563   0.819   7.974  1.00  0.00    -0.646 OA
HETATM   13  O3  UNL     1      -3.427  -0.039   9.865  1.00  0.00    -0.646 OA
ENDBRANCH   8  11
ENDBRANCH   7   8
BRANCH   1  14
HETATM   14  C2  UNL     1      -2.326   5.141   8.521  1.00  0.00    -0.014 C 
HETATM   15  C1  UNL     1      -2.006   6.620   8.472  1.00  0.00     0.010 C 
HETATM   16  C3  UNL     1      -3.438   4.838   7.579  1.00  0.00     0.010 C 
ENDBRANCH   1  14
TORSDOF 4
ENDMDL
MODEL 4
REMARK VINA RESULT: -5.307859103      7.122      9.243
REMARK  4 active torsions:
REMARK  status: ('A' for Active; 'I' for Inactive)
REMARK    1  A    between atoms: C2_2  and  C4_4 
REMARK    2  A    between atoms: C9_10  and  C10_11 
REMARK    3  A    between atoms: C10_11  and  O1_12 
REMARK    4  A    between atoms: C10_11  and  C11_14 
ROOT
HETATM    1  C4  UNL     1      -3.182   2.508  10.763  1.00  0.00     0.059 C 
HETATM    2  C5  UNL     1      -2.721   1.220  11.406  1.00  0.00     0.281 C 
HETATM    3  N1  UNL     1      -3.179   0.540  10.183  1.00  0.00     0.102 N 
HETATM    4  C6  UNL     1      -3.935  -0.617  10.591  1.00  0.00     0.273 C 
HETATM    5  C7  UNL     1      -5.357  -0.228  10.766  1.00  0.00     0.033 C 
HETATM    6  C8  UNL     1      -5.314   1.277  10.693  1.00  0.00     0.047 C 
HETATM    7  C9  UNL     1      -4.024   1.635   9.938  1.00  0.00     0.200 C 
ENDROOT
BRANCH   7   8
HETATM    8  C10 UNL     1      -4.374   2.057   8.556  1.00  0.00     0.258 C 
BRANCH   8   9
HETATM    9  O1  UNL     1      -5.778   2.269   8.520  1.00  0.00    -0.382 OA
ATOM     10  H1  UNL     1      -5.979   2.694   7.694  1.00  0.00     0.210 HD
ENDBRANCH   8   9
BRANCH   8  11
HETATM   11  C11 UNL     1      -4.119   0.971   7.582  1.00  0.00     0.205 C 
HETATM   12  O2  UNL     1      -5.034   0.159   7.294  1.00  0.00    -0.646 OA
HETATM   13  O3  UNL     1      -2.900   0.773   6.939  1.00  0.00    -0.646 OA
ENDBRANCH   8  11
ENDBRANCH   7   8
BRANCH   1  14
HETATM   14  C2  UNL     1      -2.037   3.272  10.247  1.00  0.00    -0.014 C 
HETATM   15  C1  UNL     1      -0.736   3.033  10.982  1.00  0.00     0.010 C 
HETATM   16  C3  UNL     1      -2.225   4.731  10.022  1.00  0.00     0.010 C 
ENDBRANCH   1  14
TORSDOF 4
ENDMDL
MODEL 5
REMARK VINA RESULT: -5.209103839      7.296      9.203
REMARK  4 active torsions:
REMARK  status: ('A' for Active; 'I' for Inactive)
REMARK    1  A    between atoms: C2_2  and  C4_4 
REMARK    2  A    between atoms: C9_10  and  C10_11 
REMARK    3  A    between atoms: C10_11  and  O1_12 
REMARK    4  A    between atoms: C10_11  and  C11_14 
ROOT
HETATM    1  C4  UNL     1      -4.073   0.725  10.776  1.00  0.00     0.059 C 
HETATM    2  C5  UNL     1      -4.137   2.157  11.256  1.00  0.00     0.281 C 
HETATM    3  N1  UNL     1      -3.760   2.548   9.888  1.00  0.00     0.102 N 
HETATM    4  C6  UNL     1      -2.718   3.539   9.995  1.00  0.00     0.273 C 
HETATM    5  C7  UNL     1      -1.402   2.854  10.035  1.00  0.00     0.033 C 
HETATM    6  C8  UNL     1      -1.774   1.405  10.215  1.00  0.00     0.047 C 
HETATM    7  C9  UNL     1      -3.219   1.264   9.712  1.00  0.00     0.200 C 
ENDROOT
BRANCH   7   8
HETATM    8  C10 UNL     1      -3.206   0.599   8.383  1.00  0.00     0.258 C 
BRANCH   8   9
HETATM    9  O1  UNL     1      -1.856   0.552   7.945  1.00  0.00    -0.382 OA
ATOM     10  H1  UNL     1      -1.419  -0.128   8.444  1.00  0.00     0.210 HD
ENDBRANCH   8   9
BRANCH   8  11
HETATM   11  C11 UNL     1      -3.916   1.410   7.368  1.00  0.00     0.205 C 
HETATM   12  O2  UNL     1      -3.262   2.057   6.512  1.00  0.00    -0.646 OA
HETATM   13  O3  UNL     1      -5.303   1.516   7.288  1.00  0.00    -0.646 OA
ENDBRANCH   8  11
ENDBRANCH   7   8
BRANCH   1  14
HETATM   14  C2  UNL     1      -5.424   0.190  10.552  1.00  0.00    -0.014 C 
HETATM   15  C1  UNL     1      -6.529   0.956  11.248  1.00  0.00     0.010 C 
HETATM   16  C3  UNL     1      -5.629  -1.271  10.745  1.00  0.00     0.010 C 
ENDBRANCH   1  14
TORSDOF 4
ENDMDL
