MODEL 1
REMARK VINA RESULT: -6.599829237      0.000      0.000
REMARK  3 active torsions:
REMARK  status: ('A' for Active; 'I' for Inactive)
REMARK    1  A    between atoms: C2_3  and  N2_4 
REMARK    2  A    between atoms: C2_3  and  C10_14 
REMARK       I    between atoms: N2_4  and  C3_6 
REMARK    3  A    between atoms: C3_6  and  C4_8 
ROOT
HETATM    1  N1  UNL     1      -3.961   4.512   4.874  1.00  0.00    -0.194 NA
HETATM    2  C1  UNL     1      -3.396   5.125   5.694  1.00  0.00     0.096 C 
HETATM    3  C2  UNL     1      -2.713   5.897   6.730  1.00  0.00     0.293 C 
ENDROOT
BRANCH   3   4
HETATM    4  N2  UNL     1      -2.801   5.202   7.996  1.00  0.00    -0.335 N 
HETATM    5  C3  UNL     1      -1.690   5.086   8.882  1.00  0.00     0.223 C 
HETATM    6  O1  UNL     1      -0.603   5.608   8.539  1.00  0.00    -0.273 OA
ATOM      7  H2  UNL     1      -3.690   4.780   8.265  1.00  0.00     0.164 HD
BRANCH   5   8
HETATM    8  C4  UNL     1      -1.846   4.362  10.161  1.00  0.00     0.078 C 
HETATM    9  C5  UNL     1      -3.057   3.440  10.101  1.00  0.00     0.014 C 
HETATM   10  C6  UNL     1      -3.228   2.980  11.544  1.00  0.00     0.001 C 
HETATM   11  C7  UNL     1      -2.102   2.043  11.821  1.00  0.00     0.000 C 
HETATM   12  C8  UNL     1      -0.747   2.557  11.537  1.00  0.00     0.001 C 
HETATM   13  C9  UNL     1      -0.602   3.625  10.541  1.00  0.00     0.014 C 
ENDBRANCH   5   8
ENDBRANCH   3   4
BRANCH   3  14
HETATM   14  C10 UNL     1      -3.292   7.245   6.886  1.00  0.00     0.211 C 
HETATM   15  O2  UNL     1      -4.275   7.581   6.200  1.00  0.00    -0.646 OA
HETATM   16  O3  UNL     1      -2.766   8.154   7.785  1.00  0.00    -0.646 OA
ENDBRANCH   3  14
TORSDOF 3
ENDMDL
MODEL 2
REMARK VINA RESULT: -6.251011146      5.128      6.455
REMARK  3 active torsions:
REMARK  status: ('A' for Active; 'I' for Inactive)
REMARK    1  A    between atoms: C2_3  and  N2_4 
REMARK    2  A    between atoms: C2_3  and  C10_14 
REMARK       I    between atoms: N2_4  and  C3_6 
REMARK    3  A    between atoms: C3_6  and  C4_8 
ROOT
HETATM    1  N1  UNL     1      -5.742  -1.250   7.516  1.00  0.00    -0.194 NA
HETATM    2  C1  UNL     1      -5.849  -0.764   8.574  1.00  0.00     0.096 C 
HETATM    3  C2  UNL     1      -5.968  -0.173   9.906  1.00  0.00     0.293 C 
ENDROOT
BRANCH   3   4
HETATM    4  N2  UNL     1      -4.746   0.526  10.241  1.00  0.00    -0.335 N 
HETATM    5  C3  UNL     1      -4.729   1.667  11.095  1.00  0.00     0.223 C 
HETATM    6  O1  UNL     1      -5.819   2.071  11.564  1.00  0.00    -0.273 OA
ATOM      7  H2  UNL     1      -3.864   0.189   9.853  1.00  0.00     0.164 HD
BRANCH   5   8
HETATM    8  C4  UNL     1      -3.446   2.336  11.399  1.00  0.00     0.078 C 
HETATM    9  C5  UNL     1      -2.328   1.307  11.511  1.00  0.00     0.014 C 
HETATM   10  C6  UNL     1      -1.160   2.108  12.071  1.00  0.00     0.001 C 
HETATM   11  C7  UNL     1      -0.693   2.996  10.968  1.00  0.00     0.000 C 
HETATM   12  C8  UNL     1      -1.726   3.845  10.340  1.00  0.00     0.001 C 
HETATM   13  C9  UNL     1      -3.123   3.404  10.402  1.00  0.00     0.014 C 
ENDBRANCH   5   8
ENDBRANCH   3   4
BRANCH   3  14
HETATM   14  C10 UNL     1      -6.232  -1.192  10.940  1.00  0.00     0.211 C 
HETATM   15  O2  UNL     1      -7.371  -1.296  11.432  1.00  0.00    -0.646 OA
HETATM   16  O3  UNL     1      -5.236  -2.043  11.381  1.00  0.00    -0.646 OA
ENDBRANCH   3  14
TORSDOF 3
ENDMDL
MODEL 3
REMARK VINA RESULT: -6.217798461      1.533      2.471
REMARK  3 active torsions:
REMARK  status: ('A' for Active; 'I' for Inactive)
REMARK    1  A    between atoms: C2_3  and  N2_4 
REMARK    2  A    between atoms: C2_3  and  C10_14 
REMARK       I    between atoms: N2_4  and  C3_6 
REMARK    3  A    between atoms: C3_6  and  C4_8 
ROOT
HETATM    1  N1  UNL     1      -1.041   8.189   7.312  1.00  0.00    -0.194 NA
HETATM    2  C1  UNL     1      -1.959   7.468   7.261  1.00  0.00     0.096 C 
HETATM    3  C2  UNL     1      -3.096   6.552   7.181  1.00  0.00     0.293 C 
ENDROOT
BRANCH   3   4
HETATM    4  N2  UNL     1      -2.770   5.309   7.847  1.00  0.00    -0.335 N 
HETATM    5  C3  UNL     1      -2.399   5.255   9.222  1.00  0.00     0.223 C 
HETATM    6  O1  UNL     1      -2.355   6.330   9.866  1.00  0.00    -0.273 OA
ATOM      7  H2  UNL     1      -2.807   4.441   7.313  1.00  0.00     0.164 HD
BRANCH   5   8
HETATM    8  C4  UNL     1      -2.078   3.954   9.843  1.00  0.00     0.078 C 
HETATM    9  C5  UNL     1      -0.692   3.998  10.476  1.00  0.00     0.014 C 
HETATM   10  C6  UNL     1      -0.414   2.543  10.830  1.00  0.00     0.001 C 
HETATM   11  C7  UNL     1      -1.302   2.215  11.982  1.00  0.00     0.000 C 
HETATM   12  C8  UNL     1      -2.739   2.497  11.794  1.00  0.00     0.001 C 
HETATM   13  C9  UNL     1      -3.124   3.528  10.824  1.00  0.00     0.014 C 
ENDBRANCH   5   8
ENDBRANCH   3   4
BRANCH   3  14
HETATM   14  C10 UNL     1      -3.471   6.259   5.785  1.00  0.00     0.211 C 
HETATM   15  O2  UNL     1      -3.913   7.168   5.057  1.00  0.00    -0.646 OA
HETATM   16  O3  UNL     1      -3.343   4.988   5.258  1.00  0.00    -0.646 OA
ENDBRANCH   3  14
TORSDOF 3
ENDMDL
MODEL 4
REMARK VINA RESULT: -6.211559541      2.754      4.109
REMARK  3 active torsions:
REMARK  status: ('A' for Active; 'I' for Inactive)
REMARK    1  A    between atoms: C2_3  and  N2_4 
REMARK    2  A    between atoms: C2_3  and  C10_14 
REMARK       I    between atoms: N2_4  and  C3_6 
REMARK    3  A    between atoms: C3_6  and  C4_8 
ROOT
HETATM    1  N1  UNL     1       1.985   5.645   9.884  1.00  0.00    -0.194 NA
HETATM    2  C1  UNL     1       0.836   5.464  10.003  1.00  0.00     0.096 C 
HETATM    3  C2  UNL     1      -0.602   5.234  10.126  1.00  0.00     0.293 C 
ENDROOT
BRANCH   3   4
HETATM    4  N2  UNL     1      -0.892   3.831   9.918  1.00  0.00    -0.335 N 
HETATM    5  C3  UNL     1      -2.065   3.209  10.437  1.00  0.00     0.223 C 
HETATM    6  O1  UNL     1      -2.865   3.913  11.097  1.00  0.00    -0.273 OA
ATOM      7  H2  UNL     1      -0.234   3.268   9.380  1.00  0.00     0.164 HD
BRANCH   5   8
HETATM    8  C4  UNL     1      -2.303   1.772  10.188  1.00  0.00     0.078 C 
HETATM    9  C5  UNL     1      -2.857   1.105  11.441  1.00  0.00     0.014 C 
HETATM   10  C6  UNL     1      -2.799  -0.381  11.110  1.00  0.00     0.001 C 
HETATM   11  C7  UNL     1      -3.865  -0.626  10.096  1.00  0.00     0.000 C 
HETATM   12  C8  UNL     1      -3.827   0.234   8.896  1.00  0.00     0.001 C 
HETATM   13  C9  UNL     1      -3.185   1.549   9.001  1.00  0.00     0.014 C 
ENDBRANCH   5   8
ENDBRANCH   3   4
BRANCH   3  14
HETATM   14  C10 UNL     1      -1.374   6.029   9.153  1.00  0.00     0.211 C 
HETATM   15  O2  UNL     1      -2.133   6.933   9.552  1.00  0.00    -0.646 OA
HETATM   16  O3  UNL     1      -1.276   5.794   7.794  1.00  0.00    -0.646 OA
ENDBRANCH   3  14
TORSDOF 3
ENDMDL
MODEL 5
REMARK VINA RESULT: -6.176111021      6.673      7.891
REMARK  3 active torsions:
REMARK  status: ('A' for Active; 'I' for Inactive)
REMARK    1  A    between atoms: C2_3  and  N2_4 
REMARK    2  A    between atoms: C2_3  and  C10_14 
REMARK       I    between atoms: N2_4  and  C3_6 
REMARK    3  A    between atoms: C3_6  and  C4_8 
ROOT
HETATM    1  N1  UNL     1       3.233   8.953   9.161  1.00  0.00    -0.194 NA
HETATM    2  C1  UNL     1       2.487   8.532   9.957  1.00  0.00     0.096 C 
HETATM    3  C2  UNL     1       1.565   7.984  10.950  1.00  0.00     0.293 C 
ENDROOT
BRANCH   3   4
HETATM    4  N2  UNL     1       2.280   7.696  12.175  1.00  0.00    -0.335 N 
HETATM    5  C3  UNL     1       1.974   8.344  13.408  1.00  0.00     0.223 C 
HETATM    6  O1  UNL     1       1.051   9.192  13.417  1.00  0.00    -0.273 OA
ATOM      7  H2  UNL     1       3.030   7.005  12.156  1.00  0.00     0.164 HD
BRANCH   5   8
HETATM    8  C4  UNL     1       2.742   8.005  14.624  1.00  0.00     0.078 C 
HETATM    9  C5  UNL     1       4.235   8.180  14.371  1.00  0.00     0.014 C 
HETATM   10  C6  UNL     1       4.882   7.556  15.600  1.00  0.00     0.001 C 
HETATM   11  C7  UNL     1       4.618   8.489  16.733  1.00  0.00     0.000 C 
HETATM   12  C8  UNL     1       3.205   8.860  16.950  1.00  0.00     0.001 C 
HETATM   13  C9  UNL     1       2.282   8.788  15.812  1.00  0.00     0.014 C 
ENDBRANCH   5   8
ENDBRANCH   3   4
BRANCH   3  14
HETATM   14  C10 UNL     1       0.916   6.747  10.477  1.00  0.00     0.211 C 
HETATM   15  O2  UNL     1      -0.325   6.643  10.513  1.00  0.00    -0.646 OA
HETATM   16  O3  UNL     1       1.658   5.688   9.988  1.00  0.00    -0.646 OA
ENDBRANCH   3  14
TORSDOF 3
ENDMDL
