MODEL 1
REMARK VINA RESULT: -4.003969508      0.000      0.000
REMARK  5 active torsions:
REMARK  status: ('A' for Active; 'I' for Inactive)
REMARK    1  A    between atoms: C2_2  and  C3_3 
REMARK    2  A    between atoms: C2_2  and  N3_12 
REMARK    3  A    between atoms: C3_3  and  N1_4 
REMARK    4  A    between atoms: C3_3  and  N2_8 
REMARK    5  A    between atoms: C5_16  and  N5_17 
ROOT
HETATM    1  C1  UNL     1      10.671  20.767  12.732  1.00  0.00     0.038 C 
HETATM    2  C2  UNL     1      11.731  20.665  13.800  1.00  0.00     0.163 C 
ENDROOT
BRANCH   2   3
HETATM    3  C3  UNL     1      12.943  21.495  13.361  1.00  0.00     0.402 C 
BRANCH   3   4
HETATM    4  N1  UNL     1      13.683  21.861  14.542  1.00  0.00    -0.048 N 
ATOM      5  H13 UNL     1      13.488  22.814  14.851  1.00  0.00     0.276 HD
ATOM      6  H12 UNL     1      13.356  21.378  15.379  1.00  0.00     0.276 HD
ATOM      7  H11 UNL     1      14.673  21.702  14.356  1.00  0.00     0.276 HD
ENDBRANCH   3   4
BRANCH   3   8
HETATM    8  N2  UNL     1      12.457  22.610  12.618  1.00  0.00    -0.048 N 
ATOM      9  H23 UNL     1      11.751  22.350  11.929  1.00  0.00     0.276 HD
ATOM     10  H22 UNL     1      11.878  23.237  13.176  1.00  0.00     0.276 HD
ATOM     11  H21 UNL     1      13.262  23.079  12.202  1.00  0.00     0.276 HD
ENDBRANCH   3   8
ENDBRANCH   2   3
BRANCH   2  12
HETATM   12  N3  UNL     1      12.123  19.287  14.017  1.00  0.00    -0.265 N 
HETATM   13  C4  UNL     1      11.617  18.394  14.880  1.00  0.00     0.219 A 
HETATM   14  N4  UNL     1      12.270  17.232  14.756  1.00  0.00    -0.185 N 
HETATM   15  C5  UNL     1      13.178  17.418  13.813  1.00  0.00     0.691 A 
ATOM     16  H4  UNL     1      12.101  16.375  15.283  1.00  0.00     0.185 HD
HETATM   17  N6  UNL     1      13.085  18.674  13.363  1.00  0.00    -0.129 N 
ATOM     18  H6  UNL     1      13.665  19.089  12.634  1.00  0.00     0.206 HD
BRANCH  15  19
HETATM   19  N5  UNL     1      14.006  16.503  13.415  1.00  0.00    -0.233 N 
ATOM     20  H52 UNL     1      13.840  15.788  12.707  1.00  0.00     0.174 HD
ATOM     21  H51 UNL     1      14.952  16.393  13.781  1.00  0.00     0.174 HD
ENDBRANCH  15  19
ENDBRANCH   2  12
TORSDOF 5
ENDMDL
MODEL 2
REMARK VINA RESULT: -3.996533507      0.940      1.243
REMARK  5 active torsions:
REMARK  status: ('A' for Active; 'I' for Inactive)
REMARK    1  A    between atoms: C2_2  and  C3_3 
REMARK    2  A    between atoms: C2_2  and  N3_12 
REMARK    3  A    between atoms: C3_3  and  N1_4 
REMARK    4  A    between atoms: C3_3  and  N2_8 
REMARK    5  A    between atoms: C5_16  and  N5_17 
ROOT
HETATM    1  C1  UNL     1      12.179  21.129  12.593  1.00  0.00     0.038 C 
HETATM    2  C2  UNL     1      11.757  20.621  13.949  1.00  0.00     0.163 C 
ENDROOT
BRANCH   2   3
HETATM    3  C3  UNL     1      12.419  21.494  15.021  1.00  0.00     0.402 C 
BRANCH   3   4
HETATM    4  N1  UNL     1      11.546  22.609  15.288  1.00  0.00    -0.048 N 
ATOM      5  H13 UNL     1      11.485  23.259  14.504  1.00  0.00     0.276 HD
ATOM      6  H12 UNL     1      10.562  22.342  15.319  1.00  0.00     0.276 HD
ATOM      7  H11 UNL     1      11.861  23.057  16.148  1.00  0.00     0.276 HD
ENDBRANCH   3   4
BRANCH   3   8
HETATM    8  N2  UNL     1      13.705  21.873  14.537  1.00  0.00    -0.048 N 
ATOM      9  H23 UNL     1      13.984  21.354  13.705  1.00  0.00     0.276 HD
ATOM     10  H22 UNL     1      13.714  22.806  14.124  1.00  0.00     0.276 HD
ATOM     11  H21 UNL     1      14.367  21.774  15.307  1.00  0.00     0.276 HD
ENDBRANCH   3   8
ENDBRANCH   2   3
BRANCH   2  12
HETATM   12  N3  UNL     1      12.140  19.235  14.128  1.00  0.00    -0.265 N 
HETATM   13  C4  UNL     1      11.631  18.324  14.970  1.00  0.00     0.219 A 
HETATM   14  N4  UNL     1      12.275  17.161  14.813  1.00  0.00    -0.185 N 
HETATM   15  C5  UNL     1      13.180  17.364  13.871  1.00  0.00     0.691 A 
ATOM     16  H4  UNL     1      12.103  16.292  15.318  1.00  0.00     0.185 HD
HETATM   17  N6  UNL     1      13.095  18.632  13.455  1.00  0.00    -0.129 N 
ATOM     18  H6  UNL     1      13.674  19.062  12.733  1.00  0.00     0.206 HD
BRANCH  15  19
HETATM   19  N5  UNL     1      14.000  16.454  13.446  1.00  0.00    -0.233 N 
ATOM     20  H52 UNL     1      13.795  15.468  13.286  1.00  0.00     0.174 HD
ATOM     21  H51 UNL     1      14.978  16.631  13.217  1.00  0.00     0.174 HD
ENDBRANCH  15  19
ENDBRANCH   2  12
TORSDOF 5
ENDMDL
MODEL 3
REMARK VINA RESULT: -3.931032418      1.412      1.932
REMARK  5 active torsions:
REMARK  status: ('A' for Active; 'I' for Inactive)
REMARK    1  A    between atoms: C2_2  and  C3_3 
REMARK    2  A    between atoms: C2_2  and  N3_12 
REMARK    3  A    between atoms: C3_3  and  N1_4 
REMARK    4  A    between atoms: C3_3  and  N2_8 
REMARK    5  A    between atoms: C5_16  and  N5_17 
ROOT
HETATM    1  C1  UNL     1      10.332  20.019  13.872  1.00  0.00     0.038 C 
HETATM    2  C2  UNL     1      11.788  19.817  14.212  1.00  0.00     0.163 C 
ENDROOT
BRANCH   2   3
HETATM    3  C3  UNL     1      12.634  20.314  13.034  1.00  0.00     0.402 C 
BRANCH   3   4
HETATM    4  N1  UNL     1      13.769  21.023  13.570  1.00  0.00    -0.048 N 
ATOM      5  H13 UNL     1      13.724  22.027  13.398  1.00  0.00     0.276 HD
ATOM      6  H12 UNL     1      13.767  21.058  14.589  1.00  0.00     0.276 HD
ATOM      7  H11 UNL     1      14.614  20.596  13.191  1.00  0.00     0.276 HD
ENDBRANCH   3   4
BRANCH   3   8
HETATM    8  N2  UNL     1      11.795  21.114  12.205  1.00  0.00    -0.048 N 
ATOM      9  H23 UNL     1      11.403  21.917  12.696  1.00  0.00     0.276 HD
ATOM     10  H22 UNL     1      12.315  21.630  11.495  1.00  0.00     0.276 HD
ATOM     11  H21 UNL     1      11.081  20.504  11.808  1.00  0.00     0.276 HD
ENDBRANCH   3   8
ENDBRANCH   2   3
BRANCH   2  12
HETATM   12  N3  UNL     1      12.072  18.421  14.477  1.00  0.00    -0.265 N 
HETATM   13  C4  UNL     1      13.006  17.633  13.925  1.00  0.00     0.219 A 
HETATM   14  N4  UNL     1      12.927  16.407  14.457  1.00  0.00    -0.185 N 
HETATM   15  C5  UNL     1      11.941  16.449  15.337  1.00  0.00     0.691 A 
ATOM     16  H4  UNL     1      13.510  15.602  14.229  1.00  0.00     0.185 HD
HETATM   17  N6  UNL     1      11.421  17.681  15.347  1.00  0.00    -0.129 N 
ATOM     18  H6  UNL     1      10.648  17.995  15.933  1.00  0.00     0.206 HD
BRANCH  15  19
HETATM   19  N5  UNL     1      11.570  15.436  16.056  1.00  0.00    -0.233 N 
ATOM     20  H52 UNL     1      12.033  14.531  16.130  1.00  0.00     0.174 HD
ATOM     21  H51 UNL     1      10.739  15.433  16.649  1.00  0.00     0.174 HD
ENDBRANCH  15  19
ENDBRANCH   2  12
TORSDOF 5
ENDMDL
MODEL 4
REMARK VINA RESULT: -3.922054774      3.405      6.486
REMARK  5 active torsions:
REMARK  status: ('A' for Active; 'I' for Inactive)
REMARK    1  A    between atoms: C2_2  and  C3_3 
REMARK    2  A    between atoms: C2_2  and  N3_12 
REMARK    3  A    between atoms: C3_3  and  N1_4 
REMARK    4  A    between atoms: C3_3  and  N2_8 
REMARK    5  A    between atoms: C5_16  and  N5_17 
ROOT
HETATM    1  C1  UNL     1      14.242  14.485  15.090  1.00  0.00     0.038 C 
HETATM    2  C2  UNL     1      13.043  14.303  15.985  1.00  0.00     0.163 C 
ENDROOT
BRANCH   2   3
HETATM    3  C3  UNL     1      12.443  12.918  15.718  1.00  0.00     0.402 C 
BRANCH   3   4
HETATM    4  N1  UNL     1      12.378  12.211  16.972  1.00  0.00    -0.048 N 
ATOM      5  H13 UNL     1      13.213  12.341  17.542  1.00  0.00     0.276 HD
ATOM      6  H12 UNL     1      11.705  12.620  17.620  1.00  0.00     0.276 HD
ATOM      7  H11 UNL     1      12.187  11.230  16.771  1.00  0.00     0.276 HD
ENDBRANCH   3   4
BRANCH   3   8
HETATM    8  N2  UNL     1      13.256  12.276  14.738  1.00  0.00    -0.048 N 
ATOM      9  H23 UNL     1      13.082  11.274  14.673  1.00  0.00     0.276 HD
ATOM     10  H22 UNL     1      12.994  12.521  13.783  1.00  0.00     0.276 HD
ATOM     11  H21 UNL     1      14.229  12.497  14.950  1.00  0.00     0.276 HD
ENDBRANCH   3   8
ENDBRANCH   2   3
BRANCH   2  12
HETATM   12  N3  UNL     1      12.051  15.331  15.744  1.00  0.00    -0.265 N 
HETATM   13  C4  UNL     1      10.715  15.249  15.831  1.00  0.00     0.219 A 
HETATM   14  N4  UNL     1      10.173  16.434  15.524  1.00  0.00    -0.185 N 
HETATM   15  C5  UNL     1      11.183  17.242  15.250  1.00  0.00     0.691 A 
ATOM     16  H4  UNL     1       9.181  16.667  15.506  1.00  0.00     0.185 HD
HETATM   17  N6  UNL     1      12.329  16.565  15.385  1.00  0.00    -0.129 N 
ATOM     18  H6  UNL     1      13.264  16.943  15.235  1.00  0.00     0.206 HD
BRANCH  15  19
HETATM   19  N5  UNL     1      11.044  18.485  14.908  1.00  0.00    -0.233 N 
ATOM     20  H52 UNL     1      10.215  18.924  14.507  1.00  0.00     0.174 HD
ATOM     21  H51 UNL     1      11.776  19.188  15.006  1.00  0.00     0.174 HD
ENDBRANCH  15  19
ENDBRANCH   2  12
TORSDOF 5
ENDMDL
MODEL 5
REMARK VINA RESULT: -3.886413762      0.898      1.083
REMARK  5 active torsions:
REMARK  status: ('A' for Active; 'I' for Inactive)
REMARK    1  A    between atoms: C2_2  and  C3_3 
REMARK    2  A    between atoms: C2_2  and  N3_12 
REMARK    3  A    between atoms: C3_3  and  N1_4 
REMARK    4  A    between atoms: C3_3  and  N2_8 
REMARK    5  A    between atoms: C5_16  and  N5_17 
ROOT
HETATM    1  C1  UNL     1       9.863  20.539  13.486  1.00  0.00     0.038 C 
HETATM    2  C2  UNL     1      11.358  20.580  13.677  1.00  0.00     0.163 C 
ENDROOT
BRANCH   2   3
HETATM    3  C3  UNL     1      11.996  21.129  12.395  1.00  0.00     0.402 C 
BRANCH   3   4
HETATM    4  N1  UNL     1      12.768  22.293  12.747  1.00  0.00    -0.048 N 
ATOM      5  H13 UNL     1      12.870  22.948  11.972  1.00  0.00     0.276 HD
ATOM      6  H12 UNL     1      12.275  22.915  13.387  1.00  0.00     0.276 HD
ATOM      7  H11 UNL     1      13.665  21.977  13.115  1.00  0.00     0.276 HD
ENDBRANCH   3   4
BRANCH   3   8
HETATM    8  N2  UNL     1      10.946  21.392  11.468  1.00  0.00    -0.048 N 
ATOM      9  H23 UNL     1      10.307  22.119  11.789  1.00  0.00     0.276 HD
ATOM     10  H22 UNL     1      11.272  21.863  10.624  1.00  0.00     0.276 HD
ATOM     11  H21 UNL     1      10.476  20.509  11.273  1.00  0.00     0.276 HD
ENDBRANCH   3   8
ENDBRANCH   2   3
BRANCH   2  12
HETATM   12  N3  UNL     1      11.882  19.261  13.970  1.00  0.00    -0.265 N 
HETATM   13  C4  UNL     1      11.484  18.385  14.904  1.00  0.00     0.219 A 
HETATM   14  N4  UNL     1      12.240  17.283  14.835  1.00  0.00    -0.185 N 
HETATM   15  C5  UNL     1      13.102  17.487  13.854  1.00  0.00     0.691 A 
ATOM     16  H4  UNL     1      12.165  16.451  15.421  1.00  0.00     0.185 HD
HETATM   17  N6  UNL     1      12.881  18.697  13.328  1.00  0.00    -0.129 N 
ATOM     18  H6  UNL     1      13.401  19.113  12.555  1.00  0.00     0.206 HD
BRANCH  15  19
HETATM   19  N5  UNL     1      14.003  16.628  13.491  1.00  0.00    -0.233 N 
ATOM     20  H52 UNL     1      14.799  16.302  14.039  1.00  0.00     0.174 HD
ATOM     21  H51 UNL     1      14.015  16.166  12.581  1.00  0.00     0.174 HD
ENDBRANCH  15  19
ENDBRANCH   2  12
TORSDOF 5
ENDMDL
