MODEL 1
REMARK VINA RESULT: -5.345139794      0.000      0.000
REMARK  4 active torsions:
REMARK  status: ('A' for Active; 'I' for Inactive)
REMARK    1  A    between atoms: C1_4  and  N2_5 
REMARK    2  A    between atoms: N2_5  and  N3_7 
REMARK    3  A    between atoms: C2_9  and  C3_10 
REMARK    4  A    between atoms: C4_13  and  N5_14 
ROOT
HETATM    1  C3  UNL     1     -17.505  -6.219 -11.850  1.00  0.00     0.202 A 
HETATM    2  N4  UNL     1     -18.016  -7.070 -10.945  1.00  0.00    -0.166 N 
ATOM      3  H4  UNL     1     -18.611  -7.870 -11.163  1.00  0.00     0.186 HD
HETATM    4  C4  UNL     1     -17.627  -6.710  -9.707  1.00  0.00     0.698 A 
HETATM    5  N6  UNL     1     -16.866  -5.618  -9.886  1.00  0.00    -0.089 N 
ATOM      6  H6  UNL     1     -16.407  -5.085  -9.147  1.00  0.00     0.213 HD
HETATM    7  O1  UNL     1     -16.813  -5.352 -11.170  1.00  0.00    -0.203 OA
ENDROOT
BRANCH   1   8
HETATM    8  C2  UNL     1     -17.663  -6.225 -13.302  1.00  0.00     0.166 C 
HETATM    9  N3  UNL     1     -16.697  -5.889 -14.091  1.00  0.00    -0.307 N 
ATOM     10  H3  UNL     1     -15.790  -5.608 -13.719  1.00  0.00     0.186 HD
BRANCH   9  11
HETATM   11  N2  UNL     1     -16.924  -5.921 -15.454  1.00  0.00    -0.297 N 
ATOM     12  H2  UNL     1     -16.574  -6.702 -16.008  1.00  0.00     0.187 HD
BRANCH  11  13
HETATM   13  C1  UNL     1     -17.635  -4.881 -16.081  1.00  0.00     0.190 C 
HETATM   14  N1  UNL     1     -17.110  -3.707 -16.213  1.00  0.00    -0.394 N 
ATOM     15  H12 UNL     1     -16.168  -3.549 -15.854  1.00  0.00     0.156 HD
ATOM     16  H11 UNL     1     -17.625  -2.953 -16.668  1.00  0.00     0.156 HD
ENDBRANCH  11  13
ENDBRANCH   9  11
ENDBRANCH   1   8
BRANCH   4  17
HETATM   17  N5  UNL     1     -17.936  -7.305  -8.606  1.00  0.00    -0.233 N 
ATOM     18  H52 UNL     1     -18.260  -8.263  -8.468  1.00  0.00     0.174 HD
ATOM     19  H51 UNL     1     -17.905  -6.900  -7.671  1.00  0.00     0.174 HD
ENDBRANCH   4  17
TORSDOF 4
ENDMDL
MODEL 2
REMARK VINA RESULT: -5.340994559      1.559      5.588
REMARK  4 active torsions:
REMARK  status: ('A' for Active; 'I' for Inactive)
REMARK    1  A    between atoms: C1_4  and  N2_5 
REMARK    2  A    between atoms: N2_5  and  N3_7 
REMARK    3  A    between atoms: C2_9  and  C3_10 
REMARK    4  A    between atoms: C4_13  and  N5_14 
ROOT
HETATM    1  C3  UNL     1     -16.778  -5.855 -12.173  1.00  0.00     0.202 A 
HETATM    2  N4  UNL     1     -17.376  -6.168 -13.335  1.00  0.00    -0.166 N 
ATOM      3  H4  UNL     1     -18.270  -6.650 -13.423  1.00  0.00     0.186 HD
HETATM    4  C4  UNL     1     -16.617  -5.749 -14.367  1.00  0.00     0.698 A 
HETATM    5  N6  UNL     1     -15.545  -5.175 -13.799  1.00  0.00    -0.089 N 
ATOM      6  H6  UNL     1     -14.764  -4.748 -14.298  1.00  0.00     0.213 HD
HETATM    7  O1  UNL     1     -15.670  -5.254 -12.495  1.00  0.00    -0.203 OA
ENDROOT
BRANCH   1   8
HETATM    8  C2  UNL     1     -17.237  -6.115 -10.811  1.00  0.00     0.166 C 
HETATM    9  N3  UNL     1     -16.594  -5.669  -9.782  1.00  0.00    -0.307 N 
ATOM     10  H3  UNL     1     -15.742  -5.120  -9.895  1.00  0.00     0.186 HD
BRANCH   9  11
HETATM   11  N2  UNL     1     -17.091  -5.956  -8.526  1.00  0.00    -0.297 N 
ATOM     12  H2  UNL     1     -17.710  -5.291  -8.061  1.00  0.00     0.187 HD
BRANCH  11  13
HETATM   13  C1  UNL     1     -16.748  -7.159  -7.883  1.00  0.00     0.190 C 
HETATM   14  N1  UNL     1     -15.563  -7.336  -7.398  1.00  0.00    -0.394 N 
ATOM     15  H12 UNL     1     -14.880  -6.584  -7.491  1.00  0.00     0.156 HD
ATOM     16  H11 UNL     1     -15.315  -8.209  -6.932  1.00  0.00     0.156 HD
ENDBRANCH  11  13
ENDBRANCH   9  11
ENDBRANCH   1   8
BRANCH   4  17
HETATM   17  N5  UNL     1     -16.890  -5.886 -15.619  1.00  0.00    -0.233 N 
ATOM     18  H52 UNL     1     -17.451  -6.607 -16.075  1.00  0.00     0.174 HD
ATOM     19  H51 UNL     1     -16.579  -5.277 -16.375  1.00  0.00     0.174 HD
ENDBRANCH   4  17
TORSDOF 4
ENDMDL
MODEL 3
REMARK VINA RESULT: -5.267802442      1.037      1.273
REMARK  4 active torsions:
REMARK  status: ('A' for Active; 'I' for Inactive)
REMARK    1  A    between atoms: C1_4  and  N2_5 
REMARK    2  A    between atoms: N2_5  and  N3_7 
REMARK    3  A    between atoms: C2_9  and  C3_10 
REMARK    4  A    between atoms: C4_13  and  N5_14 
ROOT
HETATM    1  C3  UNL     1     -17.740  -6.529 -11.964  1.00  0.00     0.202 A 
HETATM    2  N4  UNL     1     -17.024  -5.855 -11.048  1.00  0.00    -0.166 N 
ATOM      3  H4  UNL     1     -16.401  -5.074 -11.251  1.00  0.00     0.186 HD
HETATM    4  C4  UNL     1     -17.253  -6.365  -9.822  1.00  0.00     0.698 A 
HETATM    5  N6  UNL     1     -18.126  -7.366 -10.020  1.00  0.00    -0.089 N 
ATOM      6  H6  UNL     1     -18.514  -7.969  -9.294  1.00  0.00     0.213 HD
HETATM    7  O1  UNL     1     -18.396  -7.438 -11.303  1.00  0.00    -0.203 OA
ENDROOT
BRANCH   1   8
HETATM    8  C2  UNL     1     -17.802  -6.323 -13.408  1.00  0.00     0.166 C 
HETATM    9  N3  UNL     1     -16.749  -6.030 -14.098  1.00  0.00    -0.307 N 
ATOM     10  H3  UNL     1     -15.839  -5.935 -13.648  1.00  0.00     0.186 HD
BRANCH   9  11
HETATM   11  N2  UNL     1     -16.888  -5.851 -15.461  1.00  0.00    -0.297 N 
ATOM     12  H2  UNL     1     -16.435  -6.498 -16.106  1.00  0.00     0.187 HD
BRANCH  11  13
HETATM   13  C1  UNL     1     -17.652  -4.781 -15.962  1.00  0.00     0.190 C 
HETATM   14  N1  UNL     1     -17.106  -3.635 -16.206  1.00  0.00    -0.394 N 
ATOM     15  H12 UNL     1     -16.107  -3.522 -16.026  1.00  0.00     0.156 HD
ATOM     16  H11 UNL     1     -17.659  -2.860 -16.570  1.00  0.00     0.156 HD
ENDBRANCH  11  13
ENDBRANCH   9  11
ENDBRANCH   1   8
BRANCH   4  17
HETATM   17  N5  UNL     1     -16.730  -5.958  -8.717  1.00  0.00    -0.233 N 
ATOM     18  H52 UNL     1     -16.082  -6.447  -8.099  1.00  0.00     0.174 HD
ATOM     19  H51 UNL     1     -16.887  -5.054  -8.271  1.00  0.00     0.174 HD
ENDBRANCH   4  17
TORSDOF 4
ENDMDL
MODEL 4
REMARK VINA RESULT: -5.260224915      1.411      5.416
REMARK  4 active torsions:
REMARK  status: ('A' for Active; 'I' for Inactive)
REMARK    1  A    between atoms: C1_4  and  N2_5 
REMARK    2  A    between atoms: N2_5  and  N3_7 
REMARK    3  A    between atoms: C2_9  and  C3_10 
REMARK    4  A    between atoms: C4_13  and  N5_14 
ROOT
HETATM    1  C3  UNL     1     -17.349  -6.085 -13.271  1.00  0.00     0.202 A 
HETATM    2  N4  UNL     1     -18.050  -5.937 -14.408  1.00  0.00    -0.166 N 
ATOM      3  H4  UNL     1     -19.028  -6.198 -14.532  1.00  0.00     0.186 HD
HETATM    4  C4  UNL     1     -17.267  -5.392 -15.360  1.00  0.00     0.698 A 
HETATM    5  N6  UNL     1     -16.075  -5.214 -14.770  1.00  0.00    -0.089 N 
ATOM      6  H6  UNL     1     -15.245  -4.817 -15.211  1.00  0.00     0.213 HD
HETATM    7  O1  UNL     1     -16.156  -5.635 -13.529  1.00  0.00    -0.203 OA
ENDROOT
BRANCH   1   8
HETATM    8  C2  UNL     1     -17.791  -6.630 -11.990  1.00  0.00     0.166 C 
HETATM    9  N3  UNL     1     -17.293  -6.220 -10.870  1.00  0.00    -0.307 N 
ATOM     10  H3  UNL     1     -16.572  -5.498 -10.851  1.00  0.00     0.186 HD
BRANCH   9  11
HETATM   11  N2  UNL     1     -17.763  -6.783  -9.700  1.00  0.00    -0.297 N 
ATOM     12  H2  UNL     1     -17.539  -6.351  -8.803  1.00  0.00     0.187 HD
BRANCH  11  13
HETATM   13  C1  UNL     1     -18.548  -7.950  -9.738  1.00  0.00     0.190 C 
HETATM   14  N1  UNL     1     -18.058  -9.089  -9.370  1.00  0.00    -0.394 N 
ATOM     15  H12 UNL     1     -17.090  -9.124  -9.051  1.00  0.00     0.156 HD
ATOM     16  H11 UNL     1     -18.627  -9.935  -9.397  1.00  0.00     0.156 HD
ENDBRANCH  11  13
ENDBRANCH   9  11
ENDBRANCH   1   8
BRANCH   4  17
HETATM   17  N5  UNL     1     -17.618  -5.114 -16.569  1.00  0.00    -0.233 N 
ATOM     18  H52 UNL     1     -18.245  -5.631 -17.186  1.00  0.00     0.174 HD
ATOM     19  H51 UNL     1     -17.314  -4.308 -17.115  1.00  0.00     0.174 HD
ENDBRANCH   4  17
TORSDOF 4
ENDMDL
MODEL 5
REMARK VINA RESULT: -5.079617386      1.623      5.636
REMARK  4 active torsions:
REMARK  status: ('A' for Active; 'I' for Inactive)
REMARK    1  A    between atoms: C1_4  and  N2_5 
REMARK    2  A    between atoms: N2_5  and  N3_7 
REMARK    3  A    between atoms: C2_9  and  C3_10 
REMARK    4  A    between atoms: C4_13  and  N5_14 
ROOT
HETATM    1  C3  UNL     1     -17.487  -6.294 -12.073  1.00  0.00     0.202 A 
HETATM    2  N4  UNL     1     -16.551  -5.711 -12.841  1.00  0.00    -0.166 N 
ATOM      3  H4  UNL     1     -15.677  -5.313 -12.499  1.00  0.00     0.186 HD
HETATM    4  C4  UNL     1     -16.941  -5.731 -14.131  1.00  0.00     0.698 A 
HETATM    5  N6  UNL     1     -18.137  -6.341 -14.124  1.00  0.00    -0.089 N 
ATOM      6  H6  UNL     1     -18.717  -6.524 -14.943  1.00  0.00     0.213 HD
HETATM    7  O1  UNL     1     -18.433  -6.664 -12.886  1.00  0.00    -0.203 OA
ENDROOT
BRANCH   1   8
HETATM    8  C2  UNL     1     -17.487  -6.495 -10.626  1.00  0.00     0.166 C 
HETATM    9  N3  UNL     1     -16.750  -5.780  -9.842  1.00  0.00    -0.307 N 
ATOM     10  H3  UNL     1     -16.143  -5.050 -10.216  1.00  0.00     0.186 HD
BRANCH   9  11
HETATM   11  N2  UNL     1     -16.806  -6.029  -8.484  1.00  0.00    -0.297 N 
ATOM     12  H2  UNL     1     -16.927  -5.254  -7.832  1.00  0.00     0.187 HD
BRANCH  11  13
HETATM   13  C1  UNL     1     -16.696  -7.344  -7.998  1.00  0.00     0.190 C 
HETATM   14  N1  UNL     1     -15.673  -7.706  -7.295  1.00  0.00    -0.394 N 
ATOM     15  H12 UNL     1     -14.946  -7.017  -7.100  1.00  0.00     0.156 HD
ATOM     16  H11 UNL     1     -15.594  -8.660  -6.942  1.00  0.00     0.156 HD
ENDBRANCH  11  13
ENDBRANCH   9  11
ENDBRANCH   1   8
BRANCH   4  17
HETATM   17  N5  UNL     1     -16.283  -5.257 -15.133  1.00  0.00    -0.233 N 
ATOM     18  H52 UNL     1     -16.349  -4.332 -15.559  1.00  0.00     0.174 HD
ATOM     19  H51 UNL     1     -15.573  -5.748 -15.675  1.00  0.00     0.174 HD
ENDBRANCH   4  17
TORSDOF 4
ENDMDL
