MODEL 1
REMARK VINA RESULT: -5.078916129      0.000      0.000
REMARK  2 active torsions:
REMARK  status: ('A' for Active; 'I' for Inactive)
REMARK    1  A    between atoms: C3_9  and  C4_10 
REMARK    2  A    between atoms: C4_10  and  N4_11 
REMARK       I    between atoms: N4_11  and  C5_13 
REMARK       I    between atoms: C5_13  and  N5_14 
REMARK       I    between atoms: C5_13  and  N6_18 
ROOT
HETATM    1  N4  UNL     1     -17.078  -6.617 -13.931  1.00  0.00    -0.369 N 
ATOM      2  H4  UNL     1     -16.232  -7.139 -13.703  1.00  0.00     0.157 HD
HETATM    3  C5  UNL     1     -17.148  -5.976 -15.160  1.00  0.00     0.476 C 
HETATM    4  N5  UNL     1     -15.946  -5.070 -15.264  1.00  0.00    -0.033 N 
ATOM      5  H51 UNL     1     -15.997  -4.599 -16.167  1.00  0.00     0.278 HD
ATOM      6  H52 UNL     1     -15.064  -5.561 -15.120  1.00  0.00     0.278 HD
ATOM      7  H53 UNL     1     -15.867  -4.422 -14.480  1.00  0.00     0.278 HD
HETATM    8  N6  UNL     1     -18.308  -5.105 -15.301  1.00  0.00    -0.033 N 
ATOM      9  H61 UNL     1     -18.359  -4.634 -16.204  1.00  0.00     0.278 HD
ATOM     10  H62 UNL     1     -18.345  -4.427 -14.539  1.00  0.00     0.278 HD
ATOM     11  H63 UNL     1     -19.169  -5.619 -15.113  1.00  0.00     0.278 HD
ENDROOT
BRANCH   1  12
HETATM   12  C4  UNL     1     -18.121  -6.582 -12.981  1.00  0.00     0.178 C 
BRANCH  12  13
HETATM   13  C3  UNL     1     -17.433  -6.210 -11.660  1.00  0.00     0.068 A 
HETATM   14  C2  UNL     1     -17.797  -6.666 -10.407  1.00  0.00     0.049 A 
HETATM   15  C1  UNL     1     -18.784  -7.724 -10.104  1.00  0.00     0.072 C 
HETATM   16  N1  UNL     1     -17.034  -5.940  -9.494  1.00  0.00    -0.289 N 
HETATM   17  N2  UNL     1     -16.332  -5.126 -10.260  1.00  0.00    -0.242 N 
ATOM     18  H1  UNL     1     -17.021  -6.018  -8.477  1.00  0.00     0.188 HD
HETATM   19  N3  UNL     1     -16.579  -5.284 -11.471  1.00  0.00    -0.287 N 
ATOM     20  H2  UNL     1     -15.662  -4.446  -9.902  1.00  0.00     0.208 HD
ATOM     21  H3  UNL     1     -16.150  -4.738 -12.219  1.00  0.00     0.188 HD
ENDBRANCH  12  13
ENDBRANCH   1  12
TORSDOF 2
ENDMDL
MODEL 2
REMARK VINA RESULT: -4.914727611      4.296      6.811
REMARK  2 active torsions:
REMARK  status: ('A' for Active; 'I' for Inactive)
REMARK    1  A    between atoms: C3_9  and  C4_10 
REMARK    2  A    between atoms: C4_10  and  N4_11 
REMARK       I    between atoms: N4_11  and  C5_13 
REMARK       I    between atoms: C5_13  and  N5_14 
REMARK       I    between atoms: C5_13  and  N6_18 
ROOT
HETATM    1  N4  UNL     1     -14.896  -9.339  -6.887  1.00  0.00    -0.369 N 
ATOM      2  H4  UNL     1     -14.395  -8.570  -7.333  1.00  0.00     0.157 HD
HETATM    3  C5  UNL     1     -14.157 -10.366  -6.318  1.00  0.00     0.476 C 
HETATM    4  N5  UNL     1     -13.240 -10.907  -7.386  1.00  0.00    -0.033 N 
ATOM      5  H51 UNL     1     -12.696 -11.662  -6.968  1.00  0.00     0.278 HD
ATOM      6  H52 UNL     1     -12.657 -10.186  -7.813  1.00  0.00     0.278 HD
ATOM      7  H53 UNL     1     -13.736 -11.193  -8.230  1.00  0.00     0.278 HD
HETATM    8  N6  UNL     1     -14.965 -11.500  -5.885  1.00  0.00    -0.033 N 
ATOM      9  H61 UNL     1     -14.421 -12.254  -5.467  1.00  0.00     0.278 HD
ATOM     10  H62 UNL     1     -15.535 -11.850  -6.655  1.00  0.00     0.278 HD
ATOM     11  H63 UNL     1     -15.703 -11.194  -5.252  1.00  0.00     0.278 HD
ENDROOT
BRANCH   1  12
HETATM   12  C4  UNL     1     -16.306  -9.307  -6.879  1.00  0.00     0.178 C 
BRANCH  12  13
HETATM   13  C3  UNL     1     -16.672  -8.031  -7.651  1.00  0.00     0.068 A 
HETATM   14  C2  UNL     1     -17.589  -7.949  -8.682  1.00  0.00     0.049 A 
HETATM   15  C1  UNL     1     -18.520  -9.009  -9.122  1.00  0.00     0.072 C 
HETATM   16  N1  UNL     1     -17.467  -6.663  -9.207  1.00  0.00    -0.289 N 
HETATM   17  N2  UNL     1     -16.502  -6.127  -8.483  1.00  0.00    -0.242 N 
ATOM     18  H1  UNL     1     -17.997  -6.238  -9.968  1.00  0.00     0.188 HD
HETATM   19  N3  UNL     1     -16.059  -6.914  -7.625  1.00  0.00    -0.287 N 
ATOM     20  H2  UNL     1     -16.157  -5.176  -8.612  1.00  0.00     0.208 HD
ATOM     21  H3  UNL     1     -15.300  -6.691  -6.981  1.00  0.00     0.188 HD
ENDBRANCH  12  13
ENDBRANCH   1  12
TORSDOF 2
ENDMDL
MODEL 3
REMARK VINA RESULT: -4.856648624      1.633      4.759
REMARK  2 active torsions:
REMARK  status: ('A' for Active; 'I' for Inactive)
REMARK    1  A    between atoms: C3_9  and  C4_10 
REMARK    2  A    between atoms: C4_10  and  N4_11 
REMARK       I    between atoms: N4_11  and  C5_13 
REMARK       I    between atoms: C5_13  and  N5_14 
REMARK       I    between atoms: C5_13  and  N6_18 
ROOT
HETATM    1  N4  UNL     1     -16.706  -5.822  -9.442  1.00  0.00    -0.369 N 
ATOM      2  H4  UNL     1     -15.888  -5.220  -9.526  1.00  0.00     0.157 HD
HETATM    3  C5  UNL     1     -17.047  -6.301  -8.184  1.00  0.00     0.476 C 
HETATM    4  N5  UNL     1     -15.835  -7.005  -7.626  1.00  0.00    -0.033 N 
ATOM      5  H51 UNL     1     -16.086  -7.356  -6.702  1.00  0.00     0.278 HD
ATOM      6  H52 UNL     1     -15.002  -6.416  -7.616  1.00  0.00     0.278 HD
ATOM      7  H53 UNL     1     -15.477  -7.732  -8.246  1.00  0.00     0.278 HD
HETATM    8  N6  UNL     1     -18.106  -7.302  -8.205  1.00  0.00    -0.033 N 
ATOM      9  H61 UNL     1     -18.357  -7.653  -7.281  1.00  0.00     0.278 HD
ATOM     10  H62 UNL     1     -17.863  -8.071  -8.829  1.00  0.00     0.278 HD
ATOM     11  H63 UNL     1     -18.929  -6.944  -8.690  1.00  0.00     0.278 HD
ENDROOT
BRANCH   1  12
HETATM   12  C4  UNL     1     -17.437  -6.130 -10.608  1.00  0.00     0.178 C 
BRANCH  12  13
HETATM   13  C3  UNL     1     -16.594  -5.560 -11.758  1.00  0.00     0.068 A 
HETATM   14  C2  UNL     1     -16.822  -5.771 -13.105  1.00  0.00     0.049 A 
HETATM   15  C1  UNL     1     -18.003  -6.421 -13.710  1.00  0.00     0.072 C 
HETATM   16  N1  UNL     1     -15.723  -5.231 -13.773  1.00  0.00    -0.289 N 
HETATM   17  N2  UNL     1     -14.956  -4.791 -12.793  1.00  0.00    -0.242 N 
ATOM     18  H1  UNL     1     -15.553  -5.187 -14.778  1.00  0.00     0.188 HD
HETATM   19  N3  UNL     1     -15.454  -4.996 -11.670  1.00  0.00    -0.287 N 
ATOM     20  H2  UNL     1     -14.056  -4.334 -12.939  1.00  0.00     0.208 HD
ATOM     21  H3  UNL     1     -15.006  -4.743 -10.790  1.00  0.00     0.188 HD
ENDBRANCH  12  13
ENDBRANCH   1  12
TORSDOF 2
ENDMDL
MODEL 4
REMARK VINA RESULT: -4.651862438      1.737      4.535
REMARK  2 active torsions:
REMARK  status: ('A' for Active; 'I' for Inactive)
REMARK    1  A    between atoms: C3_9  and  C4_10 
REMARK    2  A    between atoms: C4_10  and  N4_11 
REMARK       I    between atoms: N4_11  and  C5_13 
REMARK       I    between atoms: C5_13  and  N5_14 
REMARK       I    between atoms: C5_13  and  N6_18 
ROOT
HETATM    1  N4  UNL     1     -17.988  -6.799  -9.642  1.00  0.00    -0.369 N 
ATOM      2  H4  UNL     1     -17.818  -5.884  -9.226  1.00  0.00     0.157 HD
HETATM    3  C5  UNL     1     -18.056  -7.903  -8.803  1.00  0.00     0.476 C 
HETATM    4  N5  UNL     1     -16.780  -7.937  -7.999  1.00  0.00    -0.033 N 
ATOM      5  H51 UNL     1     -16.830  -8.748  -7.383  1.00  0.00     0.278 HD
ATOM      6  H52 UNL     1     -16.602  -7.067  -7.499  1.00  0.00     0.278 HD
ATOM      7  H53 UNL     1     -15.942  -7.930  -8.582  1.00  0.00     0.278 HD
HETATM    8  N6  UNL     1     -18.106  -9.176  -9.513  1.00  0.00    -0.033 N 
ATOM      9  H61 UNL     1     -18.156  -9.987  -8.896  1.00  0.00     0.278 HD
ATOM     10  H62 UNL     1     -17.319  -9.261 -10.156  1.00  0.00     0.278 HD
ATOM     11  H63 UNL     1     -18.875  -9.184 -10.182  1.00  0.00     0.278 HD
ENDROOT
BRANCH   1  12
HETATM   12  C4  UNL     1     -18.143  -6.883 -11.041  1.00  0.00     0.178 C 
BRANCH  12  13
HETATM   13  C3  UNL     1     -17.048  -5.969 -11.610  1.00  0.00     0.068 A 
HETATM   14  C2  UNL     1     -16.647  -5.920 -12.932  1.00  0.00     0.049 A 
HETATM   15  C1  UNL     1     -17.299  -6.587 -14.078  1.00  0.00     0.072 C 
HETATM   16  N1  UNL     1     -15.518  -5.102 -12.964  1.00  0.00    -0.289 N 
HETATM   17  N2  UNL     1     -15.341  -4.776 -11.697  1.00  0.00    -0.242 N 
ATOM     18  H1  UNL     1     -14.962  -4.823 -13.772  1.00  0.00     0.188 HD
HETATM   19  N3  UNL     1     -16.201  -5.282 -10.951  1.00  0.00    -0.287 N 
ATOM     20  H2  UNL     1     -14.585  -4.176 -11.366  1.00  0.00     0.208 HD
ATOM     21  H3  UNL     1     -16.224  -5.161  -9.939  1.00  0.00     0.188 HD
ENDBRANCH  12  13
ENDBRANCH   1  12
TORSDOF 2
ENDMDL
MODEL 5
REMARK VINA RESULT: -4.637707636      2.839      5.608
REMARK  2 active torsions:
REMARK  status: ('A' for Active; 'I' for Inactive)
REMARK    1  A    between atoms: C3_9  and  C4_10 
REMARK    2  A    between atoms: C4_10  and  N4_11 
REMARK       I    between atoms: N4_11  and  C5_13 
REMARK       I    between atoms: C5_13  and  N5_14 
REMARK       I    between atoms: C5_13  and  N6_18 
ROOT
HETATM    1  N4  UNL     1     -15.900  -7.098  -7.584  1.00  0.00    -0.369 N 
ATOM      2  H4  UNL     1     -15.094  -6.953  -8.192  1.00  0.00     0.157 HD
HETATM    3  C5  UNL     1     -15.837  -8.109  -6.634  1.00  0.00     0.476 C 
HETATM    4  N5  UNL     1     -15.510  -9.390  -7.361  1.00  0.00    -0.033 N 
ATOM      5  H51 UNL     1     -15.463 -10.132  -6.663  1.00  0.00     0.278 HD
ATOM      6  H52 UNL     1     -14.664  -9.322  -7.927  1.00  0.00     0.278 HD
ATOM      7  H53 UNL     1     -16.161  -9.595  -8.119  1.00  0.00     0.278 HD
HETATM    8  N6  UNL     1     -17.103  -8.355  -5.957  1.00  0.00    -0.033 N 
ATOM      9  H61 UNL     1     -17.057  -9.098  -5.259  1.00  0.00     0.278 HD
ATOM     10  H62 UNL     1     -17.844  -8.543  -6.633  1.00  0.00     0.278 HD
ATOM     11  H63 UNL     1     -17.464  -7.495  -5.544  1.00  0.00     0.278 HD
ENDROOT
BRANCH   1  12
HETATM   12  C4  UNL     1     -17.024  -6.262  -7.747  1.00  0.00     0.178 C 
BRANCH  12  13
HETATM   13  C3  UNL     1     -17.275  -6.239  -9.261  1.00  0.00     0.068 A 
HETATM   14  C2  UNL     1     -17.990  -7.185  -9.973  1.00  0.00     0.049 A 
HETATM   15  C1  UNL     1     -18.796  -8.289  -9.413  1.00  0.00     0.072 C 
HETATM   16  N1  UNL     1     -17.808  -6.874 -11.321  1.00  0.00    -0.289 N 
HETATM   17  N2  UNL     1     -17.007  -5.825 -11.287  1.00  0.00    -0.242 N 
ATOM     18  H1  UNL     1     -18.201  -7.343 -12.136  1.00  0.00     0.188 HD
HETATM   19  N3  UNL     1     -16.708  -5.492 -10.125  1.00  0.00    -0.287 N 
ATOM     20  H2  UNL     1     -16.669  -5.342 -12.120  1.00  0.00     0.208 HD
ATOM     21  H3  UNL     1     -16.087  -4.718  -9.893  1.00  0.00     0.188 HD
ENDBRANCH  12  13
ENDBRANCH   1  12
TORSDOF 2
ENDMDL
