MODEL 1
REMARK VINA RESULT: -4.578916546      0.000      0.000
REMARK  5 active torsions:
REMARK  status: ('A' for Active; 'I' for Inactive)
REMARK    1  A    between atoms: N1_1  and  C1_5 
REMARK    2  A    between atoms: C1_5  and  C2_6 
REMARK    3  A    between atoms: C2_6  and  N2_7 
REMARK    4  A    between atoms: C2_6  and  C3_11 
REMARK    5  A    between atoms: C3_11  and  N3_12 
ROOT
HETATM    1  C2  UNL     1     -16.867  -6.810  -7.076  1.00  0.00     0.228 C 
ENDROOT
BRANCH   1   2
HETATM    2  C1  UNL     1     -16.554  -8.197  -6.600  1.00  0.00     0.264 C 
BRANCH   2   3
HETATM    3  N1  UNL     1     -15.196  -8.507  -7.009  1.00  0.00    -0.077 N 
ATOM      4  H13 UNL     1     -14.943  -8.081  -7.901  1.00  0.00     0.274 HD
ATOM      5  H12 UNL     1     -14.493  -8.042  -6.435  1.00  0.00     0.274 HD
ATOM      6  H11 UNL     1     -15.098  -9.523  -7.013  1.00  0.00     0.274 HD
ENDBRANCH   2   3
ENDBRANCH   1   2
BRANCH   1   7
HETATM    7  N2  UNL     1     -17.073  -5.976  -5.885  1.00  0.00    -0.072 N 
ATOM      8  H23 UNL     1     -17.566  -6.463  -5.137  1.00  0.00     0.274 HD
ATOM      9  H22 UNL     1     -16.210  -5.789  -5.374  1.00  0.00     0.274 HD
ATOM     10  H21 UNL     1     -17.549  -5.126  -6.189  1.00  0.00     0.274 HD
ENDBRANCH   1   7
BRANCH   1  11
HETATM   11  C3  UNL     1     -18.157  -6.756  -7.874  1.00  0.00     0.182 C 
BRANCH  11  12
HETATM   12  N3  UNL     1     -17.818  -6.575  -9.297  1.00  0.00    -0.300 N 
HETATM   13  C4  UNL     1     -18.441  -7.121 -10.352  1.00  0.00     0.113 A 
HETATM   14  C5  UNL     1     -17.821  -6.705 -11.507  1.00  0.00     0.065 A 
HETATM   15  C6  UNL     1     -16.789  -5.879 -11.117  1.00  0.00     0.132 A 
HETATM   16  N4  UNL     1     -15.884  -5.225 -12.005  1.00  0.00    -0.081 NA
HETATM   17  N5  UNL     1     -16.839  -5.841  -9.791  1.00  0.00    -0.286 N 
ATOM     18  H5  UNL     1     -16.191  -5.302  -9.217  1.00  0.00     0.188 HD
ENDBRANCH  11  12
ENDBRANCH   1  11
TORSDOF 5
ENDMDL
MODEL 2
REMARK VINA RESULT: -4.477150813      1.441      1.611
REMARK  5 active torsions:
REMARK  status: ('A' for Active; 'I' for Inactive)
REMARK    1  A    between atoms: N1_1  and  C1_5 
REMARK    2  A    between atoms: C1_5  and  C2_6 
REMARK    3  A    between atoms: C2_6  and  N2_7 
REMARK    4  A    between atoms: C2_6  and  C3_11 
REMARK    5  A    between atoms: C3_11  and  N3_12 
ROOT
HETATM    1  C2  UNL     1     -15.963  -8.556  -7.095  1.00  0.00     0.228 C 
ENDROOT
BRANCH   1   2
HETATM    2  C1  UNL     1     -15.407  -9.889  -6.691  1.00  0.00     0.264 C 
BRANCH   2   3
HETATM    3  N1  UNL     1     -13.959  -9.783  -6.701  1.00  0.00    -0.077 N 
ATOM      4  H13 UNL     1     -13.571  -9.567  -5.783  1.00  0.00     0.274 HD
ATOM      5  H12 UNL     1     -13.497 -10.683  -6.833  1.00  0.00     0.274 HD
ATOM      6  H11 UNL     1     -13.704  -9.097  -7.411  1.00  0.00     0.274 HD
ENDBRANCH   2   3
ENDBRANCH   1   2
BRANCH   1   7
HETATM    7  N2  UNL     1     -16.030  -7.726  -5.885  1.00  0.00    -0.072 N 
ATOM      8  H23 UNL     1     -15.899  -8.261  -5.027  1.00  0.00     0.274 HD
ATOM      9  H22 UNL     1     -15.226  -7.108  -5.779  1.00  0.00     0.274 HD
ATOM     10  H21 UNL     1     -16.919  -7.225  -5.910  1.00  0.00     0.274 HD
ENDBRANCH   1   7
BRANCH   1  11
HETATM   11  C3  UNL     1     -17.379  -8.664  -7.628  1.00  0.00     0.182 C 
BRANCH  11  12
HETATM   12  N3  UNL     1     -17.508  -7.774  -8.796  1.00  0.00    -0.300 N 
HETATM   13  C4  UNL     1     -18.241  -7.988  -9.899  1.00  0.00     0.113 A 
HETATM   14  C5  UNL     1     -18.094  -6.920 -10.753  1.00  0.00     0.065 A 
HETATM   15  C6  UNL     1     -17.238  -6.039 -10.127  1.00  0.00     0.132 A 
HETATM   16  N4  UNL     1     -16.812  -4.789 -10.668  1.00  0.00    -0.081 NA
HETATM   17  N5  UNL     1     -16.924  -6.603  -8.968  1.00  0.00    -0.286 N 
ATOM     18  H5  UNL     1     -16.300  -6.177  -8.283  1.00  0.00     0.188 HD
ENDBRANCH  11  12
ENDBRANCH   1  11
TORSDOF 5
ENDMDL
MODEL 3
REMARK VINA RESULT: -4.376561774      1.641      2.273
REMARK  5 active torsions:
REMARK  status: ('A' for Active; 'I' for Inactive)
REMARK    1  A    between atoms: N1_1  and  C1_5 
REMARK    2  A    between atoms: C1_5  and  C2_6 
REMARK    3  A    between atoms: C2_6  and  N2_7 
REMARK    4  A    between atoms: C2_6  and  C3_11 
REMARK    5  A    between atoms: C3_11  and  N3_12 
ROOT
HETATM    1  C2  UNL     1     -16.228  -9.230  -6.935  1.00  0.00     0.228 C 
ENDROOT
BRANCH   1   2
HETATM    2  C1  UNL     1     -16.721 -10.180  -5.885  1.00  0.00     0.264 C 
BRANCH   2   3
HETATM    3  N1  UNL     1     -18.170 -10.222  -5.975  1.00  0.00    -0.077 N 
ATOM      4  H13 UNL     1     -18.629 -10.033  -5.083  1.00  0.00     0.274 HD
ATOM      5  H12 UNL     1     -18.558  -9.435  -6.494  1.00  0.00     0.274 HD
ATOM      6  H11 UNL     1     -18.429 -11.127  -6.370  1.00  0.00     0.274 HD
ENDBRANCH   2   3
ENDBRANCH   1   2
BRANCH   1   7
HETATM    7  N2  UNL     1     -14.773  -9.117  -6.772  1.00  0.00    -0.072 N 
ATOM      8  H23 UNL     1     -14.433  -8.161  -6.870  1.00  0.00     0.274 HD
ATOM      9  H22 UNL     1     -14.466  -9.268  -5.811  1.00  0.00     0.274 HD
ATOM     10  H21 UNL     1     -14.342  -9.763  -7.435  1.00  0.00     0.274 HD
ENDBRANCH   1   7
BRANCH   1  11
HETATM   11  C3  UNL     1     -16.796  -7.835  -6.756  1.00  0.00     0.182 C 
BRANCH  11  12
HETATM   12  N3  UNL     1     -17.121  -7.289  -8.086  1.00  0.00    -0.300 N 
HETATM   13  C4  UNL     1     -17.969  -7.808  -8.988  1.00  0.00     0.113 A 
HETATM   14  C5  UNL     1     -17.994  -7.001 -10.101  1.00  0.00     0.065 A 
HETATM   15  C6  UNL     1     -17.124  -5.962  -9.846  1.00  0.00     0.132 A 
HETATM   16  N4  UNL     1     -16.845  -4.888 -10.743  1.00  0.00    -0.081 NA
HETATM   17  N5  UNL     1     -16.637  -6.189  -8.632  1.00  0.00    -0.286 N 
ATOM     18  H5  UNL     1     -15.961  -5.580  -8.171  1.00  0.00     0.188 HD
ENDBRANCH  11  12
ENDBRANCH   1  11
TORSDOF 5
ENDMDL
MODEL 4
REMARK VINA RESULT: -4.335059847      0.965      1.603
REMARK  5 active torsions:
REMARK  status: ('A' for Active; 'I' for Inactive)
REMARK    1  A    between atoms: N1_1  and  C1_5 
REMARK    2  A    between atoms: C1_5  and  C2_6 
REMARK    3  A    between atoms: C2_6  and  N2_7 
REMARK    4  A    between atoms: C2_6  and  C3_11 
REMARK    5  A    between atoms: C3_11  and  N3_12 
ROOT
HETATM    1  C2  UNL     1     -16.932  -7.783  -7.256  1.00  0.00     0.228 C 
ENDROOT
BRANCH   1   2
HETATM    2  C1  UNL     1     -17.552  -8.079  -5.922  1.00  0.00     0.264 C 
BRANCH   2   3
HETATM    3  N1  UNL     1     -18.879  -7.492  -5.913  1.00  0.00    -0.077 N 
ATOM      4  H13 UNL     1     -19.374  -7.642  -5.034  1.00  0.00     0.274 HD
ATOM      5  H12 UNL     1     -18.861  -6.472  -5.884  1.00  0.00     0.274 HD
ATOM      6  H11 UNL     1     -19.385  -7.857  -6.721  1.00  0.00     0.274 HD
ENDBRANCH   2   3
ENDBRANCH   1   2
BRANCH   1   7
HETATM    7  N2  UNL     1     -15.476  -7.890  -7.094  1.00  0.00    -0.072 N 
ATOM      8  H23 UNL     1     -15.061  -7.065  -6.662  1.00  0.00     0.274 HD
ATOM      9  H22 UNL     1     -15.203  -8.564  -6.379  1.00  0.00     0.274 HD
ATOM     10  H21 UNL     1     -15.084  -8.100  -8.012  1.00  0.00     0.274 HD
ENDBRANCH   1   7
BRANCH   1  11
HETATM   11  C3  UNL     1     -17.216  -6.365  -7.716  1.00  0.00     0.182 C 
BRANCH  11  12
HETATM   12  N3  UNL     1     -17.308  -6.362  -9.187  1.00  0.00    -0.300 N 
HETATM   13  C4  UNL     1     -18.152  -7.078  -9.945  1.00  0.00     0.113 A 
HETATM   14  C5  UNL     1     -17.922  -6.791 -11.271  1.00  0.00     0.065 A 
HETATM   15  C6  UNL     1     -16.898  -5.867 -11.295  1.00  0.00     0.132 A 
HETATM   16  N4  UNL     1     -16.340  -5.295 -12.476  1.00  0.00    -0.081 NA
HETATM   17  N5  UNL     1     -16.576  -5.652 -10.025  1.00  0.00    -0.286 N 
ATOM     18  H5  UNL     1     -15.843  -5.008  -9.729  1.00  0.00     0.188 HD
ENDBRANCH  11  12
ENDBRANCH   1  11
TORSDOF 5
ENDMDL
MODEL 5
REMARK VINA RESULT: -4.280627487      2.209      5.454
REMARK  5 active torsions:
REMARK  status: ('A' for Active; 'I' for Inactive)
REMARK    1  A    between atoms: N1_1  and  C1_5 
REMARK    2  A    between atoms: C1_5  and  C2_6 
REMARK    3  A    between atoms: C2_6  and  N2_7 
REMARK    4  A    between atoms: C2_6  and  C3_11 
REMARK    5  A    between atoms: C3_11  and  N3_12 
ROOT
HETATM    1  C2  UNL     1     -17.390  -6.490 -13.712  1.00  0.00     0.228 C 
ENDROOT
BRANCH   1   2
HETATM    2  C1  UNL     1     -16.780  -6.301 -15.069  1.00  0.00     0.264 C 
BRANCH   2   3
HETATM    3  N1  UNL     1     -16.404  -4.904 -15.191  1.00  0.00    -0.077 N 
ATOM      4  H13 UNL     1     -16.957  -4.403 -15.886  1.00  0.00     0.274 HD
ATOM      5  H12 UNL     1     -16.674  -4.348 -14.379  1.00  0.00     0.274 HD
ATOM      6  H11 UNL     1     -15.402  -4.869 -15.381  1.00  0.00     0.274 HD
ENDBRANCH   2   3
ENDBRANCH   1   2
BRANCH   1   7
HETATM    7  N2  UNL     1     -18.789  -6.052 -13.797  1.00  0.00    -0.072 N 
ATOM      8  H23 UNL     1     -18.982  -5.221 -13.238  1.00  0.00     0.274 HD
ATOM      9  H22 UNL     1     -19.029  -5.657 -14.706  1.00  0.00     0.274 HD
ATOM     10  H21 UNL     1     -19.373  -6.848 -13.540  1.00  0.00     0.274 HD
ENDBRANCH   1   7
BRANCH   1  11
HETATM   11  C3  UNL     1     -16.725  -5.623 -12.660  1.00  0.00     0.182 C 
BRANCH  11  12
HETATM   12  N3  UNL     1     -17.146  -6.097 -11.329  1.00  0.00    -0.300 N 
HETATM   13  C4  UNL     1     -17.980  -7.113 -11.060  1.00  0.00     0.113 A 
HETATM   14  C5  UNL     1     -18.116  -7.236  -9.697  1.00  0.00     0.065 A 
HETATM   15  C6  UNL     1     -17.329  -6.251  -9.139  1.00  0.00     0.132 A 
HETATM   16  N4  UNL     1     -17.178  -6.020  -7.739  1.00  0.00    -0.081 NA
HETATM   17  N5  UNL     1     -16.778  -5.607 -10.160  1.00  0.00    -0.286 N 
ATOM     18  H5  UNL     1     -16.139  -4.820 -10.053  1.00  0.00     0.188 HD
ENDBRANCH  11  12
ENDBRANCH   1  11
TORSDOF 5
ENDMDL
