MODEL 1
REMARK VINA RESULT: -4.656132892      0.000      0.000
REMARK  5 active torsions:
REMARK  status: ('A' for Active; 'I' for Inactive)
REMARK    1  A    between atoms: C2_2  and  N1_3 
REMARK    2  A    between atoms: N1_3  and  C3_5 
REMARK    3  A    between atoms: C4_8  and  C5_9 
REMARK    4  A    between atoms: C5_9  and  N3_10 
REMARK    5  A    between atoms: N4_14  and  N5_15 
ROOT
HETATM    1  C3  UNL     1     -16.967  -5.960 -14.048  1.00  0.00     0.695 A 
HETATM    2  N2  UNL     1     -17.905  -6.672 -13.402  1.00  0.00    -0.174 N 
ATOM      3  H2  UNL     1     -18.614  -7.258 -13.843  1.00  0.00     0.185 HD
HETATM    4  C4  UNL     1     -17.754  -6.484 -12.077  1.00  0.00     0.163 A 
HETATM    5  N4  UNL     1     -16.722  -5.655 -11.922  1.00  0.00    -0.174 N 
HETATM    6  N6  UNL     1     -16.223  -5.320 -13.126  1.00  0.00    -0.110 N 
ATOM      7  H6  UNL     1     -15.433  -4.701 -13.306  1.00  0.00     0.208 HD
ENDROOT
BRANCH   4   8
HETATM    8  C5  UNL     1     -18.547  -7.057 -10.963  1.00  0.00     0.310 C 
BRANCH   8   9
HETATM    9  N3  UNL     1     -17.933  -8.213 -10.378  1.00  0.00    -0.072 N 
ATOM     10  H33 UNL     1     -18.421  -8.494  -9.528  1.00  0.00     0.274 HD
ATOM     11  H32 UNL     1     -18.100  -9.042 -10.949  1.00  0.00     0.274 HD
ATOM     12  H31 UNL     1     -16.936  -8.086 -10.203  1.00  0.00     0.274 HD
ENDBRANCH   8   9
ENDBRANCH   4   8
BRANCH   5  13
HETATM   13  N5  UNL     1     -16.217  -5.191 -10.711  1.00  0.00    -0.322 N 
ATOM     14  H52 UNL     1     -16.535  -5.512  -9.797  1.00  0.00     0.179 HD
ATOM     15  H51 UNL     1     -15.485  -4.490 -10.593  1.00  0.00     0.179 HD
ENDBRANCH   5  13
BRANCH   1  16
HETATM   16  N1  UNL     1     -16.781  -5.877 -15.315  1.00  0.00    -0.225 N 
ATOM     17  H1  UNL     1     -15.925  -6.258 -15.718  1.00  0.00     0.177 HD
BRANCH  16  18
HETATM   18  C2  UNL     1     -17.756  -5.254 -16.190  1.00  0.00     0.134 C 
HETATM   19  C1  UNL     1     -17.442  -3.757 -16.176  1.00  0.00     0.027 C 
ENDBRANCH  16  18
ENDBRANCH   1  16
TORSDOF 5
ENDMDL
MODEL 2
REMARK VINA RESULT: -4.436166240      1.405      2.147
REMARK  5 active torsions:
REMARK  status: ('A' for Active; 'I' for Inactive)
REMARK    1  A    between atoms: C2_2  and  N1_3 
REMARK    2  A    between atoms: N1_3  and  C3_5 
REMARK    3  A    between atoms: C4_8  and  C5_9 
REMARK    4  A    between atoms: C5_9  and  N3_10 
REMARK    5  A    between atoms: N4_14  and  N5_15 
ROOT
HETATM    1  C3  UNL     1     -17.116  -6.016 -11.861  1.00  0.00     0.695 A 
HETATM    2  N2  UNL     1     -18.002  -6.963 -11.516  1.00  0.00    -0.174 N 
ATOM      3  H2  UNL     1     -18.575  -7.505 -12.163  1.00  0.00     0.185 HD
HETATM    4  C4  UNL     1     -18.011  -7.079 -10.173  1.00  0.00     0.163 A 
HETATM    5  N4  UNL     1     -17.127  -6.197  -9.707  1.00  0.00    -0.174 N 
HETATM    6  N6  UNL     1     -16.564  -5.532 -10.732  1.00  0.00    -0.110 N 
ATOM      7  H6  UNL     1     -15.855  -4.801 -10.667  1.00  0.00     0.208 HD
ENDROOT
BRANCH   4   8
HETATM    8  C5  UNL     1     -18.821  -7.987  -9.326  1.00  0.00     0.310 C 
BRANCH   8   9
HETATM    9  N3  UNL     1     -18.311  -9.326  -9.298  1.00  0.00    -0.072 N 
ATOM     10  H33 UNL     1     -18.011  -9.621 -10.227  1.00  0.00     0.274 HD
ATOM     11  H32 UNL     1     -17.414  -9.364  -8.813  1.00  0.00     0.274 HD
ATOM     12  H31 UNL     1     -18.971  -9.993  -8.898  1.00  0.00     0.274 HD
ENDBRANCH   8   9
ENDBRANCH   4   8
BRANCH   5  13
HETATM   13  N5  UNL     1     -16.814  -5.979  -8.368  1.00  0.00    -0.322 N 
ATOM     14  H52 UNL     1     -17.416  -5.481  -7.713  1.00  0.00     0.179 HD
ATOM     15  H51 UNL     1     -15.964  -6.282  -7.891  1.00  0.00     0.179 HD
ENDBRANCH   5  13
BRANCH   1  16
HETATM   16  N1  UNL     1     -16.819  -5.613 -13.043  1.00  0.00    -0.225 N 
ATOM     17  H1  UNL     1     -16.358  -4.711 -13.160  1.00  0.00     0.177 HD
BRANCH  16  18
HETATM   18  C2  UNL     1     -17.122  -6.408 -14.218  1.00  0.00     0.134 C 
HETATM   19  C1  UNL     1     -17.450  -5.410 -15.331  1.00  0.00     0.027 C 
ENDBRANCH  16  18
ENDBRANCH   1  16
TORSDOF 5
ENDMDL
MODEL 3
REMARK VINA RESULT: -4.382831752      1.938      3.223
REMARK  5 active torsions:
REMARK  status: ('A' for Active; 'I' for Inactive)
REMARK    1  A    between atoms: C2_2  and  N1_3 
REMARK    2  A    between atoms: N1_3  and  C3_5 
REMARK    3  A    between atoms: C4_8  and  C5_9 
REMARK    4  A    between atoms: C5_9  and  N3_10 
REMARK    5  A    between atoms: N4_14  and  N5_15 
ROOT
HETATM    1  C3  UNL     1     -17.346  -6.181 -11.457  1.00  0.00     0.695 A 
HETATM    2  N2  UNL     1     -16.768  -5.750 -10.325  1.00  0.00    -0.174 N 
ATOM      3  H2  UNL     1     -16.055  -5.023 -10.260  1.00  0.00     0.185 HD
HETATM    4  C4  UNL     1     -17.286  -6.437  -9.287  1.00  0.00     0.163 A 
HETATM    5  N4  UNL     1     -18.178  -7.286  -9.796  1.00  0.00    -0.174 N 
HETATM    6  N6  UNL     1     -18.230  -7.143 -11.134  1.00  0.00    -0.110 N 
ATOM      7  H6  UNL     1     -18.825  -7.664 -11.778  1.00  0.00     0.208 HD
ENDROOT
BRANCH   4   8
HETATM    8  C5  UNL     1     -16.966  -6.317  -7.844  1.00  0.00     0.310 C 
BRANCH   8   9
HETATM    9  N3  UNL     1     -15.794  -7.052  -7.471  1.00  0.00    -0.072 N 
ATOM     10  H33 UNL     1     -15.723  -7.920  -8.003  1.00  0.00     0.274 HD
ATOM     11  H32 UNL     1     -14.949  -6.585  -7.800  1.00  0.00     0.274 HD
ATOM     12  H31 UNL     1     -15.743  -7.234  -6.468  1.00  0.00     0.274 HD
ENDBRANCH   8   9
ENDBRANCH   4   8
BRANCH   5  13
HETATM   13  N5  UNL     1     -18.953  -8.191  -9.077  1.00  0.00    -0.322 N 
ATOM     14  H52 UNL     1     -18.606  -8.747  -8.295  1.00  0.00     0.179 HD
ATOM     15  H51 UNL     1     -19.937  -8.404  -9.240  1.00  0.00     0.179 HD
ENDBRANCH   5  13
BRANCH   1  16
HETATM   16  N1  UNL     1     -17.122  -5.775 -12.655  1.00  0.00    -0.225 N 
ATOM     17  H1  UNL     1     -16.595  -4.914 -12.797  1.00  0.00     0.177 HD
BRANCH  16  18
HETATM   18  C2  UNL     1     -17.599  -6.510 -13.811  1.00  0.00     0.134 C 
HETATM   19  C1  UNL     1     -16.866  -5.921 -15.018  1.00  0.00     0.027 C 
ENDBRANCH  16  18
ENDBRANCH   1  16
TORSDOF 5
ENDMDL
MODEL 4
REMARK VINA RESULT: -4.263789442      1.214      4.565
REMARK  5 active torsions:
REMARK  status: ('A' for Active; 'I' for Inactive)
REMARK    1  A    between atoms: C2_2  and  N1_3 
REMARK    2  A    between atoms: N1_3  and  C3_5 
REMARK    3  A    between atoms: C4_8  and  C5_9 
REMARK    4  A    between atoms: C5_9  and  N3_10 
REMARK    5  A    between atoms: N4_14  and  N5_15 
ROOT
HETATM    1  C3  UNL     1     -17.953  -6.559 -11.915  1.00  0.00     0.695 A 
HETATM    2  N2  UNL     1     -18.089  -6.616 -13.249  1.00  0.00    -0.174 N 
ATOM      3  H2  UNL     1     -18.865  -7.048 -13.750  1.00  0.00     0.185 HD
HETATM    4  C4  UNL     1     -17.030  -6.006 -13.817  1.00  0.00     0.163 A 
HETATM    5  N4  UNL     1     -16.252  -5.581 -12.822  1.00  0.00    -0.174 N 
HETATM    6  N6  UNL     1     -16.805  -5.913 -11.640  1.00  0.00    -0.110 N 
ATOM      7  H6  UNL     1     -16.426  -5.713 -10.715  1.00  0.00     0.208 HD
ENDROOT
BRANCH   4   8
HETATM    8  C5  UNL     1     -16.733  -5.815 -15.258  1.00  0.00     0.310 C 
BRANCH   8   9
HETATM    9  N3  UNL     1     -16.867  -4.452 -15.678  1.00  0.00    -0.072 N 
ATOM     10  H33 UNL     1     -17.849  -4.181 -15.729  1.00  0.00     0.274 HD
ATOM     11  H32 UNL     1     -16.555  -3.813 -14.947  1.00  0.00     0.274 HD
ATOM     12  H31 UNL     1     -16.388  -4.260 -16.558  1.00  0.00     0.274 HD
ENDBRANCH   8   9
ENDBRANCH   4   8
BRANCH   5  13
HETATM   13  N5  UNL     1     -15.048  -4.896 -12.956  1.00  0.00    -0.322 N 
ATOM     14  H52 UNL     1     -14.162  -5.338 -13.201  1.00  0.00     0.179 HD
ATOM     15  H51 UNL     1     -14.909  -3.893 -12.830  1.00  0.00     0.179 HD
ENDBRANCH   5  13
BRANCH   1  16
HETATM   16  N1  UNL     1     -18.752  -7.027 -11.025  1.00  0.00    -0.225 N 
ATOM     17  H1  UNL     1     -19.711  -7.254 -11.288  1.00  0.00     0.177 HD
BRANCH  16  18
HETATM   18  C2  UNL     1     -18.327  -7.241  -9.655  1.00  0.00     0.134 C 
HETATM   19  C1  UNL     1     -18.461  -8.744  -9.400  1.00  0.00     0.027 C 
ENDBRANCH  16  18
ENDBRANCH   1  16
TORSDOF 5
ENDMDL
MODEL 5
REMARK VINA RESULT: -4.153592944      1.182      2.051
REMARK  5 active torsions:
REMARK  status: ('A' for Active; 'I' for Inactive)
REMARK    1  A    between atoms: C2_2  and  N1_3 
REMARK    2  A    between atoms: N1_3  and  C3_5 
REMARK    3  A    between atoms: C4_8  and  C5_9 
REMARK    4  A    between atoms: C5_9  and  N3_10 
REMARK    5  A    between atoms: N4_14  and  N5_15 
ROOT
HETATM    1  C3  UNL     1     -17.443  -6.017 -14.218  1.00  0.00     0.695 A 
HETATM    2  N2  UNL     1     -16.789  -6.046 -13.046  1.00  0.00    -0.174 N 
ATOM      3  H2  UNL     1     -15.789  -5.894 -12.920  1.00  0.00     0.185 HD
HETATM    4  C4  UNL     1     -17.674  -6.308 -12.064  1.00  0.00     0.163 A 
HETATM    5  N4  UNL     1     -18.866  -6.439 -12.647  1.00  0.00    -0.174 N 
HETATM    6  N6  UNL     1     -18.744  -6.263 -13.976  1.00  0.00    -0.110 N 
ATOM      7  H6  UNL     1     -19.494  -6.307 -14.666  1.00  0.00     0.208 HD
ENDROOT
BRANCH   4   8
HETATM    8  C5  UNL     1     -17.431  -6.438 -10.607  1.00  0.00     0.310 C 
BRANCH   8   9
HETATM    9  N3  UNL     1     -16.576  -5.410 -10.091  1.00  0.00    -0.072 N 
ATOM     10  H33 UNL     1     -16.498  -5.476  -9.076  1.00  0.00     0.274 HD
ATOM     11  H32 UNL     1     -15.604  -5.583 -10.345  1.00  0.00     0.274 HD
ATOM     12  H31 UNL     1     -16.866  -4.474 -10.375  1.00  0.00     0.274 HD
ENDBRANCH   8   9
ENDBRANCH   4   8
BRANCH   5  13
HETATM   13  N5  UNL     1     -20.069  -6.714 -12.002  1.00  0.00    -0.322 N 
ATOM     14  H52 UNL     1     -20.902  -6.130 -12.073  1.00  0.00     0.179 HD
ATOM     15  H51 UNL     1     -20.258  -7.512 -11.396  1.00  0.00     0.179 HD
ENDBRANCH   5  13
BRANCH   1  16
HETATM   16  N1  UNL     1     -16.952  -5.799 -15.384  1.00  0.00    -0.225 N 
ATOM     17  H1  UNL     1     -16.001  -6.107 -15.588  1.00  0.00     0.177 HD
BRANCH  16  18
HETATM   18  C2  UNL     1     -17.713  -5.127 -16.420  1.00  0.00     0.134 C 
HETATM   19  C1  UNL     1     -17.454  -3.630 -16.231  1.00  0.00     0.027 C 
ENDBRANCH  16  18
ENDBRANCH   1  16
TORSDOF 5
ENDMDL
