MODEL 1
REMARK VINA RESULT: -7.630356213      0.000      0.000
REMARK  10 active torsions:
REMARK  status: ('A' for Active; 'I' for Inactive)
REMARK    1  A    between atoms: C2_2  and  C4_4 
REMARK    2  A    between atoms: C5_5  and  C6_6 
REMARK    3  A    between atoms: C6_6  and  C8_8 
REMARK    4  A    between atoms: C9_10  and  C10_11 
REMARK    5  A    between atoms: C10_11  and  C13_14 
REMARK    6  A    between atoms: C13_14  and  O2_15 
REMARK    7  A    between atoms: C13_14  and  C14_17 
REMARK    8  A    between atoms: C17_22  and  O5_23 
REMARK    9  A    between atoms: C18_25  and  O6_26 
REMARK   10  A    between atoms: C19_28  and  O7_29 
ROOT
HETATM    1  C8  UNL     1      16.988  -9.707  24.404  1.00  0.00     0.141 C 
HETATM    2  O1  UNL     1      15.913  -8.957  24.886  1.00  0.00    -0.377 OA
HETATM    3  C9  UNL     1      15.889  -9.482  26.206  1.00  0.00     0.144 C 
HETATM    4  C15 UNL     1      17.177  -9.160  26.714  1.00  0.00     0.024 C 
HETATM    5  C16 UNL     1      17.615 -10.362  27.605  1.00  0.00     0.021 C 
HETATM    6  C17 UNL     1      17.677  -7.991  27.385  1.00  0.00     0.161 C 
HETATM    7  C18 UNL     1      17.865  -6.677  26.663  1.00  0.00     0.183 C 
HETATM    8  C19 UNL     1      17.894  -6.814  25.159  1.00  0.00     0.219 C 
HETATM    9  C20 UNL     1      18.625  -8.094  24.970  1.00  0.00     0.165 C 
HETATM   10  O8  UNL     1      19.709  -8.080  24.424  1.00  0.00    -0.295 OA
HETATM   11  C21 UNL     1      18.037  -9.353  25.440  1.00  0.00     0.101 C 
ENDROOT
BRANCH   3  12
HETATM   12  C10 UNL     1      14.561  -9.371  26.761  1.00  0.00     0.015 C 
HETATM   13  C11 UNL     1      14.378  -8.614  28.052  1.00  0.00     0.020 C 
HETATM   14  C12 UNL     1      13.868 -10.715  26.959  1.00  0.00     0.020 C 
BRANCH  12  15
HETATM   15  C13 UNL     1      13.752  -8.536  25.750  1.00  0.00     0.229 C 
BRANCH  15  16
HETATM   16  O2  UNL     1      14.013  -7.178  25.855  1.00  0.00    -0.384 OA
ATOM     17  H2  UNL     1      14.726  -6.901  25.292  1.00  0.00     0.210 HD
ENDBRANCH  15  16
BRANCH  15  18
HETATM   18  C14 UNL     1      12.300  -8.753  25.735  1.00  0.00     0.203 C 
HETATM   19  O3  UNL     1      11.812  -9.653  24.802  1.00  0.00    -0.646 OA
HETATM   20  O4  UNL     1      11.518  -7.601  25.840  1.00  0.00    -0.646 OA
ENDBRANCH  15  18
ENDBRANCH  12  15
ENDBRANCH   3  12
BRANCH   1  21
HETATM   21  C6  UNL     1      17.418  -9.353  23.017  1.00  0.00     0.033 C 
HETATM   22  C7  UNL     1      17.762 -10.676  22.328  1.00  0.00     0.017 C 
BRANCH  21  23
HETATM   23  C5  UNL     1      16.287  -8.712  22.312  1.00  0.00    -0.024 C 
HETATM   24  C4  UNL     1      16.505  -7.696  21.505  1.00  0.00    -0.026 C 
BRANCH  24  25
HETATM   25  C2  UNL     1      15.394  -7.019  20.773  1.00  0.00    -0.001 C 
HETATM   26  C1  UNL     1      15.547  -7.120  19.278  1.00  0.00     0.013 C 
HETATM   27  C3  UNL     1      15.361  -5.533  21.113  1.00  0.00     0.013 C 
ENDBRANCH  24  25
ENDBRANCH  21  23
ENDBRANCH   1  21
BRANCH   6  28
HETATM   28  O5  UNL     1      17.164  -7.637  28.626  1.00  0.00    -0.392 OA
ATOM     29  H5  UNL     1      17.607  -7.921  29.418  1.00  0.00     0.210 HD
ENDBRANCH   6  28
BRANCH   7  30
HETATM   30  O6  UNL     1      17.000  -5.674  27.104  1.00  0.00    -0.390 OA
ATOM     31  H6  UNL     1      16.877  -4.977  26.470  1.00  0.00     0.210 HD
ENDBRANCH   7  30
BRANCH   8  32
HETATM   32  O7  UNL     1      18.648  -5.740  24.635  1.00  0.00    -0.385 OA
ATOM     33  H7  UNL     1      19.547  -5.842  24.923  1.00  0.00     0.210 HD
ENDBRANCH   8  32
TORSDOF 10
ENDMDL
MODEL 2
REMARK VINA RESULT: -7.322286403      2.422      3.443
REMARK  10 active torsions:
REMARK  status: ('A' for Active; 'I' for Inactive)
REMARK    1  A    between atoms: C2_2  and  C4_4 
REMARK    2  A    between atoms: C5_5  and  C6_6 
REMARK    3  A    between atoms: C6_6  and  C8_8 
REMARK    4  A    between atoms: C9_10  and  C10_11 
REMARK    5  A    between atoms: C10_11  and  C13_14 
REMARK    6  A    between atoms: C13_14  and  O2_15 
REMARK    7  A    between atoms: C13_14  and  C14_17 
REMARK    8  A    between atoms: C17_22  and  O5_23 
REMARK    9  A    between atoms: C18_25  and  O6_26 
REMARK   10  A    between atoms: C19_28  and  O7_29 
ROOT
HETATM    1  C8  UNL     1      16.612 -10.175  25.401  1.00  0.00     0.141 C 
HETATM    2  O1  UNL     1      16.314  -8.812  25.462  1.00  0.00    -0.377 OA
HETATM    3  C9  UNL     1      14.953  -8.931  25.852  1.00  0.00     0.144 C 
HETATM    4  C15 UNL     1      15.023  -9.630  27.088  1.00  0.00     0.024 C 
HETATM    5  C16 UNL     1      13.797 -10.592  27.123  1.00  0.00     0.021 C 
HETATM    6  C17 UNL     1      15.180  -9.170  28.441  1.00  0.00     0.161 C 
HETATM    7  C18 UNL     1      16.482  -8.587  28.939  1.00  0.00     0.183 C 
HETATM    8  C19 UNL     1      17.666  -8.919  28.061  1.00  0.00     0.219 C 
HETATM    9  C20 UNL     1      17.369 -10.313  27.640  1.00  0.00     0.165 C 
HETATM   10  O8  UNL     1      18.105 -11.208  28.001  1.00  0.00    -0.295 OA
HETATM   11  C21 UNL     1      16.200 -10.593  26.799  1.00  0.00     0.101 C 
ENDROOT
BRANCH   3  12
HETATM   12  C10 UNL     1      14.210  -7.771  25.424  1.00  0.00     0.015 C 
HETATM   13  C11 UNL     1      14.971  -6.530  25.027  1.00  0.00     0.020 C 
HETATM   14  C12 UNL     1      13.157  -7.314  26.429  1.00  0.00     0.020 C 
BRANCH  12  15
HETATM   15  C13 UNL     1      13.508  -8.181  24.116  1.00  0.00     0.229 C 
BRANCH  15  16
HETATM   16  O2  UNL     1      13.835  -7.350  23.055  1.00  0.00    -0.384 OA
ATOM     17  H2  UNL     1      13.094  -7.182  22.484  1.00  0.00     0.210 HD
ENDBRANCH  15  16
BRANCH  15  18
HETATM   18  C14 UNL     1      12.050  -8.342  24.178  1.00  0.00     0.203 C 
HETATM   19  O3  UNL     1      11.568  -9.632  24.328  1.00  0.00    -0.646 OA
HETATM   20  O4  UNL     1      11.322  -7.595  23.248  1.00  0.00    -0.646 OA
ENDBRANCH  15  18
ENDBRANCH  12  15
ENDBRANCH   3  12
BRANCH   1  21
HETATM   21  C6  UNL     1      18.047 -10.483  25.117  1.00  0.00     0.033 C 
HETATM   22  C7  UNL     1      18.055 -11.818  24.367  1.00  0.00     0.017 C 
BRANCH  21  23
HETATM   23  C5  UNL     1      18.601  -9.427  24.243  1.00  0.00    -0.024 C 
HETATM   24  C4  UNL     1      19.715  -8.811  24.577  1.00  0.00    -0.026 C 
BRANCH  24  25
HETATM   25  C2  UNL     1      20.309  -7.739  23.726  1.00  0.00    -0.001 C 
HETATM   26  C1  UNL     1      19.263  -6.827  23.140  1.00  0.00     0.013 C 
HETATM   27  C3  UNL     1      21.067  -8.350  22.553  1.00  0.00     0.013 C 
ENDBRANCH  24  25
ENDBRANCH  21  23
ENDBRANCH   1  21
BRANCH   6  28
HETATM   28  O5  UNL     1      14.198  -8.372  29.016  1.00  0.00    -0.392 OA
ATOM     29  H5  UNL     1      14.440  -7.723  29.667  1.00  0.00     0.210 HD
ENDBRANCH   6  28
BRANCH   7  30
HETATM   30  O6  UNL     1      16.397  -7.229  29.253  1.00  0.00    -0.390 OA
ATOM     31  H6  UNL     1      16.612  -7.038  30.158  1.00  0.00     0.210 HD
ENDBRANCH   7  30
BRANCH   8  32
HETATM   32  O7  UNL     1      18.829  -8.888  28.862  1.00  0.00    -0.385 OA
ATOM     33  H7  UNL     1      19.557  -8.618  28.315  1.00  0.00     0.210 HD
ENDBRANCH   8  32
TORSDOF 10
ENDMDL
MODEL 3
REMARK VINA RESULT: -7.311342987      2.000      5.877
REMARK  10 active torsions:
REMARK  status: ('A' for Active; 'I' for Inactive)
REMARK    1  A    between atoms: C2_2  and  C4_4 
REMARK    2  A    between atoms: C5_5  and  C6_6 
REMARK    3  A    between atoms: C6_6  and  C8_8 
REMARK    4  A    between atoms: C9_10  and  C10_11 
REMARK    5  A    between atoms: C10_11  and  C13_14 
REMARK    6  A    between atoms: C13_14  and  O2_15 
REMARK    7  A    between atoms: C13_14  and  C14_17 
REMARK    8  A    between atoms: C17_22  and  O5_23 
REMARK    9  A    between atoms: C18_25  and  O6_26 
REMARK   10  A    between atoms: C19_28  and  O7_29 
ROOT
HETATM    1  C8  UNL     1      16.767 -10.256  25.882  1.00  0.00     0.141 C 
HETATM    2  O1  UNL     1      17.595  -9.273  25.337  1.00  0.00    -0.377 OA
HETATM    3  C9  UNL     1      16.628  -8.645  24.508  1.00  0.00     0.144 C 
HETATM    4  C15 UNL     1      15.635  -8.212  25.428  1.00  0.00     0.024 C 
HETATM    5  C16 UNL     1      14.259  -8.405  24.719  1.00  0.00     0.021 C 
HETATM    6  C17 UNL     1      15.499  -7.000  26.190  1.00  0.00     0.161 C 
HETATM    7  C18 UNL     1      16.412  -6.683  27.351  1.00  0.00     0.183 C 
HETATM    8  C19 UNL     1      17.155  -7.887  27.882  1.00  0.00     0.219 C 
HETATM    9  C20 UNL     1      16.138  -8.965  27.763  1.00  0.00     0.165 C 
HETATM   10  O8  UNL     1      15.713  -9.488  28.772  1.00  0.00    -0.295 OA
HETATM   11  C21 UNL     1      15.661  -9.382  26.441  1.00  0.00     0.101 C 
ENDROOT
BRANCH   3  12
HETATM   12  C10 UNL     1      17.274  -8.002  23.389  1.00  0.00     0.015 C 
HETATM   13  C11 UNL     1      16.534  -6.911  22.657  1.00  0.00     0.020 C 
HETATM   14  C12 UNL     1      17.754  -8.977  22.318  1.00  0.00     0.020 C 
BRANCH  12  15
HETATM   15  C13 UNL     1      18.492  -7.264  23.975  1.00  0.00     0.229 C 
BRANCH  15  16
HETATM   16  O2  UNL     1      18.220  -5.934  24.259  1.00  0.00    -0.384 OA
ATOM     17  H2  UNL     1      18.931  -5.357  24.006  1.00  0.00     0.210 HD
ENDBRANCH  15  16
BRANCH  15  18
HETATM   18  C14 UNL     1      19.742  -7.353  23.210  1.00  0.00     0.203 C 
HETATM   19  O3  UNL     1      20.789  -8.041  23.800  1.00  0.00    -0.646 OA
HETATM   20  O4  UNL     1      20.151  -6.172  22.586  1.00  0.00    -0.646 OA
ENDBRANCH  15  18
ENDBRANCH  12  15
ENDBRANCH   3  12
BRANCH   1  21
HETATM   21  C6  UNL     1      17.414 -11.096  26.937  1.00  0.00     0.033 C 
HETATM   22  C7  UNL     1      17.103 -12.550  26.571  1.00  0.00     0.017 C 
BRANCH  21  23
HETATM   23  C5  UNL     1      18.876 -10.881  26.891  1.00  0.00    -0.024 C 
HETATM   24  C4  UNL     1      19.544 -10.666  28.004  1.00  0.00    -0.026 C 
BRANCH  24  25
HETATM   25  C2  UNL     1      21.020 -10.444  28.006  1.00  0.00    -0.001 C 
HETATM   26  C1  UNL     1      21.556 -10.166  29.387  1.00  0.00     0.013 C 
HETATM   27  C3  UNL     1      21.379  -9.239  27.144  1.00  0.00     0.013 C 
ENDBRANCH  24  25
ENDBRANCH  21  23
ENDBRANCH   1  21
BRANCH   6  28
HETATM   28  O5  UNL     1      15.335  -5.787  25.533  1.00  0.00    -0.392 OA
ATOM     29  H5  UNL     1      15.337  -4.977  26.031  1.00  0.00     0.210 HD
ENDBRANCH   6  28
BRANCH   7  30
HETATM   30  O6  UNL     1      17.245  -5.587  27.117  1.00  0.00    -0.390 OA
ATOM     31  H6  UNL     1      18.059  -5.818  26.685  1.00  0.00     0.210 HD
ENDBRANCH   7  30
BRANCH   8  32
HETATM   32  O7  UNL     1      17.459  -7.651  29.241  1.00  0.00    -0.385 OA
ATOM     33  H7  UNL     1      18.317  -8.017  29.419  1.00  0.00     0.210 HD
ENDBRANCH   8  32
TORSDOF 10
ENDMDL
MODEL 4
REMARK VINA RESULT: -7.127098250      3.272      6.342
REMARK  10 active torsions:
REMARK  status: ('A' for Active; 'I' for Inactive)
REMARK    1  A    between atoms: C2_2  and  C4_4 
REMARK    2  A    between atoms: C5_5  and  C6_6 
REMARK    3  A    between atoms: C6_6  and  C8_8 
REMARK    4  A    between atoms: C9_10  and  C10_11 
REMARK    5  A    between atoms: C10_11  and  C13_14 
REMARK    6  A    between atoms: C13_14  and  O2_15 
REMARK    7  A    between atoms: C13_14  and  C14_17 
REMARK    8  A    between atoms: C17_22  and  O5_23 
REMARK    9  A    between atoms: C18_25  and  O6_26 
REMARK   10  A    between atoms: C19_28  and  O7_29 
ROOT
HETATM    1  C8  UNL     1      19.852  -9.249  26.677  1.00  0.00     0.141 C 
HETATM    2  O1  UNL     1      18.616  -9.272  27.326  1.00  0.00    -0.377 OA
HETATM    3  C9  UNL     1      17.794  -9.112  26.179  1.00  0.00     0.144 C 
HETATM    4  C15 UNL     1      18.120 -10.241  25.378  1.00  0.00     0.024 C 
HETATM    5  C16 UNL     1      18.097  -9.755  23.897  1.00  0.00     0.021 C 
HETATM    6  C17 UNL     1      17.591 -11.577  25.345  1.00  0.00     0.161 C 
HETATM    7  C18 UNL     1      17.843 -12.562  26.463  1.00  0.00     0.183 C 
HETATM    8  C19 UNL     1      19.000 -12.178  27.356  1.00  0.00     0.219 C 
HETATM    9  C20 UNL     1      19.968 -11.596  26.390  1.00  0.00     0.165 C 
HETATM   10  O8  UNL     1      21.029 -12.156  26.209  1.00  0.00    -0.295 OA
HETATM   11  C21 UNL     1      19.636 -10.362  25.670  1.00  0.00     0.101 C 
ENDROOT
BRANCH   3  12
HETATM   12  C10 UNL     1      16.539  -8.503  26.547  1.00  0.00     0.015 C 
HETATM   13  C11 UNL     1      15.382  -8.592  25.583  1.00  0.00     0.020 C 
HETATM   14  C12 UNL     1      16.661  -7.030  26.922  1.00  0.00     0.020 C 
BRANCH  12  15
HETATM   15  C13 UNL     1      16.033  -9.291  27.771  1.00  0.00     0.229 C 
BRANCH  15  16
HETATM   16  O2  UNL     1      15.138 -10.291  27.424  1.00  0.00    -0.384 OA
ATOM     17  H2  UNL     1      15.570 -11.054  27.058  1.00  0.00     0.210 HD
ENDBRANCH  15  16
BRANCH  15  18
HETATM   18  C14 UNL     1      15.475  -8.498  28.874  1.00  0.00     0.203 C 
HETATM   19  O3  UNL     1      16.132  -8.572  30.091  1.00  0.00    -0.646 OA
HETATM   20  O4  UNL     1      14.085  -8.542  29.003  1.00  0.00    -0.646 OA
ENDBRANCH  15  18
ENDBRANCH  12  15
ENDBRANCH   3  12
BRANCH   1  21
HETATM   21  C6  UNL     1      21.024  -9.510  27.568  1.00  0.00     0.033 C 
HETATM   22  C7  UNL     1      22.162  -8.632  27.040  1.00  0.00     0.017 C 
BRANCH  21  23
HETATM   23  C5  UNL     1      20.682  -9.094  28.945  1.00  0.00    -0.024 C 
HETATM   24  C4  UNL     1      21.592  -8.524  29.706  1.00  0.00    -0.026 C 
BRANCH  24  25
HETATM   25  C2  UNL     1      21.292  -8.088  31.101  1.00  0.00    -0.001 C 
HETATM   26  C1  UNL     1      19.819  -7.862  31.327  1.00  0.00     0.013 C 
HETATM   27  C3  UNL     1      21.992  -6.769  31.409  1.00  0.00     0.013 C 
ENDBRANCH  24  25
ENDBRANCH  21  23
ENDBRANCH   1  21
BRANCH   6  28
HETATM   28  O5  UNL     1      16.264 -11.784  24.990  1.00  0.00    -0.392 OA
ATOM     29  H5  UNL     1      15.583 -11.245  25.377  1.00  0.00     0.210 HD
ENDBRANCH   6  28
BRANCH   7  30
HETATM   30  O6  UNL     1      16.690 -12.898  27.175  1.00  0.00    -0.390 OA
ATOM     31  H6  UNL     1      15.920 -12.984  26.627  1.00  0.00     0.210 HD
ENDBRANCH   7  30
BRANCH   8  32
HETATM   32  O7  UNL     1      19.527 -13.358  27.924  1.00  0.00    -0.385 OA
ATOM     33  H7  UNL     1      19.950 -13.855  27.233  1.00  0.00     0.210 HD
ENDBRANCH   8  32
TORSDOF 10
ENDMDL
MODEL 5
REMARK VINA RESULT: -7.090135128      2.255      4.178
REMARK  10 active torsions:
REMARK  status: ('A' for Active; 'I' for Inactive)
REMARK    1  A    between atoms: C2_2  and  C4_4 
REMARK    2  A    between atoms: C5_5  and  C6_6 
REMARK    3  A    between atoms: C6_6  and  C8_8 
REMARK    4  A    between atoms: C9_10  and  C10_11 
REMARK    5  A    between atoms: C10_11  and  C13_14 
REMARK    6  A    between atoms: C13_14  and  O2_15 
REMARK    7  A    between atoms: C13_14  and  C14_17 
REMARK    8  A    between atoms: C17_22  and  O5_23 
REMARK    9  A    between atoms: C18_25  and  O6_26 
REMARK   10  A    between atoms: C19_28  and  O7_29 
ROOT
HETATM    1  C8  UNL     1      16.972 -10.479  25.460  1.00  0.00     0.141 C 
HETATM    2  O1  UNL     1      16.819  -9.093  25.383  1.00  0.00    -0.377 OA
HETATM    3  C9  UNL     1      15.439  -9.034  25.713  1.00  0.00     0.144 C 
HETATM    4  C15 UNL     1      15.383  -9.616  27.009  1.00  0.00     0.024 C 
HETATM    5  C16 UNL     1      14.060 -10.440  27.068  1.00  0.00     0.021 C 
HETATM    6  C17 UNL     1      15.533  -9.049  28.321  1.00  0.00     0.161 C 
HETATM    7  C18 UNL     1      16.868  -8.558  28.829  1.00  0.00     0.183 C 
HETATM    8  C19 UNL     1      18.045  -9.091  28.046  1.00  0.00     0.219 C 
HETATM    9  C20 UNL     1      17.618 -10.482  27.737  1.00  0.00     0.165 C 
HETATM   10  O8  UNL     1      18.238 -11.409  28.214  1.00  0.00    -0.295 OA
HETATM   11  C21 UNL     1      16.461 -10.719  26.868  1.00  0.00     0.101 C 
ENDROOT
BRANCH   3  12
HETATM   12  C10 UNL     1      14.842  -7.849  25.145  1.00  0.00     0.015 C 
HETATM   13  C11 UNL     1      13.399  -7.545  25.459  1.00  0.00     0.020 C 
HETATM   14  C12 UNL     1      14.968  -7.769  23.627  1.00  0.00     0.020 C 
BRANCH  12  15
HETATM   15  C13 UNL     1      15.593  -6.659  25.773  1.00  0.00     0.229 C 
BRANCH  15  16
HETATM   16  O2  UNL     1      14.970  -5.447  25.520  1.00  0.00    -0.384 OA
ATOM     17  H2  UNL     1      15.387  -4.966  24.814  1.00  0.00     0.210 HD
ENDBRANCH  15  16
BRANCH  15  18
HETATM   18  C14 UNL     1      17.023  -6.548  25.458  1.00  0.00     0.203 C 
HETATM   19  O3  UNL     1      17.850  -6.080  26.465  1.00  0.00    -0.646 OA
HETATM   20  O4  UNL     1      17.323  -5.999  24.209  1.00  0.00    -0.646 OA
ENDBRANCH  15  18
ENDBRANCH  12  15
ENDBRANCH   3  12
BRANCH   1  21
HETATM   21  C6  UNL     1      18.377 -10.959  25.277  1.00  0.00     0.033 C 
HETATM   22  C7  UNL     1      18.278 -12.282  24.513  1.00  0.00     0.017 C 
BRANCH  21  23
HETATM   23  C5  UNL     1      19.117  -9.974  24.460  1.00  0.00    -0.024 C 
HETATM   24  C4  UNL     1      20.201  -9.403  24.939  1.00  0.00    -0.026 C 
BRANCH  24  25
HETATM   25  C2  UNL     1      20.980  -8.404  24.150  1.00  0.00    -0.001 C 
HETATM   26  C1  UNL     1      20.120  -7.657  23.163  1.00  0.00     0.013 C 
HETATM   27  C3  UNL     1      22.073  -9.097  23.344  1.00  0.00     0.013 C 
ENDBRANCH  24  25
ENDBRANCH  21  23
ENDBRANCH   1  21
BRANCH   6  28
HETATM   28  O5  UNL     1      14.620  -8.103  28.771  1.00  0.00    -0.392 OA
ATOM     29  H5  UNL     1      14.295  -8.149  29.663  1.00  0.00     0.210 HD
ENDBRANCH   6  28
BRANCH   7  30
HETATM   30  O6  UNL     1      16.917  -7.175  29.015  1.00  0.00    -0.390 OA
ATOM     31  H6  UNL     1      16.387  -6.874  29.743  1.00  0.00     0.210 HD
ENDBRANCH   7  30
BRANCH   8  32
HETATM   32  O7  UNL     1      19.171  -9.105  28.898  1.00  0.00    -0.385 OA
ATOM     33  H7  UNL     1      18.898  -8.792  29.753  1.00  0.00     0.210 HD
ENDBRANCH   8  32
TORSDOF 10
ENDMDL
