MODEL 1
REMARK VINA RESULT: -7.416848859      0.000      0.000
REMARK  12 active torsions:
REMARK  status: ('A' for Active; 'I' for Inactive)
REMARK    1  A    between atoms: C3_3  and  C4_4 
REMARK    2  A    between atoms: C5_5  and  C6_6 
REMARK    3  A    between atoms: C7_7  and  C8_8 
REMARK    4  A    between atoms: C8_8  and  O1_9 
REMARK    5  A    between atoms: C8_8  and  C9_11 
REMARK    6  A    between atoms: C9_11  and  C10_12 
REMARK    7  A    between atoms: C10_12  and  O2_13 
REMARK    8  A    between atoms: C13_18  and  O4_19 
REMARK    9  A    between atoms: C15_22  and  O5_23 
REMARK   10  A    between atoms: C19_29  and  O7_30 
REMARK   11  A    between atoms: C19_29  and  C20_32 
REMARK   12  A    between atoms: C20_32  and  O8_34 
ROOT
HETATM    1  C6  UNL     1      16.125  -6.796  21.400  1.00  0.00     0.053 C 
HETATM    2  C7  UNL     1      15.468  -5.818  20.484  1.00  0.00     0.159 C 
HETATM    3  O3  UNL     1      16.341  -5.659  19.436  1.00  0.00    -0.376 OA
HETATM    4  C11 UNL     1      17.251  -6.677  19.390  1.00  0.00     0.136 C 
HETATM    5  C12 UNL     1      18.631  -6.093  19.473  1.00  0.00     0.064 C 
HETATM    6  C13 UNL     1      19.581  -7.294  19.354  1.00  0.00     0.123 C 
HETATM    7  C14 UNL     1      19.478  -8.006  20.668  1.00  0.00     0.064 C 
HETATM    8  C15 UNL     1      18.124  -8.172  21.231  1.00  0.00     0.132 C 
HETATM    9  C16 UNL     1      16.957  -7.662  20.499  1.00  0.00     0.018 C 
HETATM   10  C17 UNL     1      16.191  -8.791  19.860  1.00  0.00     0.021 C 
ENDROOT
BRANCH   1  11
HETATM   11  C5  UNL     1      15.343  -7.390  22.446  1.00  0.00    -0.020 C 
HETATM   12  C4  UNL     1      15.385  -7.193  23.715  1.00  0.00     0.006 C 
BRANCH  12  13
HETATM   13  C3  UNL     1      14.496  -7.900  24.690  1.00  0.00     0.175 C 
HETATM   14  C2  UNL     1      15.280  -8.835  25.547  1.00  0.00    -0.018 C 
HETATM   15  C1  UNL     1      16.472  -9.304  25.246  1.00  0.00     0.020 C 
HETATM   16  C19 UNL     1      14.409  -9.056  26.712  1.00  0.00     0.130 C 
HETATM   17  C18 UNL     1      13.481  -7.856  26.637  1.00  0.00     0.214 C 
HETATM   18  O6  UNL     1      13.985  -7.030  25.644  1.00  0.00    -0.374 OA
BRANCH  16  19
HETATM   19  O7  UNL     1      13.650 -10.215  26.558  1.00  0.00    -0.380 OA
ATOM     20  H7  UNL     1      13.668 -10.743  27.348  1.00  0.00     0.211 HD
ENDBRANCH  16  19
BRANCH  16  21
HETATM   21  C20 UNL     1      15.135  -9.122  28.019  1.00  0.00     0.155 C 
HETATM   22  C21 UNL     1      15.809  -7.802  28.325  1.00  0.00     0.042 C 
BRANCH  21  23
HETATM   23  O8  UNL     1      14.352  -9.463  29.086  1.00  0.00    -0.393 OA
ATOM     24  H8  UNL     1      14.658  -9.131  29.923  1.00  0.00     0.210 HD
ENDBRANCH  21  23
ENDBRANCH  16  21
ENDBRANCH  12  13
ENDBRANCH   1  11
BRANCH   2  25
HETATM   25  C8  UNL     1      14.086  -6.116  20.047  1.00  0.00     0.149 C 
BRANCH  25  26
HETATM   26  O1  UNL     1      13.189  -5.124  20.501  1.00  0.00    -0.393 OA
ATOM     27  H1  UNL     1      12.370  -5.512  20.787  1.00  0.00     0.210 HD
ENDBRANCH  25  26
BRANCH  25  28
HETATM   28  C9  UNL     1      13.926  -6.114  18.537  1.00  0.00     0.060 C 
BRANCH  28  29
HETATM   29  C10 UNL     1      12.696  -6.806  18.051  1.00  0.00     0.166 C 
BRANCH  29  30
HETATM   30  O2  UNL     1      11.554  -5.988  18.199  1.00  0.00    -0.401 OA
ATOM     31  H2  UNL     1      10.840  -6.289  17.648  1.00  0.00     0.209 HD
ENDBRANCH  29  30
ENDBRANCH  28  29
ENDBRANCH  25  28
ENDBRANCH   2  25
BRANCH   8  32
HETATM   32  O5  UNL     1      18.182  -7.702  22.571  1.00  0.00    -0.395 OA
ATOM     33  H5  UNL     1      17.493  -8.152  23.046  1.00  0.00     0.210 HD
ENDBRANCH   8  32
BRANCH   6  34
HETATM   34  O4  UNL     1      20.860  -6.757  19.210  1.00  0.00    -0.395 OA
ATOM     35  H4  UNL     1      21.191  -6.631  20.091  1.00  0.00     0.210 HD
ENDBRANCH   6  34
TORSDOF 12
ENDMDL
MODEL 2
REMARK VINA RESULT: -7.343435953      4.032      7.181
REMARK  12 active torsions:
REMARK  status: ('A' for Active; 'I' for Inactive)
REMARK    1  A    between atoms: C3_3  and  C4_4 
REMARK    2  A    between atoms: C5_5  and  C6_6 
REMARK    3  A    between atoms: C7_7  and  C8_8 
REMARK    4  A    between atoms: C8_8  and  O1_9 
REMARK    5  A    between atoms: C8_8  and  C9_11 
REMARK    6  A    between atoms: C9_11  and  C10_12 
REMARK    7  A    between atoms: C10_12  and  O2_13 
REMARK    8  A    between atoms: C13_18  and  O4_19 
REMARK    9  A    between atoms: C15_22  and  O5_23 
REMARK   10  A    between atoms: C19_29  and  O7_30 
REMARK   11  A    between atoms: C19_29  and  C20_32 
REMARK   12  A    between atoms: C20_32  and  O8_34 
ROOT
HETATM    1  C6  UNL     1      16.572  -7.935  26.835  1.00  0.00     0.053 C 
HETATM    2  C7  UNL     1      15.156  -8.216  27.208  1.00  0.00     0.159 C 
HETATM    3  O3  UNL     1      14.425  -7.974  26.071  1.00  0.00    -0.376 OA
HETATM    4  C11 UNL     1      15.224  -7.956  24.963  1.00  0.00     0.136 C 
HETATM    5  C12 UNL     1      15.071  -6.628  24.280  1.00  0.00     0.064 C 
HETATM    6  C13 UNL     1      15.951  -6.721  23.025  1.00  0.00     0.123 C 
HETATM    7  C14 UNL     1      17.360  -6.637  23.527  1.00  0.00     0.064 C 
HETATM    8  C15 UNL     1      17.684  -7.426  24.731  1.00  0.00     0.132 C 
HETATM    9  C16 UNL     1      16.651  -8.252  25.369  1.00  0.00     0.018 C 
HETATM   10  C17 UNL     1      16.873  -9.712  25.072  1.00  0.00     0.021 C 
ENDROOT
BRANCH   1  11
HETATM   11  C5  UNL     1      17.615  -8.368  27.720  1.00  0.00    -0.020 C 
HETATM   12  C4  UNL     1      18.070  -7.813  28.786  1.00  0.00     0.006 C 
BRANCH  12  13
HETATM   13  C3  UNL     1      19.177  -8.393  29.610  1.00  0.00     0.175 C 
HETATM   14  C2  UNL     1      20.508  -8.072  29.019  1.00  0.00    -0.018 C 
HETATM   15  C1  UNL     1      20.704  -7.714  27.767  1.00  0.00     0.020 C 
HETATM   16  C19 UNL     1      21.443  -8.257  30.139  1.00  0.00     0.130 C 
HETATM   17  C18 UNL     1      20.514  -8.163  31.337  1.00  0.00     0.214 C 
HETATM   18  O6  UNL     1      19.278  -7.770  30.847  1.00  0.00    -0.374 OA
BRANCH  16  19
HETATM   19  O7  UNL     1      22.009  -9.532  30.115  1.00  0.00    -0.380 OA
ATOM     20  H7  UNL     1      22.375  -9.759  30.961  1.00  0.00     0.211 HD
ENDBRANCH  16  19
BRANCH  16  21
HETATM   21  C20 UNL     1      22.541  -7.242  30.200  1.00  0.00     0.155 C 
HETATM   22  C21 UNL     1      22.517  -6.507  31.524  1.00  0.00     0.042 C 
BRANCH  21  23
HETATM   23  O8  UNL     1      23.795  -7.750  30.011  1.00  0.00    -0.393 OA
ATOM     24  H8  UNL     1      24.162  -8.188  30.770  1.00  0.00     0.210 HD
ENDBRANCH  21  23
ENDBRANCH  16  21
ENDBRANCH  12  13
ENDBRANCH   1  11
BRANCH   2  25
HETATM   25  C8  UNL     1      14.860  -9.533  27.817  1.00  0.00     0.149 C 
BRANCH  25  26
HETATM   26  O1  UNL     1      14.458  -9.387  29.163  1.00  0.00    -0.393 OA
ATOM     27  H1  UNL     1      15.212  -9.357  29.741  1.00  0.00     0.210 HD
ENDBRANCH  25  26
BRANCH  25  28
HETATM   28  C9  UNL     1      13.701 -10.250  27.149  1.00  0.00     0.060 C 
BRANCH  28  29
HETATM   29  C10 UNL     1      14.027 -11.624  26.666  1.00  0.00     0.166 C 
BRANCH  29  30
HETATM   30  O2  UNL     1      12.858 -12.339  26.322  1.00  0.00    -0.401 OA
ATOM     31  H2  UNL     1      12.508 -12.048  25.488  1.00  0.00     0.209 HD
ENDBRANCH  29  30
ENDBRANCH  28  29
ENDBRANCH  25  28
ENDBRANCH   2  25
BRANCH   8  32
HETATM   32  O5  UNL     1      18.315  -6.535  25.642  1.00  0.00    -0.395 OA
ATOM     33  H5  UNL     1      18.425  -7.011  26.456  1.00  0.00     0.210 HD
ENDBRANCH   8  32
BRANCH   6  34
HETATM   34  O4  UNL     1      15.655  -5.588  22.267  1.00  0.00    -0.395 OA
ATOM     35  H4  UNL     1      14.791  -5.308  22.544  1.00  0.00     0.210 HD
ENDBRANCH   6  34
TORSDOF 12
ENDMDL
MODEL 3
REMARK VINA RESULT: -7.170210997      5.364      9.075
REMARK  12 active torsions:
REMARK  status: ('A' for Active; 'I' for Inactive)
REMARK    1  A    between atoms: C3_3  and  C4_4 
REMARK    2  A    between atoms: C5_5  and  C6_6 
REMARK    3  A    between atoms: C7_7  and  C8_8 
REMARK    4  A    between atoms: C8_8  and  O1_9 
REMARK    5  A    between atoms: C8_8  and  C9_11 
REMARK    6  A    between atoms: C9_11  and  C10_12 
REMARK    7  A    between atoms: C10_12  and  O2_13 
REMARK    8  A    between atoms: C13_18  and  O4_19 
REMARK    9  A    between atoms: C15_22  and  O5_23 
REMARK   10  A    between atoms: C19_29  and  O7_30 
REMARK   11  A    between atoms: C19_29  and  C20_32 
REMARK   12  A    between atoms: C20_32  and  O8_34 
ROOT
HETATM    1  C6  UNL     1      20.810  -8.510  28.419  1.00  0.00     0.053 C 
HETATM    2  C7  UNL     1      21.792  -8.576  27.298  1.00  0.00     0.159 C 
HETATM    3  O3  UNL     1      22.977  -8.124  27.826  1.00  0.00    -0.376 OA
HETATM    4  C11 UNL     1      22.954  -8.154  29.192  1.00  0.00     0.136 C 
HETATM    5  C12 UNL     1      23.217  -6.770  29.709  1.00  0.00     0.064 C 
HETATM    6  C13 UNL     1      23.232  -6.910  31.238  1.00  0.00     0.123 C 
HETATM    7  C14 UNL     1      21.800  -7.107  31.627  1.00  0.00     0.064 C 
HETATM    8  C15 UNL     1      21.005  -8.032  30.797  1.00  0.00     0.132 C 
HETATM    9  C16 UNL     1      21.631  -8.719  29.659  1.00  0.00     0.018 C 
HETATM   10  C17 UNL     1      21.888 -10.167  29.983  1.00  0.00     0.021 C 
ENDROOT
BRANCH   1  11
HETATM   11  C5  UNL     1      19.551  -9.183  28.270  1.00  0.00    -0.020 C 
HETATM   12  C4  UNL     1      18.503  -8.828  27.615  1.00  0.00     0.006 C 
BRANCH  12  13
HETATM   13  C3  UNL     1      17.251  -9.646  27.557  1.00  0.00     0.175 C 
HETATM   14  C2  UNL     1      16.042  -8.782  27.693  1.00  0.00    -0.018 C 
HETATM   15  C1  UNL     1      16.043  -7.570  28.205  1.00  0.00     0.020 C 
HETATM   16  C19 UNL     1      14.958  -9.608  27.140  1.00  0.00     0.130 C 
HETATM   17  C18 UNL     1      15.730 -10.613  26.303  1.00  0.00     0.214 C 
HETATM   18  O6  UNL     1      17.050 -10.188  26.295  1.00  0.00    -0.374 OA
BRANCH  16  19
HETATM   19  O7  UNL     1      14.285 -10.294  28.150  1.00  0.00    -0.380 OA
ATOM     20  H7  UNL     1      13.416  -9.936  28.287  1.00  0.00     0.211 HD
ENDBRANCH  16  19
BRANCH  16  21
HETATM   21  C20 UNL     1      13.960  -8.848  26.324  1.00  0.00     0.155 C 
HETATM   22  C21 UNL     1      14.623  -8.219  25.117  1.00  0.00     0.042 C 
BRANCH  21  23
HETATM   23  O8  UNL     1      12.896  -9.590  25.893  1.00  0.00    -0.393 OA
ATOM     24  H8  UNL     1      12.054  -9.158  25.977  1.00  0.00     0.210 HD
ENDBRANCH  21  23
ENDBRANCH  16  21
ENDBRANCH  12  13
ENDBRANCH   1  11
BRANCH   2  25
HETATM   25  C8  UNL     1      21.930  -9.868  26.588  1.00  0.00     0.149 C 
BRANCH  25  26
HETATM   26  O1  UNL     1      21.485  -9.758  25.252  1.00  0.00    -0.393 OA
ATOM     27  H1  UNL     1      21.297 -10.614  24.886  1.00  0.00     0.210 HD
ENDBRANCH  25  26
BRANCH  25  28
HETATM   28  C9  UNL     1      23.371 -10.332  26.472  1.00  0.00     0.060 C 
BRANCH  28  29
HETATM   29  C10 UNL     1      23.883 -10.398  25.072  1.00  0.00     0.166 C 
BRANCH  29  30
HETATM   30  O2  UNL     1      24.363  -9.141  24.642  1.00  0.00    -0.401 OA
ATOM     31  H2  UNL     1      24.616  -9.163  23.726  1.00  0.00     0.209 HD
ENDBRANCH  29  30
ENDBRANCH  28  29
ENDBRANCH  25  28
ENDBRANCH   2  25
BRANCH   8  32
HETATM   32  O5  UNL     1      19.820  -7.336  30.434  1.00  0.00    -0.395 OA
ATOM     33  H5  UNL     1      19.287  -7.947  29.939  1.00  0.00     0.210 HD
ENDBRANCH   8  32
BRANCH   6  34
HETATM   34  O4  UNL     1      23.689  -5.687  31.729  1.00  0.00    -0.395 OA
ATOM     35  H4  UNL     1      23.387  -5.639  32.628  1.00  0.00     0.210 HD
ENDBRANCH   6  34
TORSDOF 12
ENDMDL
MODEL 4
REMARK VINA RESULT: -7.105223410      5.913      9.604
REMARK  12 active torsions:
REMARK  status: ('A' for Active; 'I' for Inactive)
REMARK    1  A    between atoms: C3_3  and  C4_4 
REMARK    2  A    between atoms: C5_5  and  C6_6 
REMARK    3  A    between atoms: C7_7  and  C8_8 
REMARK    4  A    between atoms: C8_8  and  O1_9 
REMARK    5  A    between atoms: C8_8  and  C9_11 
REMARK    6  A    between atoms: C9_11  and  C10_12 
REMARK    7  A    between atoms: C10_12  and  O2_13 
REMARK    8  A    between atoms: C13_18  and  O4_19 
REMARK    9  A    between atoms: C15_22  and  O5_23 
REMARK   10  A    between atoms: C19_29  and  O7_30 
REMARK   11  A    between atoms: C19_29  and  C20_32 
REMARK   12  A    between atoms: C20_32  and  O8_34 
ROOT
HETATM    1  C6  UNL     1      21.013  -9.046  28.583  1.00  0.00     0.053 C 
HETATM    2  C7  UNL     1      21.040  -8.925  30.069  1.00  0.00     0.159 C 
HETATM    3  O3  UNL     1      22.155  -9.619  30.471  1.00  0.00    -0.376 OA
HETATM    4  C11 UNL     1      23.015  -9.820  29.428  1.00  0.00     0.136 C 
HETATM    5  C12 UNL     1      23.241 -11.295  29.268  1.00  0.00     0.064 C 
HETATM    6  C13 UNL     1      24.257 -11.422  28.123  1.00  0.00     0.123 C 
HETATM    7  C14 UNL     1      23.488 -11.100  26.879  1.00  0.00     0.064 C 
HETATM    8  C15 UNL     1      22.570  -9.946  26.944  1.00  0.00     0.132 C 
HETATM    9  C16 UNL     1      22.456  -9.167  28.184  1.00  0.00     0.018 C 
HETATM   10  C17 UNL     1      23.166  -7.845  28.053  1.00  0.00     0.021 C 
ENDROOT
BRANCH   1  11
HETATM   11  C5  UNL     1      20.132  -8.192  27.839  1.00  0.00    -0.020 C 
HETATM   12  C4  UNL     1      18.849  -8.190  27.779  1.00  0.00     0.006 C 
BRANCH  12  13
HETATM   13  C3  UNL     1      18.063  -7.226  26.945  1.00  0.00     0.175 C 
HETATM   14  C2  UNL     1      17.375  -7.927  25.824  1.00  0.00    -0.018 C 
HETATM   15  C1  UNL     1      17.716  -9.111  25.359  1.00  0.00     0.020 C 
HETATM   16  C19 UNL     1      16.308  -6.994  25.429  1.00  0.00     0.130 C 
HETATM   17  C18 UNL     1      16.184  -6.124  26.668  1.00  0.00     0.214 C 
HETATM   18  O6  UNL     1      16.979  -6.709  27.642  1.00  0.00    -0.374 OA
BRANCH  16  19
HETATM   19  O7  UNL     1      16.712  -6.193  24.362  1.00  0.00    -0.380 OA
ATOM     20  H7  UNL     1      16.243  -6.420  23.568  1.00  0.00     0.211 HD
ENDBRANCH  16  19
BRANCH  16  21
HETATM   21  C20 UNL     1      15.012  -7.654  25.076  1.00  0.00     0.155 C 
HETATM   22  C21 UNL     1      13.951  -7.334  26.106  1.00  0.00     0.042 C 
BRANCH  21  23
HETATM   23  O8  UNL     1      14.527  -7.326  23.841  1.00  0.00    -0.393 OA
ATOM     24  H8  UNL     1      14.511  -6.394  23.658  1.00  0.00     0.210 HD
ENDBRANCH  21  23
ENDBRANCH  16  21
ENDBRANCH  12  13
ENDBRANCH   1  11
BRANCH   2  25
HETATM   25  C8  UNL     1      20.968  -7.562  30.643  1.00  0.00     0.149 C 
BRANCH  25  26
HETATM   26  O1  UNL     1      19.857  -7.437  31.506  1.00  0.00    -0.393 OA
ATOM     27  H1  UNL     1      19.117  -7.049  31.053  1.00  0.00     0.210 HD
ENDBRANCH  25  26
BRANCH  25  28
HETATM   28  C9  UNL     1      22.165  -7.218  31.511  1.00  0.00     0.060 C 
BRANCH  28  29
HETATM   29  C10 UNL     1      23.053  -6.164  30.938  1.00  0.00     0.166 C 
BRANCH  29  30
HETATM   30  O2  UNL     1      23.461  -5.242  31.928  1.00  0.00    -0.401 OA
ATOM     31  H2  UNL     1      24.072  -5.638  32.538  1.00  0.00     0.209 HD
ENDBRANCH  29  30
ENDBRANCH  28  29
ENDBRANCH  25  28
ENDBRANCH   2  25
BRANCH   8  32
HETATM   32  O5  UNL     1      21.313 -10.401  26.463  1.00  0.00    -0.395 OA
ATOM     33  H5  UNL     1      20.978  -9.720  25.892  1.00  0.00     0.210 HD
ENDBRANCH   8  32
BRANCH   6  34
HETATM   34  O4  UNL     1      24.644 -12.762  28.104  1.00  0.00    -0.395 OA
ATOM     35  H4  UNL     1      24.649 -13.044  29.010  1.00  0.00     0.210 HD
ENDBRANCH   6  34
TORSDOF 12
ENDMDL
MODEL 5
REMARK VINA RESULT: -7.091959584      2.216      4.632
REMARK  12 active torsions:
REMARK  status: ('A' for Active; 'I' for Inactive)
REMARK    1  A    between atoms: C3_3  and  C4_4 
REMARK    2  A    between atoms: C5_5  and  C6_6 
REMARK    3  A    between atoms: C7_7  and  C8_8 
REMARK    4  A    between atoms: C8_8  and  O1_9 
REMARK    5  A    between atoms: C8_8  and  C9_11 
REMARK    6  A    between atoms: C9_11  and  C10_12 
REMARK    7  A    between atoms: C10_12  and  O2_13 
REMARK    8  A    between atoms: C13_18  and  O4_19 
REMARK    9  A    between atoms: C15_22  and  O5_23 
REMARK   10  A    between atoms: C19_29  and  O7_30 
REMARK   11  A    between atoms: C19_29  and  C20_32 
REMARK   12  A    between atoms: C20_32  and  O8_34 
ROOT
HETATM    1  C6  UNL     1      15.757  -7.783  20.927  1.00  0.00     0.053 C 
HETATM    2  C7  UNL     1      16.335  -8.967  20.228  1.00  0.00     0.159 C 
HETATM    3  O3  UNL     1      15.780  -8.954  18.972  1.00  0.00    -0.376 OA
HETATM    4  C11 UNL     1      15.249  -7.730  18.678  1.00  0.00     0.136 C 
HETATM    5  C12 UNL     1      13.794  -7.902  18.355  1.00  0.00     0.064 C 
HETATM    6  C13 UNL     1      13.299  -6.497  17.982  1.00  0.00     0.123 C 
HETATM    7  C14 UNL     1      13.231  -5.749  19.278  1.00  0.00     0.064 C 
HETATM    8  C15 UNL     1      14.363  -5.924  20.207  1.00  0.00     0.132 C 
HETATM    9  C16 UNL     1      15.492  -6.787  19.835  1.00  0.00     0.018 C 
HETATM   10  C17 UNL     1      16.694  -5.963  19.455  1.00  0.00     0.021 C 
ENDROOT
BRANCH   1  11
HETATM   11  C5  UNL     1      16.353  -7.355  22.161  1.00  0.00    -0.020 C 
HETATM   12  C4  UNL     1      16.213  -7.827  23.347  1.00  0.00     0.006 C 
BRANCH  12  13
HETATM   13  C3  UNL     1      16.908  -7.263  24.547  1.00  0.00     0.175 C 
HETATM   14  C2  UNL     1      15.954  -7.077  25.679  1.00  0.00    -0.018 C 
HETATM   15  C1  UNL     1      14.646  -7.004  25.550  1.00  0.00     0.020 C 
HETATM   16  C19 UNL     1      16.824  -7.004  26.862  1.00  0.00     0.130 C 
HETATM   17  C18 UNL     1      18.098  -7.654  26.351  1.00  0.00     0.214 C 
HETATM   18  O6  UNL     1      17.801  -8.171  25.099  1.00  0.00    -0.374 OA
BRANCH  16  19
HETATM   19  O7  UNL     1      17.105  -5.680  27.198  1.00  0.00    -0.380 OA
ATOM     20  H7  UNL     1      17.654  -5.633  27.971  1.00  0.00     0.211 HD
ENDBRANCH  16  19
BRANCH  16  21
HETATM   21  C20 UNL     1      16.283  -7.705  28.069  1.00  0.00     0.155 C 
HETATM   22  C21 UNL     1      16.484  -9.200  27.955  1.00  0.00     0.042 C 
BRANCH  21  23
HETATM   23  O8  UNL     1      16.817  -7.287  29.255  1.00  0.00    -0.393 OA
ATOM     24  H8  UNL     1      16.792  -7.936  29.950  1.00  0.00     0.210 HD
ENDBRANCH  21  23
ENDBRANCH  16  21
ENDBRANCH  12  13
ENDBRANCH   1  11
BRANCH   2  25
HETATM   25  C8  UNL     1      17.810  -9.095  20.210  1.00  0.00     0.149 C 
BRANCH  25  26
HETATM   26  O1  UNL     1      18.232 -10.176  21.014  1.00  0.00    -0.393 OA
ATOM     27  H1  UNL     1      18.652  -9.865  21.807  1.00  0.00     0.210 HD
ENDBRANCH  25  26
BRANCH  25  28
HETATM   28  C9  UNL     1      18.363  -9.407  18.830  1.00  0.00     0.060 C 
BRANCH  28  29
HETATM   29  C10 UNL     1      18.651 -10.853  18.599  1.00  0.00     0.166 C 
BRANCH  29  30
HETATM   30  O2  UNL     1      17.460 -11.594  18.428  1.00  0.00    -0.401 OA
ATOM     31  H2  UNL     1      17.478 -12.397  18.936  1.00  0.00     0.209 HD
ENDBRANCH  29  30
ENDBRANCH  28  29
ENDBRANCH  25  28
ENDBRANCH   2  25
BRANCH   8  32
HETATM   32  O5  UNL     1      13.804  -6.263  21.469  1.00  0.00    -0.395 OA
ATOM     33  H5  UNL     1      14.154  -5.641  22.097  1.00  0.00     0.210 HD
ENDBRANCH   8  32
BRANCH   6  34
HETATM   34  O4  UNL     1      12.012  -6.669  17.470  1.00  0.00    -0.395 OA
ATOM     35  H4  UNL     1      11.631  -5.800  17.428  1.00  0.00     0.210 HD
ENDBRANCH   6  34
TORSDOF 12
ENDMDL
