MODEL 1
REMARK VINA RESULT: -7.387994563      0.000      0.000
REMARK  10 active torsions:
REMARK  status: ('A' for Active; 'I' for Inactive)
REMARK    1  A    between atoms: C2_2  and  O1_3 
REMARK    2  A    between atoms: C6_8  and  C7_9 
REMARK    3  A    between atoms: C7_9  and  O2_10 
REMARK    4  A    between atoms: C9_13  and  C10_14 
REMARK    5  A    between atoms: C10_14  and  O3_15 
REMARK    6  A    between atoms: C11_18  and  C12_19 
REMARK    7  A    between atoms: C13_22  and  O7_23 
REMARK    8  A    between atoms: O7_23  and  C14_24 
REMARK    9  A    between atoms: C14_24  and  C15_25 
REMARK   10  A    between atoms: C17_29  and  O10_30 
ROOT
HETATM    1  C1  UNL     1      17.680 -11.448  27.075  1.00  0.00     0.047 C 
HETATM    2  C2  UNL     1      17.861 -10.037  26.463  1.00  0.00     0.068 C 
HETATM    3  C3  UNL     1      17.802 -10.207  25.036  1.00  0.00     0.025 C 
HETATM    4  C4  UNL     1      17.999 -11.649  24.493  1.00  0.00     0.009 C 
HETATM    5  C5  UNL     1      17.665 -11.298  23.029  1.00  0.00     0.012 C 
HETATM    6  C6  UNL     1      18.049  -9.818  22.858  1.00  0.00    -0.012 C 
HETATM    7  C8  UNL     1      16.901  -8.890  22.837  1.00  0.00     0.055 C 
HETATM    8  C9  UNL     1      16.924  -7.687  23.733  1.00  0.00     0.110 C 
HETATM    9  O4  UNL     1      16.733  -7.732  24.989  1.00  0.00    -0.350 OA
HETATM   10  C11 UNL     1      16.138  -8.207  25.993  1.00  0.00     0.185 A 
HETATM   11  C13 UNL     1      16.856  -7.802  27.343  1.00  0.00     0.178 A 
HETATM   12  C16 UNL     1      16.712  -9.204  26.957  1.00  0.00     0.101 A 
HETATM   13  C17 UNL     1      18.369  -7.142  23.612  1.00  0.00     0.155 C 
HETATM   14  C18 UNL     1      19.198  -8.191  24.313  1.00  0.00     0.041 C 
HETATM   15  C19 UNL     1      18.792  -9.572  24.153  1.00  0.00     0.005 C 
ENDROOT
BRANCH  11  16
HETATM   16  O7  UNL     1      16.104  -7.303  28.364  1.00  0.00    -0.371 OA
BRANCH  16  17
HETATM   17  C14 UNL     1      16.254  -8.110  29.487  1.00  0.00     0.281 C 
BRANCH  17  18
HETATM   18  C15 UNL     1      14.910  -8.411  30.072  1.00  0.00     0.197 C 
HETATM   19  O8  UNL     1      14.217  -9.343  29.617  1.00  0.00    -0.646 OA
HETATM   20  O9  UNL     1      14.440  -7.640  31.131  1.00  0.00    -0.646 OA
ENDBRANCH  17  18
ENDBRANCH  16  17
ENDBRANCH  11  16
BRANCH  10  21
HETATM   21  C12 UNL     1      14.660  -7.898  26.158  1.00  0.00     0.212 C 
HETATM   22  O5  UNL     1      13.902  -8.832  26.499  1.00  0.00    -0.646 OA
HETATM   23  O6  UNL     1      14.159  -6.652  25.946  1.00  0.00    -0.646 OA
ENDBRANCH  10  21
BRANCH   2  24
HETATM   24  O1  UNL     1      19.081  -9.628  26.997  1.00  0.00    -0.389 OA
ATOM     25  H1  UNL     1      19.600  -9.457  26.220  1.00  0.00     0.210 HD
ENDBRANCH   2  24
BRANCH   8  26
HETATM   26  C10 UNL     1      16.068  -6.654  22.944  1.00  0.00     0.204 C 
BRANCH  26  27
HETATM   27  O3  UNL     1      15.733  -5.564  23.687  1.00  0.00    -0.398 OA
ATOM     28  H3  UNL     1      15.026  -5.058  23.306  1.00  0.00     0.209 HD
ENDBRANCH  26  27
ENDBRANCH   8  26
BRANCH  13  29
HETATM   29  O10 UNL     1      18.372  -5.934  24.338  1.00  0.00    -0.392 OA
ATOM     30  H10 UNL     1      19.250  -5.857  24.690  1.00  0.00     0.210 HD
ENDBRANCH  13  29
BRANCH   6  31
HETATM   31  C7  UNL     1      18.946  -9.788  21.654  1.00  0.00     0.174 C 
BRANCH  31  32
HETATM   32  O2  UNL     1      18.353  -9.050  20.621  1.00  0.00    -0.400 OA
ATOM     33  H2  UNL     1      18.691  -9.329  19.777  1.00  0.00     0.209 HD
ENDBRANCH  31  32
ENDBRANCH   6  31
TORSDOF 10
ENDMDL
MODEL 2
REMARK VINA RESULT: -7.232362817      1.785      2.492
REMARK  10 active torsions:
REMARK  status: ('A' for Active; 'I' for Inactive)
REMARK    1  A    between atoms: C2_2  and  O1_3 
REMARK    2  A    between atoms: C6_8  and  C7_9 
REMARK    3  A    between atoms: C7_9  and  O2_10 
REMARK    4  A    between atoms: C9_13  and  C10_14 
REMARK    5  A    between atoms: C10_14  and  O3_15 
REMARK    6  A    between atoms: C11_18  and  C12_19 
REMARK    7  A    between atoms: C13_22  and  O7_23 
REMARK    8  A    between atoms: O7_23  and  C14_24 
REMARK    9  A    between atoms: C14_24  and  C15_25 
REMARK   10  A    between atoms: C17_29  and  O10_30 
ROOT
HETATM    1  C1  UNL     1      21.045  -9.533  26.990  1.00  0.00     0.047 C 
HETATM    2  C2  UNL     1      19.796  -8.707  26.596  1.00  0.00     0.068 C 
HETATM    3  C3  UNL     1      19.763  -8.689  25.159  1.00  0.00     0.025 C 
HETATM    4  C4  UNL     1      21.076  -9.071  24.422  1.00  0.00     0.009 C 
HETATM    5  C5  UNL     1      20.453  -9.074  23.011  1.00  0.00     0.012 C 
HETATM    6  C6  UNL     1      19.280  -8.081  23.071  1.00  0.00    -0.012 C 
HETATM    7  C8  UNL     1      17.949  -8.715  23.136  1.00  0.00     0.055 C 
HETATM    8  C9  UNL     1      16.984  -8.272  24.196  1.00  0.00     0.110 C 
HETATM    9  O4  UNL     1      17.081  -8.590  25.423  1.00  0.00    -0.350 OA
HETATM   10  C11 UNL     1      17.358  -9.428  26.322  1.00  0.00     0.185 A 
HETATM   11  C13 UNL     1      17.459  -8.747  27.746  1.00  0.00     0.178 A 
HETATM   12  C16 UNL     1      18.606  -9.435  27.155  1.00  0.00     0.101 A 
HETATM   13  C17 UNL     1      17.113  -6.728  24.217  1.00  0.00     0.155 C 
HETATM   14  C18 UNL     1      18.490  -6.501  24.794  1.00  0.00     0.041 C 
HETATM   15  C19 UNL     1      19.529  -7.438  24.419  1.00  0.00     0.005 C 
ENDROOT
BRANCH  11  16
HETATM   16  O7  UNL     1      16.800  -9.313  28.795  1.00  0.00    -0.371 OA
BRANCH  16  17
HETATM   17  C14 UNL     1      16.342  -8.314  29.648  1.00  0.00     0.281 C 
BRANCH  17  18
HETATM   18  C15 UNL     1      14.895  -8.538  29.955  1.00  0.00     0.197 C 
HETATM   19  O8  UNL     1      14.235  -9.379  29.311  1.00  0.00    -0.646 OA
HETATM   20  O9  UNL     1      14.291  -7.799  30.967  1.00  0.00    -0.646 OA
ENDBRANCH  17  18
ENDBRANCH  16  17
ENDBRANCH  11  16
BRANCH  10  21
HETATM   21  C12 UNL     1      16.456 -10.642  26.467  1.00  0.00     0.212 C 
HETATM   22  O5  UNL     1      16.994 -11.743  26.712  1.00  0.00    -0.646 OA
HETATM   23  O6  UNL     1      15.106 -10.553  26.338  1.00  0.00    -0.646 OA
ENDBRANCH  10  21
BRANCH   2  24
HETATM   24  O1  UNL     1      20.022  -7.489  27.235  1.00  0.00    -0.389 OA
ATOM     25  H1  UNL     1      20.677  -7.716  27.885  1.00  0.00     0.210 HD
ENDBRANCH   2  24
BRANCH   8  26
HETATM   26  C10 UNL     1      15.600  -8.522  23.529  1.00  0.00     0.204 C 
BRANCH  26  27
HETATM   27  O3  UNL     1      14.565  -8.452  24.410  1.00  0.00    -0.398 OA
ATOM     28  H3  UNL     1      14.754  -8.877  25.239  1.00  0.00     0.209 HD
ENDBRANCH  26  27
ENDBRANCH   8  26
BRANCH  13  29
HETATM   29  O10 UNL     1      16.118  -6.285  25.109  1.00  0.00    -0.392 OA
ATOM     30  H10 UNL     1      15.343  -6.789  24.891  1.00  0.00     0.210 HD
ENDBRANCH  13  29
BRANCH   6  31
HETATM   31  C7  UNL     1      19.510  -7.140  21.924  1.00  0.00     0.174 C 
BRANCH  31  32
HETATM   32  O2  UNL     1      20.648  -6.355  22.157  1.00  0.00    -0.400 OA
ATOM     33  H2  UNL     1      20.428  -5.431  22.114  1.00  0.00     0.209 HD
ENDBRANCH  31  32
ENDBRANCH   6  31
TORSDOF 10
ENDMDL
MODEL 3
REMARK VINA RESULT: -7.204320698      2.335      4.666
REMARK  10 active torsions:
REMARK  status: ('A' for Active; 'I' for Inactive)
REMARK    1  A    between atoms: C2_2  and  O1_3 
REMARK    2  A    between atoms: C6_8  and  C7_9 
REMARK    3  A    between atoms: C7_9  and  O2_10 
REMARK    4  A    between atoms: C9_13  and  C10_14 
REMARK    5  A    between atoms: C10_14  and  O3_15 
REMARK    6  A    between atoms: C11_18  and  C12_19 
REMARK    7  A    between atoms: C13_22  and  O7_23 
REMARK    8  A    between atoms: O7_23  and  C14_24 
REMARK    9  A    between atoms: C14_24  and  C15_25 
REMARK   10  A    between atoms: C17_29  and  O10_30 
ROOT
HETATM    1  C1  UNL     1      17.004  -6.065  27.341  1.00  0.00     0.047 C 
HETATM    2  C2  UNL     1      16.937  -7.226  26.318  1.00  0.00     0.068 C 
HETATM    3  C3  UNL     1      18.036  -8.099  26.628  1.00  0.00     0.025 C 
HETATM    4  C4  UNL     1      19.166  -7.514  27.519  1.00  0.00     0.009 C 
HETATM    5  C5  UNL     1      19.926  -8.847  27.680  1.00  0.00     0.012 C 
HETATM    6  C6  UNL     1      19.607  -9.664  26.416  1.00  0.00    -0.012 C 
HETATM    7  C8  UNL     1      18.630 -10.751  26.625  1.00  0.00     0.055 C 
HETATM    8  C9  UNL     1      17.455 -10.859  25.697  1.00  0.00     0.110 C 
HETATM    9  O4  UNL     1      16.447 -10.085  25.734  1.00  0.00    -0.350 OA
HETATM   10  C11 UNL     1      15.605  -9.408  26.382  1.00  0.00     0.185 A 
HETATM   11  C13 UNL     1      14.798  -8.425  25.441  1.00  0.00     0.178 A 
HETATM   12  C16 UNL     1      15.620  -7.915  26.538  1.00  0.00     0.101 A 
HETATM   13  C17 UNL     1      18.048 -10.605  24.289  1.00  0.00     0.155 C 
HETATM   14  C18 UNL     1      18.411  -9.140  24.322  1.00  0.00     0.041 C 
HETATM   15  C19 UNL     1      18.922  -8.611  25.571  1.00  0.00     0.005 C 
ENDROOT
BRANCH  11  16
HETATM   16  O7  UNL     1      13.440  -8.386  25.542  1.00  0.00    -0.371 OA
BRANCH  16  17
HETATM   17  C14 UNL     1      12.895  -8.001  24.320  1.00  0.00     0.281 C 
BRANCH  17  18
HETATM   18  C15 UNL     1      11.579  -8.683  24.119  1.00  0.00     0.197 C 
HETATM   19  O8  UNL     1      11.363  -9.803  24.626  1.00  0.00    -0.646 OA
HETATM   20  O9  UNL     1      10.596  -8.056  23.361  1.00  0.00    -0.646 OA
ENDBRANCH  17  18
ENDBRANCH  16  17
ENDBRANCH  11  16
BRANCH  10  21
HETATM   21  C12 UNL     1      14.590 -10.155  27.230  1.00  0.00     0.212 C 
HETATM   22  O5  UNL     1      14.407  -9.762  28.403  1.00  0.00    -0.646 OA
HETATM   23  O6  UNL     1      13.895 -11.218  26.748  1.00  0.00    -0.646 OA
ENDBRANCH  10  21
BRANCH   2  24
HETATM   24  O1  UNL     1      16.989  -6.558  25.096  1.00  0.00    -0.389 OA
ATOM     25  H1  UNL     1      16.233  -5.985  25.141  1.00  0.00     0.210 HD
ENDBRANCH   2  24
BRANCH   8  26
HETATM   26  C10 UNL     1      17.150 -12.385  25.705  1.00  0.00     0.204 C 
BRANCH  26  27
HETATM   27  O3  UNL     1      15.923 -12.684  25.200  1.00  0.00    -0.398 OA
ATOM     28  H3  UNL     1      15.376 -13.161  25.812  1.00  0.00     0.209 HD
ENDBRANCH  26  27
ENDBRANCH   8  26
BRANCH  13  29
HETATM   29  O10 UNL     1      16.988 -10.837  23.392  1.00  0.00    -0.392 OA
ATOM     30  H10 UNL     1      16.846 -10.008  22.952  1.00  0.00     0.210 HD
ENDBRANCH  13  29
BRANCH   6  31
HETATM   31  C7  UNL     1      20.945 -10.072  25.871  1.00  0.00     0.174 C 
BRANCH  31  32
HETATM   32  O2  UNL     1      21.738  -8.942  25.626  1.00  0.00    -0.400 OA
ATOM     33  H2  UNL     1      22.428  -9.149  25.007  1.00  0.00     0.209 HD
ENDBRANCH  31  32
ENDBRANCH   6  31
TORSDOF 10
ENDMDL
MODEL 4
REMARK VINA RESULT: -6.987747525      1.840      6.172
REMARK  10 active torsions:
REMARK  status: ('A' for Active; 'I' for Inactive)
REMARK    1  A    between atoms: C2_2  and  O1_3 
REMARK    2  A    between atoms: C6_8  and  C7_9 
REMARK    3  A    between atoms: C7_9  and  O2_10 
REMARK    4  A    between atoms: C9_13  and  C10_14 
REMARK    5  A    between atoms: C10_14  and  O3_15 
REMARK    6  A    between atoms: C11_18  and  C12_19 
REMARK    7  A    between atoms: C13_22  and  O7_23 
REMARK    8  A    between atoms: O7_23  and  C14_24 
REMARK    9  A    between atoms: C14_24  and  C15_25 
REMARK   10  A    between atoms: C17_29  and  O10_30 
ROOT
HETATM    1  C1  UNL     1      13.536  -8.064  24.102  1.00  0.00     0.047 C 
HETATM    2  C2  UNL     1      14.893  -7.652  24.726  1.00  0.00     0.068 C 
HETATM    3  C3  UNL     1      14.991  -8.355  25.976  1.00  0.00     0.025 C 
HETATM    4  C4  UNL     1      13.675  -8.943  26.555  1.00  0.00     0.009 C 
HETATM    5  C5  UNL     1      14.353  -9.701  27.714  1.00  0.00     0.012 C 
HETATM    6  C6  UNL     1      15.634  -8.912  28.034  1.00  0.00    -0.012 C 
HETATM    7  C8  UNL     1      16.875  -9.537  27.537  1.00  0.00     0.055 C 
HETATM    8  C9  UNL     1      17.839  -8.707  26.741  1.00  0.00     0.110 C 
HETATM    9  O4  UNL     1      17.650  -8.362  25.532  1.00  0.00    -0.350 OA
HETATM   10  C11 UNL     1      17.235  -8.614  24.370  1.00  0.00     0.185 A 
HETATM   11  C13 UNL     1      17.155  -7.308  23.481  1.00  0.00     0.178 A 
HETATM   12  C16 UNL     1      15.960  -8.101  23.767  1.00  0.00     0.101 A 
HETATM   13  C17 UNL     1      17.897  -7.354  27.493  1.00  0.00     0.155 C 
HETATM   14  C18 UNL     1      16.534  -6.755  27.240  1.00  0.00     0.041 C 
HETATM   15  C19 UNL     1      15.407  -7.665  27.207  1.00  0.00     0.005 C 
ENDROOT
BRANCH  11  16
HETATM   16  O7  UNL     1      17.694  -7.328  22.230  1.00  0.00    -0.371 OA
BRANCH  16  17
HETATM   17  C14 UNL     1      16.678  -7.229  21.285  1.00  0.00     0.281 C 
BRANCH  17  18
HETATM   18  C15 UNL     1      16.628  -5.835  20.745  1.00  0.00     0.197 C 
HETATM   19  O8  UNL     1      17.361  -5.500  19.792  1.00  0.00    -0.646 OA
HETATM   20  O9  UNL     1      15.757  -4.913  21.316  1.00  0.00    -0.646 OA
ENDBRANCH  17  18
ENDBRANCH  16  17
ENDBRANCH  11  16
BRANCH  10  21
HETATM   21  C12 UNL     1      17.976  -9.665  23.560  1.00  0.00     0.212 C 
HETATM   22  O5  UNL     1      17.297 -10.477  22.897  1.00  0.00    -0.646 OA
HETATM   23  O6  UNL     1      19.333  -9.734  23.545  1.00  0.00    -0.646 OA
ENDBRANCH  10  21
BRANCH   2  24
HETATM   24  O1  UNL     1      14.788  -6.264  24.792  1.00  0.00    -0.389 OA
ATOM     25  H1  UNL     1      14.680  -6.021  23.879  1.00  0.00     0.210 HD
ENDBRANCH   2  24
BRANCH   8  26
HETATM   26  C10 UNL     1      19.210  -9.371  27.060  1.00  0.00     0.204 C 
BRANCH  26  27
HETATM   27  O3  UNL     1      20.207  -8.954  26.232  1.00  0.00    -0.398 OA
ATOM     28  H3  UNL     1      20.920  -8.531  26.695  1.00  0.00     0.209 HD
ENDBRANCH  26  27
ENDBRANCH   8  26
BRANCH  13  29
HETATM   29  O10 UNL     1      18.899  -6.609  26.840  1.00  0.00    -0.392 OA
ATOM     30  H10 UNL     1      18.571  -5.719  26.813  1.00  0.00     0.210 HD
ENDBRANCH  13  29
BRANCH   6  31
HETATM   31  C7  UNL     1      15.570  -8.652  29.512  1.00  0.00     0.174 C 
BRANCH  31  32
HETATM   32  O2  UNL     1      14.322  -9.036  30.021  1.00  0.00    -0.400 OA
ATOM     33  H2  UNL     1      14.122  -8.547  30.811  1.00  0.00     0.209 HD
ENDBRANCH  31  32
ENDBRANCH   6  31
TORSDOF 10
ENDMDL
MODEL 5
REMARK VINA RESULT: -6.949137240      1.726      4.054
REMARK  10 active torsions:
REMARK  status: ('A' for Active; 'I' for Inactive)
REMARK    1  A    between atoms: C2_2  and  O1_3 
REMARK    2  A    between atoms: C6_8  and  C7_9 
REMARK    3  A    between atoms: C7_9  and  O2_10 
REMARK    4  A    between atoms: C9_13  and  C10_14 
REMARK    5  A    between atoms: C10_14  and  O3_15 
REMARK    6  A    between atoms: C11_18  and  C12_19 
REMARK    7  A    between atoms: C13_22  and  O7_23 
REMARK    8  A    between atoms: O7_23  and  C14_24 
REMARK    9  A    between atoms: C14_24  and  C15_25 
REMARK   10  A    between atoms: C17_29  and  O10_30 
ROOT
HETATM    1  C1  UNL     1      17.193  -6.947  22.728  1.00  0.00     0.047 C 
HETATM    2  C2  UNL     1      17.132  -8.035  23.829  1.00  0.00     0.068 C 
HETATM    3  C3  UNL     1      18.490  -8.440  24.069  1.00  0.00     0.025 C 
HETATM    4  C4  UNL     1      19.537  -8.063  22.984  1.00  0.00     0.009 C 
HETATM    5  C5  UNL     1      20.761  -8.535  23.796  1.00  0.00     0.012 C 
HETATM    6  C6  UNL     1      20.243  -9.649  24.721  1.00  0.00    -0.012 C 
HETATM    7  C8  UNL     1      20.071  -9.241  26.129  1.00  0.00     0.055 C 
HETATM    8  C9  UNL     1      18.770  -9.533  26.817  1.00  0.00     0.110 C 
HETATM    9  O4  UNL     1      17.694  -8.889  26.606  1.00  0.00    -0.350 OA
HETATM   10  C11 UNL     1      17.088  -7.809  26.375  1.00  0.00     0.185 A 
HETATM   11  C13 UNL     1      15.592  -8.062  25.929  1.00  0.00     0.178 A 
HETATM   12  C16 UNL     1      16.538  -7.383  25.045  1.00  0.00     0.101 A 
HETATM   13  C17 UNL     1      18.414 -10.974  26.376  1.00  0.00     0.155 C 
HETATM   14  C18 UNL     1      18.079 -10.819  24.912  1.00  0.00     0.041 C 
HETATM   15  C19 UNL     1      18.857  -9.862  24.151  1.00  0.00     0.005 C 
ENDROOT
BRANCH  11  16
HETATM   16  O7  UNL     1      14.596  -7.350  26.527  1.00  0.00    -0.371 OA
BRANCH  16  17
HETATM   17  C14 UNL     1      13.605  -8.220  26.969  1.00  0.00     0.281 C 
BRANCH  17  18
HETATM   18  C15 UNL     1      14.077  -8.941  28.191  1.00  0.00     0.197 C 
HETATM   19  O8  UNL     1      14.490 -10.116  28.112  1.00  0.00    -0.646 OA
HETATM   20  O9  UNL     1      14.052  -8.289  29.420  1.00  0.00    -0.646 OA
ENDBRANCH  17  18
ENDBRANCH  16  17
ENDBRANCH  11  16
BRANCH  10  21
HETATM   21  C12 UNL     1      17.058  -6.759  27.473  1.00  0.00     0.212 C 
HETATM   22  O5  UNL     1      17.164  -5.560  27.137  1.00  0.00    -0.646 OA
HETATM   23  O6  UNL     1      16.922  -7.094  28.783  1.00  0.00    -0.646 OA
ENDBRANCH  10  21
BRANCH   2  24
HETATM   24  O1  UNL     1      16.282  -8.987  23.268  1.00  0.00    -0.389 OA
ATOM     25  H1  UNL     1      15.432  -8.566  23.328  1.00  0.00     0.210 HD
ENDBRANCH   2  24
BRANCH   8  26
HETATM   26  C10 UNL     1      19.195  -9.691  28.305  1.00  0.00     0.204 C 
BRANCH  26  27
HETATM   27  O3  UNL     1      18.141  -9.647  29.166  1.00  0.00    -0.398 OA
ATOM     28  H3  UNL     1      17.333  -9.373  28.749  1.00  0.00     0.209 HD
ENDBRANCH  26  27
ENDBRANCH   8  26
BRANCH  13  29
HETATM   29  O10 UNL     1      17.267 -11.317  27.118  1.00  0.00    -0.392 OA
ATOM     30  H10 UNL     1      17.304 -10.778  27.899  1.00  0.00     0.210 HD
ENDBRANCH  13  29
BRANCH   6  31
HETATM   31  C7  UNL     1      21.161 -10.813  24.477  1.00  0.00     0.174 C 
BRANCH  31  32
HETATM   32  O2  UNL     1      21.830 -11.163  25.658  1.00  0.00    -0.400 OA
ATOM     33  H2  UNL     1      22.497 -11.816  25.480  1.00  0.00     0.209 HD
ENDBRANCH  31  32
ENDBRANCH   6  31
TORSDOF 10
ENDMDL
