MODEL 1
REMARK VINA RESULT: -7.859954814      0.000      0.000
REMARK  7 active torsions:
REMARK  status: ('A' for Active; 'I' for Inactive)
REMARK    1  A    between atoms: N1_2  and  C2_5 
REMARK    2  A    between atoms: C2_5  and  C4_7 
REMARK    3  A    between atoms: C4_7  and  O1_8 
REMARK    4  A    between atoms: C4_7  and  N2_10 
REMARK    5  A    between atoms: N2_10  and  C5_12 
REMARK    6  A    between atoms: C5_12  and  C6_13 
REMARK       I    between atoms: C6_13  and  N3_15 
REMARK    7  A    between atoms: N3_15  and  C7_17 
ROOT
HETATM    1  C5  UNL     1      14.030  -7.882  25.062  1.00  0.00     0.210 C 
HETATM    2  C11 UNL     1      14.538  -6.674  25.709  1.00  0.00     0.096 C 
HETATM    3  C12 UNL     1      15.970  -6.491  26.049  1.00  0.00     0.188 C 
HETATM    4  N4  UNL     1      16.803  -6.088  24.927  1.00  0.00    -0.068 NA
HETATM    5  N5  UNL     1      16.440  -7.464  26.872  1.00  0.00    -0.407 NA
HETATM    6  C13 UNL     1      17.139  -8.175  27.487  1.00  0.00     0.157 C 
HETATM    7  C14 UNL     1      16.486  -9.251  28.357  1.00  0.00     0.069 C 
HETATM    8  C15 UNL     1      14.959  -9.135  28.156  1.00  0.00     0.109 C 
HETATM    9  C16 UNL     1      14.726  -9.668  26.792  1.00  0.00     0.220 C 
HETATM   10  O3  UNL     1      15.307 -10.809  26.610  1.00  0.00    -0.274 OA
HETATM   11  N6  UNL     1      14.003  -9.123  25.742  1.00  0.00    -0.324 N 
ATOM     12  H6  UNL     1      13.292  -9.758  25.379  1.00  0.00     0.165 HD
ENDROOT
BRANCH   1  13
HETATM   13  N2  UNL     1      12.660  -7.589  24.658  1.00  0.00    -0.358 N 
ATOM     14  H2  UNL     1      12.159  -6.826  25.113  1.00  0.00     0.159 HD
BRANCH  13  15
HETATM   15  C4  UNL     1      12.029  -8.313  23.682  1.00  0.00     0.246 C 
BRANCH  15  16
HETATM   16  C2  UNL     1      11.000  -7.656  22.795  1.00  0.00     0.229 C 
HETATM   17  C3  UNL     1      10.034  -8.763  22.320  1.00  0.00     0.044 C 
BRANCH  16  18
HETATM   18  N1  UNL     1      10.274  -6.593  23.424  1.00  0.00    -0.071 N 
HETATM   19  C1  UNL     1       9.549  -5.794  22.470  1.00  0.00     0.267 C 
ATOM     20  H12 UNL     1      10.888  -6.015  23.999  1.00  0.00     0.277 HD
ATOM     21  H11 UNL     1       9.656  -6.949  24.154  1.00  0.00     0.277 HD
ENDBRANCH  16  18
ENDBRANCH  15  16
BRANCH  15  22
HETATM   22  O1  UNL     1      11.363  -9.403  24.301  1.00  0.00    -0.375 OA
ATOM     23  H1  UNL     1      11.536 -10.156  23.749  1.00  0.00     0.212 HD
ENDBRANCH  15  22
ENDBRANCH  13  15
ENDBRANCH   1  13
BRANCH   1  24
HETATM   24  C6  UNL     1      14.768  -8.043  23.767  1.00  0.00     0.272 C 
HETATM   25  O2  UNL     1      15.529  -9.025  23.654  1.00  0.00    -0.268 OA
HETATM   26  N3  UNL     1      14.642  -7.141  22.685  1.00  0.00    -0.343 N 
ATOM     27  H3  UNL     1      14.025  -6.332  22.769  1.00  0.00     0.163 HD
BRANCH  26  28
HETATM   28  C7  UNL     1      15.387  -7.357  21.446  1.00  0.00     0.156 C 
HETATM   29  C8  UNL     1      14.479  -7.542  20.262  1.00  0.00     0.110 C 
HETATM   30  S1  UNL     1      15.381  -7.151  18.743  1.00  0.00    -0.166 SA
HETATM   31  C9  UNL     1      17.140  -7.550  18.970  1.00  0.00     0.084 C 
HETATM   32  C10 UNL     1      17.762  -6.571  19.952  1.00  0.00     0.086 C 
HETATM   33  S2  UNL     1      16.476  -5.934  21.087  1.00  0.00    -0.142 SA
ENDBRANCH  26  28
ENDBRANCH   1  24
TORSDOF 7
ENDMDL
MODEL 2
REMARK VINA RESULT: -7.535734344      1.521      1.576
REMARK  7 active torsions:
REMARK  status: ('A' for Active; 'I' for Inactive)
REMARK    1  A    between atoms: N1_2  and  C2_5 
REMARK    2  A    between atoms: C2_5  and  C4_7 
REMARK    3  A    between atoms: C4_7  and  O1_8 
REMARK    4  A    between atoms: C4_7  and  N2_10 
REMARK    5  A    between atoms: N2_10  and  C5_12 
REMARK    6  A    between atoms: C5_12  and  C6_13 
REMARK       I    between atoms: C6_13  and  N3_15 
REMARK    7  A    between atoms: N3_15  and  C7_17 
ROOT
HETATM    1  C5  UNL     1      14.688  -7.863  24.696  1.00  0.00     0.210 C 
HETATM    2  C11 UNL     1      15.105  -6.598  25.296  1.00  0.00     0.096 C 
HETATM    3  C12 UNL     1      16.329  -6.472  26.125  1.00  0.00     0.188 C 
HETATM    4  N4  UNL     1      17.561  -6.371  25.359  1.00  0.00    -0.068 NA
HETATM    5  N5  UNL     1      16.318  -7.299  27.202  1.00  0.00    -0.407 NA
HETATM    6  C13 UNL     1      16.632  -7.931  28.137  1.00  0.00     0.157 C 
HETATM    7  C14 UNL     1      15.554  -8.755  28.845  1.00  0.00     0.069 C 
HETATM    8  C15 UNL     1      14.238  -8.554  28.062  1.00  0.00     0.109 C 
HETATM    9  C16 UNL     1      14.434  -9.325  26.810  1.00  0.00     0.220 C 
HETATM   10  O3  UNL     1      14.861 -10.523  27.038  1.00  0.00    -0.274 OA
HETATM   11  N6  UNL     1      14.229  -8.939  25.494  1.00  0.00    -0.324 N 
ATOM     12  H6  UNL     1      13.609  -9.571  24.987  1.00  0.00     0.165 HD
ENDROOT
BRANCH   1  13
HETATM   13  N2  UNL     1      13.616  -7.542  23.760  1.00  0.00    -0.358 N 
ATOM     14  H2  UNL     1      13.836  -7.017  22.914  1.00  0.00     0.159 HD
BRANCH  13  15
HETATM   15  C4  UNL     1      12.323  -7.928  23.990  1.00  0.00     0.246 C 
BRANCH  15  16
HETATM   16  C2  UNL     1      11.258  -7.669  22.953  1.00  0.00     0.229 C 
HETATM   17  C3  UNL     1      10.503  -8.998  22.732  1.00  0.00     0.044 C 
BRANCH  16  18
HETATM   18  N1  UNL     1      10.341  -6.623  23.300  1.00  0.00    -0.071 N 
HETATM   19  C1  UNL     1       9.771  -5.995  22.137  1.00  0.00     0.267 C 
ATOM     20  H12 UNL     1      10.780  -5.936  23.914  1.00  0.00     0.277 HD
ATOM     21  H11 UNL     1       9.614  -6.963  23.931  1.00  0.00     0.277 HD
ENDBRANCH  16  18
ENDBRANCH  15  16
BRANCH  15  22
HETATM   22  O1  UNL     1      11.873  -7.284  25.173  1.00  0.00    -0.375 OA
ATOM     23  H1  UNL     1      11.463  -6.478  24.885  1.00  0.00     0.212 HD
ENDBRANCH  15  22
ENDBRANCH  13  15
ENDBRANCH   1  13
BRANCH   1  24
HETATM   24  C6  UNL     1      15.808  -8.338  23.821  1.00  0.00     0.272 C 
HETATM   25  O2  UNL     1      16.321  -9.444  24.088  1.00  0.00    -0.268 OA
HETATM   26  N3  UNL     1      16.304  -7.596  22.723  1.00  0.00    -0.343 N 
ATOM     27  H3  UNL     1      15.894  -6.689  22.500  1.00  0.00     0.163 HD
BRANCH  26  28
HETATM   28  C7  UNL     1      17.398  -8.118  21.907  1.00  0.00     0.156 C 
HETATM   29  C8  UNL     1      16.908  -8.720  20.619  1.00  0.00     0.110 C 
HETATM   30  S1  UNL     1      18.254  -8.737  19.410  1.00  0.00    -0.166 SA
HETATM   31  C9  UNL     1      19.840  -8.913  20.281  1.00  0.00     0.084 C 
HETATM   32  C10 UNL     1      20.143  -7.639  21.052  1.00  0.00     0.086 C 
HETATM   33  S2  UNL     1      18.579  -6.791  21.479  1.00  0.00    -0.142 SA
ENDBRANCH  26  28
ENDBRANCH   1  24
TORSDOF 7
ENDMDL
MODEL 3
REMARK VINA RESULT: -7.478621929      1.491      1.577
REMARK  7 active torsions:
REMARK  status: ('A' for Active; 'I' for Inactive)
REMARK    1  A    between atoms: N1_2  and  C2_5 
REMARK    2  A    between atoms: C2_5  and  C4_7 
REMARK    3  A    between atoms: C4_7  and  O1_8 
REMARK    4  A    between atoms: C4_7  and  N2_10 
REMARK    5  A    between atoms: N2_10  and  C5_12 
REMARK    6  A    between atoms: C5_12  and  C6_13 
REMARK       I    between atoms: C6_13  and  N3_15 
REMARK    7  A    between atoms: N3_15  and  C7_17 
ROOT
HETATM    1  C5  UNL     1      14.564  -7.639  25.547  1.00  0.00     0.210 C 
HETATM    2  C11 UNL     1      15.185  -6.421  26.064  1.00  0.00     0.096 C 
HETATM    3  C12 UNL     1      16.553  -6.402  26.636  1.00  0.00     0.188 C 
HETATM    4  N4  UNL     1      17.615  -6.371  25.643  1.00  0.00    -0.068 NA
HETATM    5  N5  UNL     1      16.692  -7.250  27.687  1.00  0.00    -0.407 NA
HETATM    6  C13 UNL     1      17.135  -7.924  28.537  1.00  0.00     0.157 C 
HETATM    7  C14 UNL     1      16.158  -8.684  29.437  1.00  0.00     0.069 C 
HETATM    8  C15 UNL     1      14.733  -8.372  28.930  1.00  0.00     0.109 C 
HETATM    9  C16 UNL     1      14.622  -9.126  27.658  1.00  0.00     0.220 C 
HETATM   10  O3  UNL     1      14.994 -10.357  27.788  1.00  0.00    -0.274 OA
HETATM   11  N6  UNL     1      14.192  -8.696  26.411  1.00  0.00    -0.324 N 
ATOM     12  H6  UNL     1      13.440  -9.271  26.032  1.00  0.00     0.165 HD
ENDROOT
BRANCH   1  13
HETATM   13  N2  UNL     1      13.357  -7.220  24.843  1.00  0.00    -0.358 N 
ATOM     14  H2  UNL     1      13.257  -6.245  24.564  1.00  0.00     0.159 HD
BRANCH  13  15
HETATM   15  C4  UNL     1      12.355  -8.105  24.550  1.00  0.00     0.246 C 
BRANCH  15  16
HETATM   16  C2  UNL     1      11.684  -8.070  23.199  1.00  0.00     0.229 C 
HETATM   17  C3  UNL     1      10.315  -7.380  23.387  1.00  0.00     0.044 C 
BRANCH  16  18
HETATM   18  N1  UNL     1      12.444  -7.407  22.181  1.00  0.00    -0.071 N 
HETATM   19  C1  UNL     1      11.619  -6.983  21.079  1.00  0.00     0.267 C 
ATOM     20  H12 UNL     1      13.219  -7.988  21.861  1.00  0.00     0.277 HD
ATOM     21  H11 UNL     1      12.976  -6.626  22.567  1.00  0.00     0.277 HD
ENDBRANCH  16  18
ENDBRANCH  15  16
BRANCH  15  22
HETATM   22  O1  UNL     1      11.315  -7.928  25.500  1.00  0.00    -0.375 OA
ATOM     23  H1  UNL     1      11.619  -7.248  26.089  1.00  0.00     0.212 HD
ENDBRANCH  15  22
ENDBRANCH  13  15
ENDBRANCH   1  13
BRANCH   1  24
HETATM   24  C6  UNL     1      15.453  -8.173  24.465  1.00  0.00     0.272 C 
HETATM   25  O2  UNL     1      15.924  -9.318  24.617  1.00  0.00    -0.268 OA
HETATM   26  N3  UNL     1      15.778  -7.443  23.297  1.00  0.00    -0.343 N 
ATOM     27  H3  UNL     1      15.401  -6.504  23.166  1.00  0.00     0.163 HD
BRANCH  26  28
HETATM   28  C7  UNL     1      16.649  -8.024  22.277  1.00  0.00     0.156 C 
HETATM   29  C8  UNL     1      15.947  -8.185  20.956  1.00  0.00     0.110 C 
HETATM   30  S1  UNL     1      17.172  -8.264  19.627  1.00  0.00    -0.166 SA
HETATM   31  C9  UNL     1      18.701  -9.014  20.264  1.00  0.00     0.084 C 
HETATM   32  C10 UNL     1      19.371  -8.058  21.238  1.00  0.00     0.086 C 
HETATM   33  S2  UNL     1      18.113  -6.967  21.996  1.00  0.00    -0.142 SA
ENDBRANCH  26  28
ENDBRANCH   1  24
TORSDOF 7
ENDMDL
MODEL 4
REMARK VINA RESULT: -7.281319629      2.622      2.982
REMARK  7 active torsions:
REMARK  status: ('A' for Active; 'I' for Inactive)
REMARK    1  A    between atoms: N1_2  and  C2_5 
REMARK    2  A    between atoms: C2_5  and  C4_7 
REMARK    3  A    between atoms: C4_7  and  O1_8 
REMARK    4  A    between atoms: C4_7  and  N2_10 
REMARK    5  A    between atoms: N2_10  and  C5_12 
REMARK    6  A    between atoms: C5_12  and  C6_13 
REMARK       I    between atoms: C6_13  and  N3_15 
REMARK    7  A    between atoms: N3_15  and  C7_17 
ROOT
HETATM    1  C5  UNL     1      14.563  -7.655  25.579  1.00  0.00     0.210 C 
HETATM    2  C11 UNL     1      15.207  -6.438  26.068  1.00  0.00     0.096 C 
HETATM    3  C12 UNL     1      16.574  -6.434  26.644  1.00  0.00     0.188 C 
HETATM    4  N4  UNL     1      17.639  -6.450  25.655  1.00  0.00    -0.068 NA
HETATM    5  N5  UNL     1      16.691  -7.259  27.717  1.00  0.00    -0.407 NA
HETATM    6  C13 UNL     1      17.118  -7.921  28.585  1.00  0.00     0.157 C 
HETATM    7  C14 UNL     1      16.122  -8.638  29.499  1.00  0.00     0.069 C 
HETATM    8  C15 UNL     1      14.706  -8.309  28.980  1.00  0.00     0.109 C 
HETATM    9  C16 UNL     1      14.583  -9.091  27.726  1.00  0.00     0.220 C 
HETATM   10  O3  UNL     1      14.928 -10.326  27.887  1.00  0.00    -0.274 OA
HETATM   11  N6  UNL     1      14.166  -8.683  26.467  1.00  0.00    -0.324 N 
ATOM     12  H6  UNL     1      13.402  -9.251  26.100  1.00  0.00     0.165 HD
ENDROOT
BRANCH   1  13
HETATM   13  N2  UNL     1      13.367  -7.229  24.861  1.00  0.00    -0.358 N 
ATOM     14  H2  UNL     1      13.290  -6.260  24.554  1.00  0.00     0.159 HD
BRANCH  13  15
HETATM   15  C4  UNL     1      12.345  -8.099  24.591  1.00  0.00     0.246 C 
BRANCH  15  16
HETATM   16  C2  UNL     1      11.673  -8.083  23.239  1.00  0.00     0.229 C 
HETATM   17  C3  UNL     1      10.321  -7.358  23.410  1.00  0.00     0.044 C 
BRANCH  16  18
HETATM   18  N1  UNL     1      12.448  -7.464  22.205  1.00  0.00    -0.071 N 
HETATM   19  C1  UNL     1      11.629  -7.029  21.102  1.00  0.00     0.267 C 
ATOM     20  H12 UNL     1      13.199  -8.077  21.888  1.00  0.00     0.277 HD
ATOM     21  H11 UNL     1      13.009  -6.695  22.573  1.00  0.00     0.277 HD
ENDBRANCH  16  18
ENDBRANCH  15  16
BRANCH  15  22
HETATM   22  O1  UNL     1      11.310  -7.873  25.536  1.00  0.00    -0.375 OA
ATOM     23  H1  UNL     1      11.435  -8.526  26.214  1.00  0.00     0.212 HD
ENDBRANCH  15  22
ENDBRANCH  13  15
ENDBRANCH   1  13
BRANCH   1  24
HETATM   24  C6  UNL     1      15.443  -8.235  24.514  1.00  0.00     0.272 C 
HETATM   25  O2  UNL     1      15.377  -7.733  23.373  1.00  0.00    -0.268 OA
HETATM   26  N3  UNL     1      16.330  -9.313  24.741  1.00  0.00    -0.343 N 
ATOM     27  H3  UNL     1      16.388  -9.733  25.669  1.00  0.00     0.163 HD
BRANCH  26  28
HETATM   28  C7  UNL     1      17.165  -9.831  23.658  1.00  0.00     0.156 C 
HETATM   29  C8  UNL     1      18.483  -9.113  23.566  1.00  0.00     0.110 C 
HETATM   30  S1  UNL     1      19.684 -10.165  22.713  1.00  0.00    -0.166 SA
HETATM   31  C9  UNL     1      18.813 -11.218  21.515  1.00  0.00     0.084 C 
HETATM   32  C10 UNL     1      17.978 -12.251  22.254  1.00  0.00     0.086 C 
HETATM   33  S2  UNL     1      17.520 -11.606  23.904  1.00  0.00    -0.142 SA
ENDBRANCH  26  28
ENDBRANCH   1  24
TORSDOF 7
ENDMDL
MODEL 5
REMARK VINA RESULT: -7.280050524      3.169      6.146
REMARK  7 active torsions:
REMARK  status: ('A' for Active; 'I' for Inactive)
REMARK    1  A    between atoms: N1_2  and  C2_5 
REMARK    2  A    between atoms: C2_5  and  C4_7 
REMARK    3  A    between atoms: C4_7  and  O1_8 
REMARK    4  A    between atoms: C4_7  and  N2_10 
REMARK    5  A    between atoms: N2_10  and  C5_12 
REMARK    6  A    between atoms: C5_12  and  C6_13 
REMARK       I    between atoms: C6_13  and  N3_15 
REMARK    7  A    between atoms: N3_15  and  C7_17 
ROOT
HETATM    1  C5  UNL     1      15.765  -7.858  23.018  1.00  0.00     0.210 C 
HETATM    2  C11 UNL     1      16.311  -8.876  22.122  1.00  0.00     0.096 C 
HETATM    3  C12 UNL     1      17.562  -8.674  21.353  1.00  0.00     0.188 C 
HETATM    4  N4  UNL     1      18.777  -8.882  22.124  1.00  0.00    -0.068 NA
HETATM    5  N5  UNL     1      17.505  -7.590  20.537  1.00  0.00    -0.407 NA
HETATM    6  C13 UNL     1      17.786  -6.705  19.822  1.00  0.00     0.157 C 
HETATM    7  C14 UNL     1      16.657  -5.809  19.309  1.00  0.00     0.069 C 
HETATM    8  C15 UNL     1      15.344  -6.318  19.943  1.00  0.00     0.109 C 
HETATM    9  C16 UNL     1      15.437  -5.903  21.363  1.00  0.00     0.220 C 
HETATM   10  O3  UNL     1      15.760  -4.657  21.486  1.00  0.00    -0.274 OA
HETATM   11  N6  UNL     1      15.233  -6.647  22.516  1.00  0.00    -0.324 N 
ATOM     12  H6  UNL     1      14.546  -6.227  23.142  1.00  0.00     0.165 HD
ENDROOT
BRANCH   1  13
HETATM   13  N2  UNL     1      14.702  -8.505  23.780  1.00  0.00    -0.358 N 
ATOM     14  H2  UNL     1      14.754  -9.509  23.951  1.00  0.00     0.159 HD
BRANCH  13  15
HETATM   15  C4  UNL     1      13.637  -7.798  24.268  1.00  0.00     0.246 C 
BRANCH  15  16
HETATM   16  C2  UNL     1      12.921  -8.267  25.511  1.00  0.00     0.229 C 
HETATM   17  C3  UNL     1      11.490  -8.667  25.091  1.00  0.00     0.044 C 
BRANCH  16  18
HETATM   18  N1  UNL     1      13.567  -9.353  26.188  1.00  0.00    -0.071 N 
HETATM   19  C1  UNL     1      14.207  -8.928  27.406  1.00  0.00     0.267 C 
ATOM     20  H12 UNL     1      14.224  -9.833  25.573  1.00  0.00     0.277 HD
ATOM     21  H11 UNL     1      12.916 -10.120  26.360  1.00  0.00     0.277 HD
ENDBRANCH  16  18
ENDBRANCH  15  16
BRANCH  15  22
HETATM   22  O1  UNL     1      12.645  -7.735  23.255  1.00  0.00    -0.375 OA
ATOM     23  H1  UNL     1      13.060  -8.069  22.469  1.00  0.00     0.212 HD
ENDBRANCH  15  22
ENDBRANCH  13  15
ENDBRANCH   1  13
BRANCH   1  24
HETATM   24  C6  UNL     1      16.814  -7.551  24.043  1.00  0.00     0.272 C 
HETATM   25  O2  UNL     1      17.231  -6.377  24.109  1.00  0.00    -0.268 OA
HETATM   26  N3  UNL     1      17.348  -8.522  24.923  1.00  0.00    -0.343 N 
ATOM     27  H3  UNL     1      17.016  -9.486  24.874  1.00  0.00     0.163 HD
BRANCH  26  28
HETATM   28  C7  UNL     1      18.369  -8.155  25.903  1.00  0.00     0.156 C 
HETATM   29  C8  UNL     1      17.805  -8.038  27.293  1.00  0.00     0.110 C 
HETATM   30  S1  UNL     1      19.135  -8.241  28.503  1.00  0.00    -0.166 SA
HETATM   31  C9  UNL     1      20.691  -7.627  27.791  1.00  0.00     0.084 C 
HETATM   32  C10 UNL     1      21.148  -8.559  26.681  1.00  0.00     0.086 C 
HETATM   33  S2  UNL     1      19.699  -9.407  25.953  1.00  0.00    -0.142 SA
ENDBRANCH  26  28
ENDBRANCH   1  24
TORSDOF 7
ENDMDL
