MODEL 1
REMARK VINA RESULT: -8.171382897      0.000      0.000
REMARK  6 active torsions:
REMARK  status: ('A' for Active; 'I' for Inactive)
REMARK       I    between atoms: C1_4  and  N3_6 
REMARK    1  A    between atoms: N3_6  and  N4_8 
REMARK    2  A    between atoms: C9_21  and  C10_22 
REMARK       I    between atoms: C10_22  and  N5_24 
REMARK    3  A    between atoms: N5_24  and  C11_26 
REMARK    4  A    between atoms: C11_26  and  C12_27 
REMARK    5  A    between atoms: C11_26  and  C14_30 
REMARK    6  A    between atoms: C12_27  and  C13_28 
ROOT
HETATM    1  N4  UNL     1      12.633  -5.799  18.608  1.00  0.00    -0.307 N 
ATOM      2  H4  UNL     1      11.943  -5.116  18.922  1.00  0.00     0.186 HD
HETATM    3  C2  UNL     1      13.181  -6.591  19.442  1.00  0.00     0.004 C 
HETATM    4  C3  UNL     1      12.880  -6.597  20.897  1.00  0.00     0.057 C 
HETATM    5  C4  UNL     1      13.757  -7.695  21.514  1.00  0.00     0.045 C 
HETATM    6  C5  UNL     1      15.195  -7.503  21.223  1.00  0.00     0.088 C 
HETATM    7  C6  UNL     1      15.460  -7.267  19.742  1.00  0.00     0.045 C 
HETATM    8  C7  UNL     1      14.195  -7.593  18.982  1.00  0.00     0.057 C 
HETATM    9  O1  UNL     1      15.879  -8.638  21.637  1.00  0.00    -0.364 OA
HETATM   10  C8  UNL     1      17.218  -8.507  21.401  1.00  0.00     0.309 C 
HETATM   11  S1  UNL     1      17.509  -6.742  21.644  1.00  0.00     0.182 S 
HETATM   12  O2  UNL     1      18.396  -6.480  22.800  1.00  0.00    -0.225 OA
HETATM   13  O3  UNL     1      17.950  -6.090  20.389  1.00  0.00    -0.225 OA
HETATM   14  C9  UNL     1      15.778  -6.371  22.023  1.00  0.00     0.236 C 
ENDROOT
BRANCH  14  15
HETATM   15  C10 UNL     1      15.589  -6.531  23.447  1.00  0.00     0.240 C 
HETATM   16  O4  UNL     1      15.915  -5.541  24.204  1.00  0.00    -0.272 OA
HETATM   17  N5  UNL     1      15.083  -7.661  24.135  1.00  0.00    -0.345 N 
ATOM     18  H5  UNL     1      14.803  -8.481  23.597  1.00  0.00     0.163 HD
BRANCH  17  19
HETATM   19  C11 UNL     1      14.948  -7.689  25.587  1.00  0.00     0.186 C 
BRANCH  19  20
HETATM   20  C12 UNL     1      15.846  -8.745  26.173  1.00  0.00     0.047 C 
BRANCH  20  21
HETATM   21  C13 UNL     1      16.381  -8.451  27.536  1.00  0.00     0.088 C 
HETATM   22  S2  UNL     1      17.053  -6.732  27.437  1.00  0.00    -0.098 SA
ENDBRANCH  20  21
ENDBRANCH  19  20
BRANCH  19  23
HETATM   23  C14 UNL     1      13.549  -7.943  25.952  1.00  0.00     0.196 C 
HETATM   24  O5  UNL     1      13.083  -9.112  25.736  1.00  0.00    -0.646 OA
HETATM   25  O6  UNL     1      12.680  -7.021  26.512  1.00  0.00    -0.646 OA
ENDBRANCH  19  23
ENDBRANCH  17  19
ENDBRANCH  14  15
BRANCH   1  26
HETATM   26  N3  UNL     1      12.988  -5.877  17.262  1.00  0.00    -0.274 N 
HETATM   27  C1  UNL     1      12.103  -6.402  16.267  1.00  0.00     0.200 C 
HETATM   28  N1  UNL     1      10.866  -6.059  16.158  1.00  0.00    -0.372 N 
HETATM   29  N2  UNL     1      12.607  -7.353  15.349  1.00  0.00    -0.062 NA
ATOM     30  H12 UNL     1      10.235  -6.433  15.449  1.00  0.00     0.158 HD
ATOM     31  H11 UNL     1      10.502  -5.374  16.821  1.00  0.00     0.158 HD
ATOM     32  H3  UNL     1      13.910  -5.549  16.976  1.00  0.00     0.189 HD
ENDBRANCH   1  26
TORSDOF 6
ENDMDL
MODEL 2
REMARK VINA RESULT: -8.140839379      5.293      7.192
REMARK  6 active torsions:
REMARK  status: ('A' for Active; 'I' for Inactive)
REMARK       I    between atoms: C1_4  and  N3_6 
REMARK    1  A    between atoms: N3_6  and  N4_8 
REMARK    2  A    between atoms: C9_21  and  C10_22 
REMARK       I    between atoms: C10_22  and  N5_24 
REMARK    3  A    between atoms: N5_24  and  C11_26 
REMARK    4  A    between atoms: C11_26  and  C12_27 
REMARK    5  A    between atoms: C11_26  and  C14_30 
REMARK    6  A    between atoms: C12_27  and  C13_28 
ROOT
HETATM    1  N4  UNL     1      14.340  -7.436  25.058  1.00  0.00    -0.307 N 
ATOM      2  H4  UNL     1      14.427  -6.432  24.896  1.00  0.00     0.186 HD
HETATM    3  C2  UNL     1      14.993  -7.996  25.998  1.00  0.00     0.004 C 
HETATM    4  C3  UNL     1      15.909  -7.271  26.915  1.00  0.00     0.057 C 
HETATM    5  C4  UNL     1      16.476  -8.322  27.878  1.00  0.00     0.045 C 
HETATM    6  C5  UNL     1      17.135  -9.442  27.171  1.00  0.00     0.088 C 
HETATM    7  C6  UNL     1      16.260 -10.028  26.070  1.00  0.00     0.045 C 
HETATM    8  C7  UNL     1      14.865  -9.471  26.234  1.00  0.00     0.057 C 
HETATM    9  O1  UNL     1      17.429 -10.432  28.099  1.00  0.00    -0.364 OA
HETATM   10  C8  UNL     1      18.052 -11.488  27.498  1.00  0.00     0.309 C 
HETATM   11  S1  UNL     1      19.020 -10.706  26.190  1.00  0.00     0.182 S 
HETATM   12  O2  UNL     1      20.476 -10.867  26.406  1.00  0.00    -0.225 OA
HETATM   13  O3  UNL     1      18.561 -11.134  24.849  1.00  0.00    -0.225 OA
HETATM   14  C9  UNL     1      18.461  -9.031  26.593  1.00  0.00     0.236 C 
ENDROOT
BRANCH  14  15
HETATM   15  C10 UNL     1      19.363  -8.485  27.581  1.00  0.00     0.240 C 
HETATM   16  O4  UNL     1      19.797  -7.287  27.390  1.00  0.00    -0.272 OA
HETATM   17  N5  UNL     1      19.843  -9.109  28.757  1.00  0.00    -0.345 N 
ATOM     18  H5  UNL     1      19.538 -10.058  28.972  1.00  0.00     0.163 HD
BRANCH  17  19
HETATM   19  C11 UNL     1      20.760  -8.438  29.672  1.00  0.00     0.186 C 
BRANCH  19  20
HETATM   20  C12 UNL     1      21.898  -9.354  30.035  1.00  0.00     0.047 C 
BRANCH  20  21
HETATM   21  C13 UNL     1      23.183  -9.100  29.318  1.00  0.00     0.088 C 
HETATM   22  S2  UNL     1      23.382  -7.262  29.309  1.00  0.00    -0.098 SA
ENDBRANCH  20  21
ENDBRANCH  19  20
BRANCH  19  23
HETATM   23  C14 UNL     1      20.038  -8.013  30.878  1.00  0.00     0.196 C 
HETATM   24  O5  UNL     1      20.724  -7.793  31.932  1.00  0.00    -0.646 OA
HETATM   25  O6  UNL     1      18.668  -7.829  30.977  1.00  0.00    -0.646 OA
ENDBRANCH  19  23
ENDBRANCH  17  19
ENDBRANCH  14  15
BRANCH   1  26
HETATM   26  N3  UNL     1      13.506  -8.210  24.252  1.00  0.00    -0.274 N 
HETATM   27  C1  UNL     1      12.081  -8.180  24.376  1.00  0.00     0.200 C 
HETATM   28  N1  UNL     1      11.392  -7.093  24.439  1.00  0.00    -0.372 N 
HETATM   29  N2  UNL     1      11.381  -9.408  24.433  1.00  0.00    -0.062 NA
ATOM     30  H12 UNL     1      10.376  -7.071  24.527  1.00  0.00     0.158 HD
ATOM     31  H11 UNL     1      11.897  -6.207  24.399  1.00  0.00     0.158 HD
ATOM     32  H3  UNL     1      13.926  -8.821  23.551  1.00  0.00     0.189 HD
ENDBRANCH   1  26
TORSDOF 6
ENDMDL
MODEL 3
REMARK VINA RESULT: -8.041556137      1.117      1.184
REMARK  6 active torsions:
REMARK  status: ('A' for Active; 'I' for Inactive)
REMARK       I    between atoms: C1_4  and  N3_6 
REMARK    1  A    between atoms: N3_6  and  N4_8 
REMARK    2  A    between atoms: C9_21  and  C10_22 
REMARK       I    between atoms: C10_22  and  N5_24 
REMARK    3  A    between atoms: N5_24  and  C11_26 
REMARK    4  A    between atoms: C11_26  and  C12_27 
REMARK    5  A    between atoms: C11_26  and  C14_30 
REMARK    6  A    between atoms: C12_27  and  C13_28 
ROOT
HETATM    1  N4  UNL     1      12.739  -5.911  18.714  1.00  0.00    -0.307 N 
ATOM      2  H4  UNL     1      12.048  -5.243  19.058  1.00  0.00     0.186 HD
HETATM    3  C2  UNL     1      13.340  -6.690  19.523  1.00  0.00     0.004 C 
HETATM    4  C3  UNL     1      13.103  -6.703  20.989  1.00  0.00     0.057 C 
HETATM    5  C4  UNL     1      14.030  -7.781  21.567  1.00  0.00     0.045 C 
HETATM    6  C5  UNL     1      15.449  -7.557  21.213  1.00  0.00     0.088 C 
HETATM    7  C6  UNL     1      15.644  -7.315  19.722  1.00  0.00     0.045 C 
HETATM    8  C7  UNL     1      14.355  -7.670  19.017  1.00  0.00     0.057 C 
HETATM    9  O1  UNL     1      16.176  -8.677  21.596  1.00  0.00    -0.364 OA
HETATM   10  C8  UNL     1      17.501  -8.516  21.302  1.00  0.00     0.309 C 
HETATM   11  S1  UNL     1      17.762  -6.746  21.533  1.00  0.00     0.182 S 
HETATM   12  O2  UNL     1      18.692  -6.463  22.650  1.00  0.00    -0.225 OA
HETATM   13  O3  UNL     1      18.134  -6.084  20.261  1.00  0.00    -0.225 OA
HETATM   14  C9  UNL     1      16.041  -6.413  21.989  1.00  0.00     0.236 C 
ENDROOT
BRANCH  14  15
HETATM   15  C10 UNL     1      15.918  -6.578  23.419  1.00  0.00     0.240 C 
HETATM   16  O4  UNL     1      15.937  -5.512  24.142  1.00  0.00    -0.272 OA
HETATM   17  N5  UNL     1      15.778  -7.785  24.146  1.00  0.00    -0.345 N 
ATOM     18  H5  UNL     1      15.754  -8.668  23.636  1.00  0.00     0.163 HD
BRANCH  17  19
HETATM   19  C11 UNL     1      15.668  -7.807  25.600  1.00  0.00     0.186 C 
BRANCH  19  20
HETATM   20  C12 UNL     1      16.630  -8.807  26.181  1.00  0.00     0.047 C 
BRANCH  20  21
HETATM   21  C13 UNL     1      16.982  -9.954  25.291  1.00  0.00     0.088 C 
HETATM   22  S2  UNL     1      16.525 -11.470  26.246  1.00  0.00    -0.098 SA
ENDBRANCH  20  21
ENDBRANCH  19  20
BRANCH  19  23
HETATM   23  C14 UNL     1      14.290  -8.131  25.990  1.00  0.00     0.196 C 
HETATM   24  O5  UNL     1      13.580  -8.793  25.160  1.00  0.00    -0.646 OA
HETATM   25  O6  UNL     1      13.683  -7.778  27.184  1.00  0.00    -0.646 OA
ENDBRANCH  19  23
ENDBRANCH  17  19
ENDBRANCH  14  15
BRANCH   1  26
HETATM   26  N3  UNL     1      13.036  -5.981  17.353  1.00  0.00    -0.274 N 
HETATM   27  C1  UNL     1      12.098  -6.469  16.390  1.00  0.00     0.200 C 
HETATM   28  N1  UNL     1      10.868  -6.093  16.336  1.00  0.00    -0.372 N 
HETATM   29  N2  UNL     1      12.539  -7.421  15.440  1.00  0.00    -0.062 NA
ATOM     30  H12 UNL     1      10.198  -6.441  15.649  1.00  0.00     0.158 HD
ATOM     31  H11 UNL     1      10.549  -5.407  17.021  1.00  0.00     0.158 HD
ATOM     32  H3  UNL     1      13.955  -5.673  17.033  1.00  0.00     0.189 HD
ENDBRANCH   1  26
TORSDOF 6
ENDMDL
MODEL 4
REMARK VINA RESULT: -7.886883313      3.975      4.937
REMARK  6 active torsions:
REMARK  status: ('A' for Active; 'I' for Inactive)
REMARK       I    between atoms: C1_4  and  N3_6 
REMARK    1  A    between atoms: N3_6  and  N4_8 
REMARK    2  A    between atoms: C9_21  and  C10_22 
REMARK       I    between atoms: C10_22  and  N5_24 
REMARK    3  A    between atoms: N5_24  and  C11_26 
REMARK    4  A    between atoms: C11_26  and  C12_27 
REMARK    5  A    between atoms: C11_26  and  C14_30 
REMARK    6  A    between atoms: C12_27  and  C13_28 
ROOT
HETATM    1  N4  UNL     1      11.365  -7.154  24.707  1.00  0.00    -0.307 N 
ATOM      2  H4  UNL     1      10.855  -6.629  25.419  1.00  0.00     0.186 HD
HETATM    3  C2  UNL     1      12.464  -7.729  24.996  1.00  0.00     0.004 C 
HETATM    4  C3  UNL     1      13.088  -7.693  26.344  1.00  0.00     0.057 C 
HETATM    5  C4  UNL     1      14.386  -8.505  26.240  1.00  0.00     0.045 C 
HETATM    6  C5  UNL     1      15.284  -8.006  25.175  1.00  0.00     0.088 C 
HETATM    7  C6  UNL     1      14.563  -7.829  23.845  1.00  0.00     0.045 C 
HETATM    8  C7  UNL     1      13.213  -8.499  23.951  1.00  0.00     0.057 C 
HETATM    9  O1  UNL     1      16.322  -8.914  25.018  1.00  0.00    -0.364 OA
HETATM   10  C8  UNL     1      17.190  -8.493  24.051  1.00  0.00     0.309 C 
HETATM   11  S1  UNL     1      17.147  -6.695  24.213  1.00  0.00     0.182 S 
HETATM   12  O2  UNL     1      18.452  -6.145  24.644  1.00  0.00    -0.225 OA
HETATM   13  O3  UNL     1      16.599  -6.056  22.994  1.00  0.00    -0.225 OA
HETATM   14  C9  UNL     1      15.942  -6.711  25.565  1.00  0.00     0.236 C 
ENDROOT
BRANCH  14  15
HETATM   15  C10 UNL     1      16.670  -6.801  26.811  1.00  0.00     0.240 C 
HETATM   16  O4  UNL     1      17.065  -5.698  27.348  1.00  0.00    -0.272 OA
HETATM   17  N5  UNL     1      17.016  -7.969  27.532  1.00  0.00    -0.345 N 
ATOM     18  H5  UNL     1      16.733  -8.878  27.165  1.00  0.00     0.163 HD
BRANCH  17  19
HETATM   19  C11 UNL     1      17.763  -7.915  28.784  1.00  0.00     0.186 C 
BRANCH  19  20
HETATM   20  C12 UNL     1      18.880  -8.922  28.768  1.00  0.00     0.047 C 
BRANCH  20  21
HETATM   21  C13 UNL     1      20.260  -8.353  28.729  1.00  0.00     0.088 C 
HETATM   22  S2  UNL     1      20.814  -8.292  30.491  1.00  0.00    -0.098 SA
ENDBRANCH  20  21
ENDBRANCH  19  20
BRANCH  19  23
HETATM   23  C14 UNL     1      16.859  -8.166  29.914  1.00  0.00     0.196 C 
HETATM   24  O5  UNL     1      17.227  -7.758  31.067  1.00  0.00    -0.646 OA
HETATM   25  O6  UNL     1      15.637  -8.813  29.843  1.00  0.00    -0.646 OA
ENDBRANCH  19  23
ENDBRANCH  17  19
ENDBRANCH  14  15
BRANCH   1  26
HETATM   26  N3  UNL     1      10.866  -7.250  23.409  1.00  0.00    -0.274 N 
HETATM   27  C1  UNL     1       9.796  -6.425  22.938  1.00  0.00     0.200 C 
HETATM   28  N1  UNL     1       9.750  -5.149  23.106  1.00  0.00    -0.372 N 
HETATM   29  N2  UNL     1       8.723  -7.038  22.248  1.00  0.00    -0.062 NA
ATOM     30  H12 UNL     1       8.987  -4.560  22.771  1.00  0.00     0.158 HD
ATOM     31  H11 UNL     1      10.523  -4.706  23.604  1.00  0.00     0.158 HD
ATOM     32  H3  UNL     1      11.278  -7.932  22.772  1.00  0.00     0.189 HD
ENDBRANCH   1  26
TORSDOF 6
ENDMDL
MODEL 5
REMARK VINA RESULT: -7.881543004      1.270      1.484
REMARK  6 active torsions:
REMARK  status: ('A' for Active; 'I' for Inactive)
REMARK       I    between atoms: C1_4  and  N3_6 
REMARK    1  A    between atoms: N3_6  and  N4_8 
REMARK    2  A    between atoms: C9_21  and  C10_22 
REMARK       I    between atoms: C10_22  and  N5_24 
REMARK    3  A    between atoms: N5_24  and  C11_26 
REMARK    4  A    between atoms: C11_26  and  C12_27 
REMARK    5  A    between atoms: C11_26  and  C14_30 
REMARK    6  A    between atoms: C12_27  and  C13_28 
ROOT
HETATM    1  N4  UNL     1      12.955  -5.789  18.624  1.00  0.00    -0.307 N 
ATOM      2  H4  UNL     1      12.320  -5.089  19.011  1.00  0.00     0.186 HD
HETATM    3  C2  UNL     1      13.581  -6.586  19.395  1.00  0.00     0.004 C 
HETATM    4  C3  UNL     1      13.455  -6.578  20.875  1.00  0.00     0.057 C 
HETATM    5  C4  UNL     1      14.376  -7.689  21.394  1.00  0.00     0.045 C 
HETATM    6  C5  UNL     1      15.773  -7.529  20.934  1.00  0.00     0.088 C 
HETATM    7  C6  UNL     1      15.866  -7.307  19.430  1.00  0.00     0.045 C 
HETATM    8  C7  UNL     1      14.514  -7.612  18.826  1.00  0.00     0.057 C 
HETATM    9  O1  UNL     1      16.478  -8.675  21.274  1.00  0.00    -0.364 OA
HETATM   10  C8  UNL     1      17.783  -8.574  20.881  1.00  0.00     0.309 C 
HETATM   11  S1  UNL     1      18.135  -6.814  21.073  1.00  0.00     0.182 S 
HETATM   12  O2  UNL     1      19.157  -6.563  22.114  1.00  0.00    -0.225 OA
HETATM   13  O3  UNL     1      18.438  -6.179  19.769  1.00  0.00    -0.225 OA
HETATM   14  C9  UNL     1      16.468  -6.405  21.651  1.00  0.00     0.236 C 
ENDROOT
BRANCH  14  15
HETATM   15  C10 UNL     1      16.446  -6.553  23.088  1.00  0.00     0.240 C 
HETATM   16  O4  UNL     1      15.977  -5.571  23.778  1.00  0.00    -0.272 OA
HETATM   17  N5  UNL     1      16.883  -7.660  23.854  1.00  0.00    -0.345 N 
ATOM     18  H5  UNL     1      17.264  -8.474  23.372  1.00  0.00     0.163 HD
BRANCH  17  19
HETATM   19  C11 UNL     1      16.806  -7.675  25.311  1.00  0.00     0.186 C 
BRANCH  19  20
HETATM   20  C12 UNL     1      18.099  -8.172  25.896  1.00  0.00     0.047 C 
BRANCH  20  21
HETATM   21  C13 UNL     1      18.436  -7.647  27.253  1.00  0.00     0.088 C 
HETATM   22  S2  UNL     1      18.387  -9.119  28.372  1.00  0.00    -0.098 SA
ENDBRANCH  20  21
ENDBRANCH  19  20
BRANCH  19  23
HETATM   23  C14 UNL     1      15.686  -8.522  25.742  1.00  0.00     0.196 C 
HETATM   24  O5  UNL     1      14.615  -7.939  26.121  1.00  0.00    -0.646 OA
HETATM   25  O6  UNL     1      15.687  -9.906  25.778  1.00  0.00    -0.646 OA
ENDBRANCH  19  23
ENDBRANCH  17  19
ENDBRANCH  14  15
BRANCH   1  26
HETATM   26  N3  UNL     1      13.147  -5.882  17.247  1.00  0.00    -0.274 N 
HETATM   27  C1  UNL     1      12.150  -6.417  16.370  1.00  0.00     0.200 C 
HETATM   28  N1  UNL     1      10.909  -6.074  16.406  1.00  0.00    -0.372 N 
HETATM   29  N2  UNL     1      12.542  -7.379  15.409  1.00  0.00    -0.062 NA
ATOM     30  H12 UNL     1      10.198  -6.456  15.781  1.00  0.00     0.158 HD
ATOM     31  H11 UNL     1      10.626  -5.381  17.099  1.00  0.00     0.158 HD
ATOM     32  H3  UNL     1      14.028  -5.557  16.849  1.00  0.00     0.189 HD
ENDBRANCH   1  26
TORSDOF 6
ENDMDL
