MODEL 1
REMARK VINA RESULT: -8.024281003      0.000      0.000
REMARK  7 active torsions:
REMARK  status: ('A' for Active; 'I' for Inactive)
REMARK       I    between atoms: C2_4  and  N3_6 
REMARK    1  A    between atoms: N3_6  and  C3_8 
REMARK    2  A    between atoms: C5_11  and  N4_12 
REMARK    3  A    between atoms: C7_14  and  N5_15 
REMARK    4  A    between atoms: C8_19  and  N6_21 
REMARK    5  A    between atoms: C11_26  and  C12_27 
REMARK    6  A    between atoms: C12_27  and  C13_28 
REMARK    7  A    between atoms: C12_27  and  S2_31 
ROOT
HETATM    1  C3  UNL     1      14.769  -8.362  24.987  1.00  0.00     0.052 A 
HETATM    2  C4  UNL     1      15.086  -7.626  23.851  1.00  0.00     0.082 A 
HETATM    3  S1  UNL     1      16.740  -7.310  24.034  1.00  0.00    -0.081 SA
HETATM    4  C5  UNL     1      17.012  -8.095  25.515  1.00  0.00     0.082 A 
HETATM    5  C11 UNL     1      15.768  -8.605  25.848  1.00  0.00     0.034 A 
ENDROOT
BRANCH   4   6
HETATM    6  N4  UNL     1      18.264  -8.191  26.185  1.00  0.00    -0.370 N 
HETATM    7  C6  UNL     1      18.775  -7.156  27.081  1.00  0.00     0.159 C 
HETATM    8  C7  UNL     1      19.417  -7.986  28.160  1.00  0.00     0.238 C 
HETATM    9  C8  UNL     1      20.058  -9.116  27.406  1.00  0.00     0.165 C 
HETATM   10  C9  UNL     1      21.496  -8.727  27.082  1.00  0.00     0.050 C 
HETATM   11  C10 UNL     1      19.235  -9.262  26.168  1.00  0.00     0.164 C 
BRANCH   8  12
HETATM   12  N5  UNL     1      18.439  -8.492  29.109  1.00  0.00    -0.071 N 
ATOM     13  H53 UNL     1      18.570  -8.078  30.032  1.00  0.00     0.274 HD
ATOM     14  H52 UNL     1      17.506  -8.135  28.906  1.00  0.00     0.274 HD
ATOM     15  H51 UNL     1      18.444  -9.511  29.155  1.00  0.00     0.274 HD
ENDBRANCH   8  12
BRANCH   9  16
HETATM   16  N6  UNL     1      20.109 -10.340  28.186  1.00  0.00    -0.067 N 
ATOM     17  H63 UNL     1      20.487 -10.168  29.118  1.00  0.00     0.275 HD
ATOM     18  H62 UNL     1      19.173 -10.650  28.446  1.00  0.00     0.275 HD
ATOM     19  H61 UNL     1      20.623 -11.082  27.711  1.00  0.00     0.275 HD
ENDBRANCH   9  16
ENDBRANCH   4   6
BRANCH   5  20
HETATM   20  C12 UNL     1      15.647  -9.427  27.115  1.00  0.00     0.268 C 
BRANCH  20  21
HETATM   21  C13 UNL     1      15.012 -10.737  26.890  1.00  0.00     0.199 C 
HETATM   22  O1  UNL     1      15.720 -11.643  26.318  1.00  0.00    -0.647 OA
HETATM   23  O2  UNL     1      13.724 -11.083  27.235  1.00  0.00    -0.647 OA
ENDBRANCH  20  21
BRANCH  20  24
HETATM   24  S2  UNL     1      14.999  -8.530  28.477  1.00  0.00     0.121 S 
HETATM   25  O3  UNL     1      15.819  -7.380  28.947  1.00  0.00    -0.594 OA
HETATM   26  O4  UNL     1      13.627  -7.952  28.116  1.00  0.00    -0.594 OA
HETATM   27  O5  UNL     1      14.753  -9.505  29.838  1.00  0.00    -0.594 OA
ENDBRANCH  20  24
ENDBRANCH   5  20
BRANCH   1  28
HETATM   28  N3  UNL     1      13.380  -8.768  25.118  1.00  0.00    -0.330 N 
HETATM   29  C2  UNL     1      12.292  -7.955  24.758  1.00  0.00     0.188 C 
HETATM   30  N1  UNL     1      11.647  -8.168  23.681  1.00  0.00    -0.369 N 
HETATM   31  N2  UNL     1      11.920  -6.893  25.609  1.00  0.00    -0.064 NA
HETATM   32  C1  UNL     1      10.514  -7.361  23.258  1.00  0.00     0.148 C 
ATOM     33  H1  UNL     1      11.939  -8.943  23.085  1.00  0.00     0.161 HD
ATOM     34  H3  UNL     1      13.183  -9.697  25.492  1.00  0.00     0.168 HD
ENDBRANCH   1  28
TORSDOF 7
ENDMDL
MODEL 2
REMARK VINA RESULT: -7.242276774      2.733      4.263
REMARK  7 active torsions:
REMARK  status: ('A' for Active; 'I' for Inactive)
REMARK       I    between atoms: C2_4  and  N3_6 
REMARK    1  A    between atoms: N3_6  and  C3_8 
REMARK    2  A    between atoms: C5_11  and  N4_12 
REMARK    3  A    between atoms: C7_14  and  N5_15 
REMARK    4  A    between atoms: C8_19  and  N6_21 
REMARK    5  A    between atoms: C11_26  and  C12_27 
REMARK    6  A    between atoms: C12_27  and  C13_28 
REMARK    7  A    between atoms: C12_27  and  S2_31 
ROOT
HETATM    1  C3  UNL     1      17.202  -9.831  26.412  1.00  0.00     0.052 A 
HETATM    2  C4  UNL     1      17.386 -11.147  26.824  1.00  0.00     0.082 A 
HETATM    3  S1  UNL     1      18.802 -11.076  27.751  1.00  0.00    -0.081 SA
HETATM    4  C5  UNL     1      19.144  -9.418  27.613  1.00  0.00     0.082 A 
HETATM    5  C11 UNL     1      18.114  -8.937  26.823  1.00  0.00     0.034 A 
ENDROOT
BRANCH   4   6
HETATM    6  N4  UNL     1      20.239  -8.744  28.223  1.00  0.00    -0.370 N 
HETATM    7  C6  UNL     1      20.355  -8.548  29.667  1.00  0.00     0.159 C 
HETATM    8  C7  UNL     1      21.830  -8.755  29.878  1.00  0.00     0.238 C 
HETATM    9  C8  UNL     1      22.458  -8.090  28.686  1.00  0.00     0.165 C 
HETATM   10  C9  UNL     1      22.778  -6.645  29.051  1.00  0.00     0.050 C 
HETATM   11  C10 UNL     1      21.418  -8.170  27.616  1.00  0.00     0.164 C 
BRANCH   8  12
HETATM   12  N5  UNL     1      22.180 -10.165  29.922  1.00  0.00    -0.071 N 
ATOM     13  H53 UNL     1      21.825 -10.609  30.770  1.00  0.00     0.274 HD
ATOM     14  H52 UNL     1      21.654 -10.699  29.230  1.00  0.00     0.274 HD
ATOM     15  H51 UNL     1      23.184 -10.312  29.819  1.00  0.00     0.274 HD
ENDBRANCH   8  12
BRANCH   9  16
HETATM   16  N6  UNL     1      23.706  -8.722  28.296  1.00  0.00    -0.067 N 
ATOM     17  H63 UNL     1      24.233  -9.031  29.113  1.00  0.00     0.275 HD
ATOM     18  H62 UNL     1      23.539  -9.628  27.858  1.00  0.00     0.275 HD
ATOM     19  H61 UNL     1      24.273  -8.123  27.697  1.00  0.00     0.275 HD
ENDBRANCH   9  16
ENDBRANCH   4   6
BRANCH   5  20
HETATM   20  C12 UNL     1      18.071  -7.451  26.530  1.00  0.00     0.268 C 
BRANCH  20  21
HETATM   21  C13 UNL     1      17.197  -6.709  27.454  1.00  0.00     0.199 C 
HETATM   22  O1  UNL     1      17.213  -5.427  27.378  1.00  0.00    -0.647 OA
HETATM   23  O2  UNL     1      16.361  -7.263  28.398  1.00  0.00    -0.647 OA
ENDBRANCH  20  21
BRANCH  20  24
HETATM   24  S2  UNL     1      17.821  -7.075  24.833  1.00  0.00     0.121 S 
HETATM   25  O3  UNL     1      16.415  -6.804  24.428  1.00  0.00    -0.594 OA
HETATM   26  O4  UNL     1      18.620  -5.824  24.454  1.00  0.00    -0.594 OA
HETATM   27  O5  UNL     1      18.366  -8.306  23.808  1.00  0.00    -0.594 OA
ENDBRANCH  20  24
ENDBRANCH   5  20
BRANCH   1  28
HETATM   28  N3  UNL     1      16.048  -9.582  25.566  1.00  0.00    -0.330 N 
HETATM   29  C2  UNL     1      14.779  -9.237  26.060  1.00  0.00     0.188 C 
HETATM   30  N1  UNL     1      14.357  -8.037  25.993  1.00  0.00    -0.369 N 
HETATM   31  N2  UNL     1      13.971 -10.241  26.634  1.00  0.00    -0.064 NA
HETATM   32  C1  UNL     1      13.053  -7.622  26.486  1.00  0.00     0.148 C 
ATOM     33  H1  UNL     1      14.963  -7.332  25.572  1.00  0.00     0.161 HD
ATOM     34  H3  UNL     1      16.166  -9.663  24.556  1.00  0.00     0.168 HD
ENDBRANCH   1  28
TORSDOF 7
ENDMDL
MODEL 3
REMARK VINA RESULT: -7.080821185      2.404      6.228
REMARK  7 active torsions:
REMARK  status: ('A' for Active; 'I' for Inactive)
REMARK       I    between atoms: C2_4  and  N3_6 
REMARK    1  A    between atoms: N3_6  and  C3_8 
REMARK    2  A    between atoms: C5_11  and  N4_12 
REMARK    3  A    between atoms: C7_14  and  N5_15 
REMARK    4  A    between atoms: C8_19  and  N6_21 
REMARK    5  A    between atoms: C11_26  and  C12_27 
REMARK    6  A    between atoms: C12_27  and  C13_28 
REMARK    7  A    between atoms: C12_27  and  S2_31 
ROOT
HETATM    1  C3  UNL     1      18.652  -9.592  26.616  1.00  0.00     0.052 A 
HETATM    2  C4  UNL     1      19.598 -10.391  25.983  1.00  0.00     0.082 A 
HETATM    3  S1  UNL     1      19.332 -10.087  24.337  1.00  0.00    -0.081 SA
HETATM    4  C5  UNL     1      18.054  -8.977  24.461  1.00  0.00     0.082 A 
HETATM    5  C11 UNL     1      17.853  -8.860  25.826  1.00  0.00     0.034 A 
ENDROOT
BRANCH   4   6
HETATM    6  N4  UNL     1      17.407  -8.332  23.368  1.00  0.00    -0.370 N 
HETATM    7  C6  UNL     1      16.331  -8.950  22.597  1.00  0.00     0.159 C 
HETATM    8  C7  UNL     1      15.423  -7.775  22.358  1.00  0.00     0.238 C 
HETATM    9  C8  UNL     1      16.371  -6.640  22.093  1.00  0.00     0.165 C 
HETATM   10  C9  UNL     1      16.609  -6.549  20.590  1.00  0.00     0.050 C 
HETATM   11  C10 UNL     1      17.619  -7.009  22.826  1.00  0.00     0.164 C 
BRANCH   8  12
HETATM   12  N5  UNL     1      14.590  -7.489  23.515  1.00  0.00    -0.071 N 
ATOM     13  H53 UNL     1      13.748  -6.978  23.248  1.00  0.00     0.274 HD
ATOM     14  H52 UNL     1      14.155  -8.336  23.877  1.00  0.00     0.274 HD
ATOM     15  H51 UNL     1      15.107  -6.997  24.243  1.00  0.00     0.274 HD
ENDBRANCH   8  12
BRANCH   9  16
HETATM   16  N6  UNL     1      15.833  -5.361  22.522  1.00  0.00    -0.067 N 
ATOM     17  H63 UNL     1      14.833  -5.299  22.329  1.00  0.00     0.275 HD
ATOM     18  H62 UNL     1      15.807  -5.295  23.539  1.00  0.00     0.275 HD
ATOM     19  H61 UNL     1      16.336  -4.573  22.115  1.00  0.00     0.275 HD
ENDBRANCH   9  16
ENDBRANCH   4   6
BRANCH   5  20
HETATM   20  C12 UNL     1      16.796  -7.890  26.313  1.00  0.00     0.268 C 
BRANCH  20  21
HETATM   21  C13 UNL     1      17.336  -6.862  27.219  1.00  0.00     0.199 C 
HETATM   22  O1  UNL     1      18.027  -5.917  26.691  1.00  0.00    -0.647 OA
HETATM   23  O2  UNL     1      17.170  -6.818  28.586  1.00  0.00    -0.647 OA
ENDBRANCH  20  21
BRANCH  20  24
HETATM   24  S2  UNL     1      15.335  -8.673  26.890  1.00  0.00     0.121 S 
HETATM   25  O3  UNL     1      14.243  -7.764  27.334  1.00  0.00    -0.594 OA
HETATM   26  O4  UNL     1      14.737  -9.543  25.780  1.00  0.00    -0.594 OA
HETATM   27  O5  UNL     1      15.626  -9.712  28.194  1.00  0.00    -0.594 OA
ENDBRANCH  20  24
ENDBRANCH   5  20
BRANCH   1  28
HETATM   28  N3  UNL     1      18.628  -9.659  28.067  1.00  0.00    -0.330 N 
HETATM   29  C2  UNL     1      19.731  -9.350  28.881  1.00  0.00     0.188 C 
HETATM   30  N1  UNL     1      19.785  -8.246  29.513  1.00  0.00    -0.369 N 
HETATM   31  N2  UNL     1      20.784 -10.283  28.990  1.00  0.00    -0.064 NA
HETATM   32  C1  UNL     1      20.900  -7.873  30.370  1.00  0.00     0.148 C 
ATOM     33  H1  UNL     1      19.009  -7.591  29.415  1.00  0.00     0.161 HD
ATOM     34  H3  UNL     1      17.761  -9.948  28.521  1.00  0.00     0.168 HD
ENDBRANCH   1  28
TORSDOF 7
ENDMDL
MODEL 4
REMARK VINA RESULT: -7.031467116      2.953      5.992
REMARK  7 active torsions:
REMARK  status: ('A' for Active; 'I' for Inactive)
REMARK       I    between atoms: C2_4  and  N3_6 
REMARK    1  A    between atoms: N3_6  and  C3_8 
REMARK    2  A    between atoms: C5_11  and  N4_12 
REMARK    3  A    between atoms: C7_14  and  N5_15 
REMARK    4  A    between atoms: C8_19  and  N6_21 
REMARK    5  A    between atoms: C11_26  and  C12_27 
REMARK    6  A    between atoms: C12_27  and  C13_28 
REMARK    7  A    between atoms: C12_27  and  S2_31 
ROOT
HETATM    1  C3  UNL     1      16.467  -9.813  25.553  1.00  0.00     0.052 A 
HETATM    2  C4  UNL     1      17.352 -10.782  25.093  1.00  0.00     0.082 A 
HETATM    3  S1  UNL     1      17.627 -10.332  23.483  1.00  0.00    -0.081 SA
HETATM    4  C5  UNL     1      16.642  -8.952  23.406  1.00  0.00     0.082 A 
HETATM    5  C11 UNL     1      16.101  -8.865  24.678  1.00  0.00     0.034 A 
ENDROOT
BRANCH   4   6
HETATM    6  N4  UNL     1      16.482  -8.110  22.270  1.00  0.00    -0.370 N 
HETATM    7  C6  UNL     1      15.719  -8.498  21.085  1.00  0.00     0.159 C 
HETATM    8  C7  UNL     1      15.043  -7.203  20.727  1.00  0.00     0.238 C 
HETATM    9  C8  UNL     1      16.098  -6.166  20.989  1.00  0.00     0.165 C 
HETATM   10  C9  UNL     1      16.871  -5.926  19.697  1.00  0.00     0.050 C 
HETATM   11  C10 UNL     1      16.967  -6.766  22.046  1.00  0.00     0.164 C 
BRANCH   8  12
HETATM   12  N5  UNL     1      13.869  -6.959  21.549  1.00  0.00    -0.071 N 
ATOM     13  H53 UNL     1      14.129  -6.735  22.510  1.00  0.00     0.274 HD
ATOM     14  H52 UNL     1      13.416  -6.081  21.297  1.00  0.00     0.274 HD
ATOM     15  H51 UNL     1      13.211  -7.738  21.515  1.00  0.00     0.274 HD
ENDBRANCH   8  12
BRANCH   9  16
HETATM   16  N6  UNL     1      15.531  -4.892  21.393  1.00  0.00    -0.067 N 
ATOM     17  H63 UNL     1      16.239  -4.291  21.815  1.00  0.00     0.275 HD
ATOM     18  H62 UNL     1      15.294  -4.320  20.583  1.00  0.00     0.275 HD
ATOM     19  H61 UNL     1      14.727  -5.005  22.012  1.00  0.00     0.275 HD
ENDBRANCH   9  16
ENDBRANCH   4   6
BRANCH   5  20
HETATM   20  C12 UNL     1      15.191  -7.695  24.990  1.00  0.00     0.268 C 
BRANCH  20  21
HETATM   21  C13 UNL     1      15.903  -6.562  25.605  1.00  0.00     0.199 C 
HETATM   22  O1  UNL     1      15.310  -5.423  25.603  1.00  0.00    -0.647 OA
HETATM   23  O2  UNL     1      17.153  -6.608  26.183  1.00  0.00    -0.647 OA
ENDBRANCH  20  21
BRANCH  20  24
HETATM   24  S2  UNL     1      13.710  -8.155  25.813  1.00  0.00     0.121 S 
HETATM   25  O3  UNL     1      13.316  -9.586  25.691  1.00  0.00    -0.594 OA
HETATM   26  O4  UNL     1      13.840  -7.878  27.315  1.00  0.00    -0.594 OA
HETATM   27  O5  UNL     1      12.371  -7.264  25.288  1.00  0.00    -0.594 OA
ENDBRANCH  20  24
ENDBRANCH   5  20
BRANCH   1  28
HETATM   28  N3  UNL     1      16.028  -9.952  26.931  1.00  0.00    -0.330 N 
HETATM   29  C2  UNL     1      16.778  -9.521  28.037  1.00  0.00     0.188 C 
HETATM   30  N1  UNL     1      16.470  -8.453  28.658  1.00  0.00    -0.369 N 
HETATM   31  N2  UNL     1      17.886 -10.290  28.455  1.00  0.00    -0.064 NA
HETATM   32  C1  UNL     1      17.209  -7.959  29.808  1.00  0.00     0.148 C 
ATOM     33  H1  UNL     1      15.665  -7.918  28.333  1.00  0.00     0.161 HD
ATOM     34  H3  UNL     1      15.122 -10.389  27.105  1.00  0.00     0.168 HD
ENDBRANCH   1  28
TORSDOF 7
ENDMDL
MODEL 5
REMARK VINA RESULT: -6.937603298      1.922      2.511
REMARK  7 active torsions:
REMARK  status: ('A' for Active; 'I' for Inactive)
REMARK       I    between atoms: C2_4  and  N3_6 
REMARK    1  A    between atoms: N3_6  and  C3_8 
REMARK    2  A    between atoms: C5_11  and  N4_12 
REMARK    3  A    between atoms: C7_14  and  N5_15 
REMARK    4  A    between atoms: C8_19  and  N6_21 
REMARK    5  A    between atoms: C11_26  and  C12_27 
REMARK    6  A    between atoms: C12_27  and  C13_28 
REMARK    7  A    between atoms: C12_27  and  S2_31 
ROOT
HETATM    1  C3  UNL     1      16.139  -8.089  25.469  1.00  0.00     0.052 A 
HETATM    2  C4  UNL     1      16.991  -7.599  24.484  1.00  0.00     0.082 A 
HETATM    3  S1  UNL     1      18.431  -8.451  24.749  1.00  0.00    -0.081 SA
HETATM    4  C5  UNL     1      17.955  -9.400  26.075  1.00  0.00     0.082 A 
HETATM    5  C11 UNL     1      16.641  -9.022  26.291  1.00  0.00     0.034 A 
ENDROOT
BRANCH   4   6
HETATM    6  N4  UNL     1      18.766 -10.362  26.739  1.00  0.00    -0.370 N 
HETATM    7  C6  UNL     1      18.503 -10.832  28.097  1.00  0.00     0.159 C 
HETATM    8  C7  UNL     1      18.845 -12.292  27.980  1.00  0.00     0.238 C 
HETATM    9  C8  UNL     1      20.058 -12.304  27.094  1.00  0.00     0.165 C 
HETATM   10  C9  UNL     1      21.301 -12.255  27.975  1.00  0.00     0.050 C 
HETATM   11  C10 UNL     1      19.929 -11.073  26.256  1.00  0.00     0.164 C 
BRANCH   8  12
HETATM   12  N5  UNL     1      17.764 -13.056  27.379  1.00  0.00    -0.071 N 
ATOM     13  H53 UNL     1      16.863 -12.602  27.526  1.00  0.00     0.274 HD
ATOM     14  H52 UNL     1      17.800 -13.013  26.361  1.00  0.00     0.274 HD
ATOM     15  H51 UNL     1      17.751 -14.022  27.708  1.00  0.00     0.274 HD
ENDBRANCH   8  12
BRANCH   9  16
HETATM   16  N6  UNL     1      20.145 -13.513  26.294  1.00  0.00    -0.067 N 
ATOM     17  H63 UNL     1      20.361 -13.295  25.320  1.00  0.00     0.275 HD
ATOM     18  H62 UNL     1      20.979 -14.050  26.529  1.00  0.00     0.275 HD
ATOM     19  H61 UNL     1      19.305 -14.087  26.366  1.00  0.00     0.275 HD
ENDBRANCH   9  16
ENDBRANCH   4   6
BRANCH   5  20
HETATM   20  C12 UNL     1      15.868  -9.719  27.392  1.00  0.00     0.268 C 
BRANCH  20  21
HETATM   21  C13 UNL     1      14.946 -10.748  26.883  1.00  0.00     0.199 C 
HETATM   22  O1  UNL     1      15.406 -11.572  26.012  1.00  0.00    -0.647 OA
HETATM   23  O2  UNL     1      13.629 -10.910  27.253  1.00  0.00    -0.647 OA
ENDBRANCH  20  21
BRANCH  20  24
HETATM   24  S2  UNL     1      15.155  -8.617  28.558  1.00  0.00     0.121 S 
HETATM   25  O3  UNL     1      13.907  -7.931  28.126  1.00  0.00    -0.594 OA
HETATM   26  O4  UNL     1      14.799  -9.375  29.841  1.00  0.00    -0.594 OA
HETATM   27  O5  UNL     1      16.220  -7.386  29.023  1.00  0.00    -0.594 OA
ENDBRANCH  20  24
ENDBRANCH   5  20
BRANCH   1  28
HETATM   28  N3  UNL     1      14.805  -7.515  25.502  1.00  0.00    -0.330 N 
HETATM   29  C2  UNL     1      13.711  -8.044  24.798  1.00  0.00     0.188 C 
HETATM   30  N1  UNL     1      12.808  -8.711  25.400  1.00  0.00    -0.369 N 
HETATM   31  N2  UNL     1      13.623  -7.827  23.406  1.00  0.00    -0.064 NA
HETATM   32  C1  UNL     1      11.654  -9.280  24.723  1.00  0.00     0.148 C 
ATOM     33  H1  UNL     1      12.898  -8.851  26.406  1.00  0.00     0.161 HD
ATOM     34  H3  UNL     1      14.654  -6.680  26.069  1.00  0.00     0.168 HD
ENDBRANCH   1  28
TORSDOF 7
ENDMDL
