MODEL 1
REMARK VINA RESULT: -8.035568578      0.000      0.000
REMARK  10 active torsions:
REMARK  status: ('A' for Active; 'I' for Inactive)
REMARK    1  A    between atoms: N1_4  and  C4_6 
REMARK    2  A    between atoms: C4_6  and  C5_7 
REMARK    3  A    between atoms: C5_7  and  C6_8 
REMARK    4  A    between atoms: C6_8  and  O1_9 
REMARK    5  A    between atoms: C9_13  and  O2_14 
REMARK    6  A    between atoms: C11_17  and  O3_18 
REMARK    7  A    between atoms: C18_27  and  O5_28 
REMARK    8  A    between atoms: C19_30  and  O6_31 
REMARK    9  A    between atoms: C19_30  and  C20_33 
REMARK   10  A    between atoms: C20_33  and  O7_34 
ROOT
HETATM    1  C6  UNL     1      19.156  -8.686  28.806  1.00  0.00     0.067 C 
HETATM    2  C7  UNL     1      19.058  -7.751  27.650  1.00  0.00     0.047 C 
HETATM    3  C8  UNL     1      17.666  -7.987  27.025  1.00  0.00     0.037 C 
HETATM    4  C9  UNL     1      17.768  -8.430  25.611  1.00  0.00     0.070 C 
HETATM    5  C10 UNL     1      18.289  -9.808  25.662  1.00  0.00     0.071 C 
HETATM    6  C11 UNL     1      18.840 -10.253  26.977  1.00  0.00     0.129 C 
HETATM    7  C12 UNL     1      18.188  -9.712  28.261  1.00  0.00     0.063 C 
HETATM    8  C13 UNL     1      16.968  -9.027  27.823  1.00  0.00     0.032 C 
HETATM    9  C14 UNL     1      16.152 -10.114  27.250  1.00  0.00     0.182 C 
HETATM   10  O4  UNL     1      15.404  -9.884  26.142  1.00  0.00    -0.382 OA
HETATM   11  C15 UNL     1      15.298  -8.504  26.043  1.00  0.00     0.159 C 
HETATM   12  C16 UNL     1      16.408  -8.178  25.081  1.00  0.00     0.048 C 
HETATM   13  C17 UNL     1      16.304  -6.745  24.586  1.00  0.00     0.016 C 
HETATM   14  C18 UNL     1      15.152  -7.746  27.271  1.00  0.00     0.184 C 
HETATM   15  C19 UNL     1      15.993  -8.204  28.502  1.00  0.00     0.117 C 
ENDROOT
BRANCH   1  16
HETATM   16  C5  UNL     1      20.527  -9.192  29.129  1.00  0.00     0.058 C 
BRANCH  16  17
HETATM   17  C4  UNL     1      21.556  -8.049  29.058  1.00  0.00     0.122 C 
BRANCH  17  18
HETATM   18  N1  UNL     1      21.853  -7.623  30.397  1.00  0.00    -0.397 N 
HETATM   19  C2  UNL     1      22.557  -6.587  30.663  1.00  0.00    -0.026 C 
HETATM   20  C1  UNL     1      23.146  -5.708  29.626  1.00  0.00     0.062 C 
HETATM   21  C3  UNL     1      22.763  -6.298  32.127  1.00  0.00     0.062 C 
ATOM     22  H1  UNL     1      21.487  -8.173  31.174  1.00  0.00     0.159 HD
ENDBRANCH  17  18
ENDBRANCH  16  17
ENDBRANCH   1  16
BRANCH   1  23
HETATM   23  O1  UNL     1      18.746  -8.124  30.015  1.00  0.00    -0.389 OA
ATOM     24  H1  UNL     1      17.990  -7.609  29.758  1.00  0.00     0.210 HD
ENDBRANCH   1  23
BRANCH   6  25
HETATM   25  O3  UNL     1      18.942 -11.660  27.001  1.00  0.00    -0.395 OA
ATOM     26  H3  UNL     1      19.446 -11.932  27.759  1.00  0.00     0.210 HD
ENDBRANCH   6  25
BRANCH   4  27
HETATM   27  O2  UNL     1      18.638  -7.515  24.970  1.00  0.00    -0.389 OA
ATOM     28  H2  UNL     1      19.020  -7.981  24.236  1.00  0.00     0.210 HD
ENDBRANCH   4  27
BRANCH  15  29
HETATM   29  O6  UNL     1      16.495  -6.947  28.961  1.00  0.00    -0.384 OA
ATOM     30  H6  UNL     1      16.283  -6.744  29.864  1.00  0.00     0.210 HD
ENDBRANCH  15  29
BRANCH  15  31
HETATM   31  C20 UNL     1      15.121  -8.698  29.579  1.00  0.00     0.205 C 
BRANCH  31  32
HETATM   32  O7  UNL     1      14.572  -7.783  30.444  1.00  0.00    -0.398 OA
ATOM     33  H7  UNL     1      14.973  -7.675  31.299  1.00  0.00     0.209 HD
ENDBRANCH  31  32
ENDBRANCH  15  31
BRANCH  14  34
HETATM   34  O5  UNL     1      13.808  -7.895  27.702  1.00  0.00    -0.390 OA
ATOM     35  H5  UNL     1      13.451  -7.022  27.822  1.00  0.00     0.210 HD
ENDBRANCH  14  34
TORSDOF 10
ENDMDL
MODEL 2
REMARK VINA RESULT: -7.891558512      3.396      6.881
REMARK  10 active torsions:
REMARK  status: ('A' for Active; 'I' for Inactive)
REMARK    1  A    between atoms: N1_4  and  C4_6 
REMARK    2  A    between atoms: C4_6  and  C5_7 
REMARK    3  A    between atoms: C5_7  and  C6_8 
REMARK    4  A    between atoms: C6_8  and  O1_9 
REMARK    5  A    between atoms: C9_13  and  O2_14 
REMARK    6  A    between atoms: C11_17  and  O3_18 
REMARK    7  A    between atoms: C18_27  and  O5_28 
REMARK    8  A    between atoms: C19_30  and  O6_31 
REMARK    9  A    between atoms: C19_30  and  C20_33 
REMARK   10  A    between atoms: C20_33  and  O7_34 
ROOT
HETATM    1  C6  UNL     1      14.593  -8.487  25.460  1.00  0.00     0.067 C 
HETATM    2  C7  UNL     1      15.845  -9.214  25.103  1.00  0.00     0.047 C 
HETATM    3  C8  UNL     1      16.943  -8.658  26.035  1.00  0.00     0.037 C 
HETATM    4  C9  UNL     1      18.052  -8.038  25.266  1.00  0.00     0.070 C 
HETATM    5  C10 UNL     1      17.501  -6.790  24.708  1.00  0.00     0.071 C 
HETATM    6  C11 UNL     1      16.016  -6.640  24.777  1.00  0.00     0.129 C 
HETATM    7  C12 UNL     1      15.278  -7.244  25.983  1.00  0.00     0.063 C 
HETATM    8  C13 UNL     1      16.327  -7.643  26.927  1.00  0.00     0.032 C 
HETATM    9  C14 UNL     1      16.958  -6.362  27.298  1.00  0.00     0.182 C 
HETATM   10  O4  UNL     1      18.301  -6.300  27.480  1.00  0.00    -0.382 OA
HETATM   11  C15 UNL     1      18.716  -7.613  27.648  1.00  0.00     0.159 C 
HETATM   12  C16 UNL     1      19.154  -7.978  26.254  1.00  0.00     0.048 C 
HETATM   13  C17 UNL     1      19.928  -9.286  26.246  1.00  0.00     0.016 C 
HETATM   14  C18 UNL     1      17.855  -8.505  28.398  1.00  0.00     0.184 C 
HETATM   15  C19 UNL     1      16.317  -8.380  28.170  1.00  0.00     0.117 C 
ENDROOT
BRANCH   1  16
HETATM   16  C5  UNL     1      13.617  -8.272  24.346  1.00  0.00     0.058 C 
BRANCH  16  17
HETATM   17  C4  UNL     1      12.173  -8.435  24.853  1.00  0.00     0.122 C 
BRANCH  17  18
HETATM   18  N1  UNL     1      11.403  -7.313  24.395  1.00  0.00    -0.397 N 
HETATM   19  C2  UNL     1      10.594  -7.376  23.403  1.00  0.00    -0.026 C 
HETATM   20  C1  UNL     1      10.358  -8.607  22.615  1.00  0.00     0.062 C 
HETATM   21  C3  UNL     1       9.873  -6.096  23.070  1.00  0.00     0.062 C 
ATOM     22  H1  UNL     1      11.504  -6.423  24.882  1.00  0.00     0.159 HD
ENDBRANCH  17  18
ENDBRANCH  16  17
ENDBRANCH   1  16
BRANCH   1  23
HETATM   23  O1  UNL     1      13.821  -9.141  26.419  1.00  0.00    -0.389 OA
ATOM     24  H1  UNL     1      13.009  -8.648  26.403  1.00  0.00     0.210 HD
ENDBRANCH   1  23
BRANCH   6  25
HETATM   25  O3  UNL     1      15.663  -5.289  24.576  1.00  0.00    -0.395 OA
ATOM     26  H3  UNL     1      14.942  -5.234  23.960  1.00  0.00     0.210 HD
ENDBRANCH   6  25
BRANCH   4  27
HETATM   27  O2  UNL     1      18.431  -8.983  24.283  1.00  0.00    -0.389 OA
ATOM     28  H2  UNL     1      19.161  -8.600  23.811  1.00  0.00     0.210 HD
ENDBRANCH   4  27
BRANCH  15  29
HETATM   29  O6  UNL     1      15.956  -9.756  28.040  1.00  0.00    -0.384 OA
ATOM     30  H6  UNL     1      15.297 -10.050  28.658  1.00  0.00     0.210 HD
ENDBRANCH  15  29
BRANCH  15  31
HETATM   31  C20 UNL     1      15.643  -7.907  29.389  1.00  0.00     0.205 C 
BRANCH  31  32
HETATM   32  O7  UNL     1      14.320  -8.231  29.569  1.00  0.00    -0.398 OA
ATOM     33  H7  UNL     1      14.059  -8.613  30.399  1.00  0.00     0.209 HD
ENDBRANCH  31  32
ENDBRANCH  15  31
BRANCH  14  34
HETATM   34  O5  UNL     1      18.022  -8.196  29.774  1.00  0.00    -0.390 OA
ATOM     35  H5  UNL     1      17.171  -8.279  30.187  1.00  0.00     0.210 HD
ENDBRANCH  14  34
TORSDOF 10
ENDMDL
MODEL 3
REMARK VINA RESULT: -7.727683661      3.435      7.176
REMARK  10 active torsions:
REMARK  status: ('A' for Active; 'I' for Inactive)
REMARK    1  A    between atoms: N1_4  and  C4_6 
REMARK    2  A    between atoms: C4_6  and  C5_7 
REMARK    3  A    between atoms: C5_7  and  C6_8 
REMARK    4  A    between atoms: C6_8  and  O1_9 
REMARK    5  A    between atoms: C9_13  and  O2_14 
REMARK    6  A    between atoms: C11_17  and  O3_18 
REMARK    7  A    between atoms: C18_27  and  O5_28 
REMARK    8  A    between atoms: C19_30  and  O6_31 
REMARK    9  A    between atoms: C19_30  and  C20_33 
REMARK   10  A    between atoms: C20_33  and  O7_34 
ROOT
HETATM    1  C6  UNL     1      14.345  -8.060  25.840  1.00  0.00     0.067 C 
HETATM    2  C7  UNL     1      15.526  -7.151  25.843  1.00  0.00     0.047 C 
HETATM    3  C8  UNL     1      16.696  -7.973  26.426  1.00  0.00     0.037 C 
HETATM    4  C9  UNL     1      17.240  -7.351  27.661  1.00  0.00     0.070 C 
HETATM    5  C10 UNL     1      16.211  -7.557  28.697  1.00  0.00     0.071 C 
HETATM    6  C11 UNL     1      14.872  -8.004  28.211  1.00  0.00     0.129 C 
HETATM    7  C12 UNL     1      14.813  -8.930  26.984  1.00  0.00     0.063 C 
HETATM    8  C13 UNL     1      16.199  -9.338  26.733  1.00  0.00     0.032 C 
HETATM    9  C14 UNL     1      16.554 -10.105  27.942  1.00  0.00     0.182 C 
HETATM   10  O4  UNL     1      17.802 -10.001  28.464  1.00  0.00    -0.382 OA
HETATM   11  C15 UNL     1      18.585  -9.459  27.455  1.00  0.00     0.159 C 
HETATM   12  C16 UNL     1      18.566  -7.995  27.805  1.00  0.00     0.048 C 
HETATM   13  C17 UNL     1      19.604  -7.225  27.004  1.00  0.00     0.016 C 
HETATM   14  C18 UNL     1      18.328  -9.886  26.094  1.00  0.00     0.184 C 
HETATM   15  C19 UNL     1      16.840 -10.078  25.670  1.00  0.00     0.117 C 
ENDROOT
BRANCH   1  16
HETATM   16  C5  UNL     1      13.011  -7.406  26.024  1.00  0.00     0.058 C 
BRANCH  16  17
HETATM   17  C4  UNL     1      11.946  -8.094  25.151  1.00  0.00     0.122 C 
BRANCH  17  18
HETATM   18  N1  UNL     1      11.277  -7.087  24.375  1.00  0.00    -0.397 N 
HETATM   19  C2  UNL     1      10.626  -7.346  23.303  1.00  0.00    -0.026 C 
HETATM   20  C1  UNL     1      10.487  -8.708  22.737  1.00  0.00     0.062 C 
HETATM   21  C3  UNL     1       9.991  -6.161  22.625  1.00  0.00     0.062 C 
ATOM     22  H1  UNL     1      11.322  -6.119  24.693  1.00  0.00     0.159 HD
ENDBRANCH  17  18
ENDBRANCH  16  17
ENDBRANCH   1  16
BRANCH   1  23
HETATM   23  O1  UNL     1      14.179  -8.757  24.644  1.00  0.00    -0.389 OA
ATOM     24  H1  UNL     1      15.050  -9.102  24.483  1.00  0.00     0.210 HD
ENDBRANCH   1  23
BRANCH   6  25
HETATM   25  O3  UNL     1      14.122  -8.522  29.287  1.00  0.00    -0.395 OA
ATOM     26  H3  UNL     1      14.172  -9.471  29.287  1.00  0.00     0.210 HD
ENDBRANCH   6  25
BRANCH   4  27
HETATM   27  O2  UNL     1      17.473  -5.990  27.351  1.00  0.00    -0.389 OA
ATOM     28  H2  UNL     1      17.709  -5.567  28.168  1.00  0.00     0.210 HD
ENDBRANCH   4  27
BRANCH  15  29
HETATM   29  O6  UNL     1      16.838  -9.417  24.403  1.00  0.00    -0.384 OA
ATOM     30  H6  UNL     1      16.953  -9.994  23.658  1.00  0.00     0.210 HD
ENDBRANCH  15  29
BRANCH  15  31
HETATM   31  C20 UNL     1      16.555 -11.492  25.379  1.00  0.00     0.205 C 
BRANCH  31  32
HETATM   32  O7  UNL     1      16.783 -11.953  24.105  1.00  0.00    -0.398 OA
ATOM     33  H7  UNL     1      16.199 -12.615  23.754  1.00  0.00     0.209 HD
ENDBRANCH  31  32
ENDBRANCH  15  31
BRANCH  14  34
HETATM   34  O5  UNL     1      18.895 -11.179  25.943  1.00  0.00    -0.390 OA
ATOM     35  H5  UNL     1      18.919 -11.370  25.013  1.00  0.00     0.210 HD
ENDBRANCH  14  34
TORSDOF 10
ENDMDL
MODEL 4
REMARK VINA RESULT: -7.664088617      1.428      3.490
REMARK  10 active torsions:
REMARK  status: ('A' for Active; 'I' for Inactive)
REMARK    1  A    between atoms: N1_4  and  C4_6 
REMARK    2  A    between atoms: C4_6  and  C5_7 
REMARK    3  A    between atoms: C5_7  and  C6_8 
REMARK    4  A    between atoms: C6_8  and  O1_9 
REMARK    5  A    between atoms: C9_13  and  O2_14 
REMARK    6  A    between atoms: C11_17  and  O3_18 
REMARK    7  A    between atoms: C18_27  and  O5_28 
REMARK    8  A    between atoms: C19_30  and  O6_31 
REMARK    9  A    between atoms: C19_30  and  C20_33 
REMARK   10  A    between atoms: C20_33  and  O7_34 
ROOT
HETATM    1  C6  UNL     1      19.425  -9.083  26.969  1.00  0.00     0.067 C 
HETATM    2  C7  UNL     1      18.755  -8.927  28.291  1.00  0.00     0.047 C 
HETATM    3  C8  UNL     1      17.238  -8.938  28.006  1.00  0.00     0.037 C 
HETATM    4  C9  UNL     1      16.589  -7.676  28.444  1.00  0.00     0.070 C 
HETATM    5  C10 UNL     1      17.042  -6.644  27.495  1.00  0.00     0.071 C 
HETATM    6  C11 UNL     1      18.188  -7.022  26.614  1.00  0.00     0.129 C 
HETATM    7  C12 UNL     1      18.301  -8.485  26.152  1.00  0.00     0.063 C 
HETATM    8  C13 UNL     1      17.039  -9.119  26.546  1.00  0.00     0.032 C 
HETATM    9  C14 UNL     1      16.031  -8.402  25.743  1.00  0.00     0.182 C 
HETATM   10  O4  UNL     1      14.821  -8.113  26.283  1.00  0.00    -0.382 OA
HETATM   11  C15 UNL     1      14.697  -8.942  27.388  1.00  0.00     0.159 C 
HETATM   12  C16 UNL     1      15.153  -8.039  28.503  1.00  0.00     0.048 C 
HETATM   13  C17 UNL     1      14.827  -8.636  29.862  1.00  0.00     0.016 C 
HETATM   14  C18 UNL     1      15.217 -10.292  27.285  1.00  0.00     0.184 C 
HETATM   15  C19 UNL     1      16.567 -10.486  26.528  1.00  0.00     0.117 C 
ENDROOT
BRANCH   1  16
HETATM   16  C5  UNL     1      20.759  -8.419  26.824  1.00  0.00     0.058 C 
BRANCH  16  17
HETATM   17  C4  UNL     1      21.721  -8.895  27.927  1.00  0.00     0.122 C 
BRANCH  17  18
HETATM   18  N1  UNL     1      22.442  -7.755  28.422  1.00  0.00    -0.397 N 
HETATM   19  C2  UNL     1      22.339  -7.329  29.625  1.00  0.00    -0.026 C 
HETATM   20  C1  UNL     1      21.468  -7.958  30.645  1.00  0.00     0.062 C 
HETATM   21  C3  UNL     1      23.171  -6.120  29.961  1.00  0.00     0.062 C 
ATOM     22  H1  UNL     1      23.065  -7.260  27.784  1.00  0.00     0.159 HD
ENDBRANCH  17  18
ENDBRANCH  16  17
ENDBRANCH   1  16
BRANCH   1  23
HETATM   23  O1  UNL     1      19.706 -10.408  26.638  1.00  0.00    -0.389 OA
ATOM     24  H1  UNL     1      19.059 -10.597  25.969  1.00  0.00     0.210 HD
ENDBRANCH   1  23
BRANCH   6  25
HETATM   25  O3  UNL     1      18.269  -6.128  25.526  1.00  0.00    -0.395 OA
ATOM     26  H3  UNL     1      18.821  -6.497  24.847  1.00  0.00     0.210 HD
ENDBRANCH   6  25
BRANCH   4  27
HETATM   27  O2  UNL     1      17.013  -7.452  29.776  1.00  0.00    -0.389 OA
ATOM     28  H2  UNL     1      17.928  -7.702  29.810  1.00  0.00     0.210 HD
ENDBRANCH   4  27
BRANCH  15  29
HETATM   29  O6  UNL     1      17.250 -11.360  27.428  1.00  0.00    -0.384 OA
ATOM     30  H6  UNL     1      16.692 -11.998  27.857  1.00  0.00     0.210 HD
ENDBRANCH  15  29
BRANCH  15  31
HETATM   31  C20 UNL     1      16.370 -11.262  25.294  1.00  0.00     0.205 C 
BRANCH  31  32
HETATM   32  O7  UNL     1      16.177 -12.617  25.401  1.00  0.00    -0.398 OA
ATOM     33  H7  UNL     1      16.706 -13.100  26.025  1.00  0.00     0.209 HD
ENDBRANCH  31  32
ENDBRANCH  15  31
BRANCH  14  34
HETATM   34  O5  UNL     1      14.287 -11.045  26.520  1.00  0.00    -0.390 OA
ATOM     35  H5  UNL     1      14.780 -11.702  26.043  1.00  0.00     0.210 HD
ENDBRANCH  14  34
TORSDOF 10
ENDMDL
MODEL 5
REMARK VINA RESULT: -7.585641420      3.425      6.850
REMARK  10 active torsions:
REMARK  status: ('A' for Active; 'I' for Inactive)
REMARK    1  A    between atoms: N1_4  and  C4_6 
REMARK    2  A    between atoms: C4_6  and  C5_7 
REMARK    3  A    between atoms: C5_7  and  C6_8 
REMARK    4  A    between atoms: C6_8  and  O1_9 
REMARK    5  A    between atoms: C9_13  and  O2_14 
REMARK    6  A    between atoms: C11_17  and  O3_18 
REMARK    7  A    between atoms: C18_27  and  O5_28 
REMARK    8  A    between atoms: C19_30  and  O6_31 
REMARK    9  A    between atoms: C19_30  and  C20_33 
REMARK   10  A    between atoms: C20_33  and  O7_34 
ROOT
HETATM    1  C6  UNL     1      14.100  -7.961  26.813  1.00  0.00     0.067 C 
HETATM    2  C7  UNL     1      14.597  -9.085  25.970  1.00  0.00     0.047 C 
HETATM    3  C8  UNL     1      16.135  -9.067  26.095  1.00  0.00     0.037 C 
HETATM    4  C9  UNL     1      16.790  -8.866  24.777  1.00  0.00     0.070 C 
HETATM    5  C10 UNL     1      16.524  -7.464  24.409  1.00  0.00     0.071 C 
HETATM    6  C11 UNL     1      15.485  -6.760  25.219  1.00  0.00     0.129 C 
HETATM    7  C12 UNL     1      15.353  -7.121  26.708  1.00  0.00     0.063 C 
HETATM    8  C13 UNL     1      16.515  -7.963  27.013  1.00  0.00     0.032 C 
HETATM    9  C14 UNL     1      17.659  -7.056  26.802  1.00  0.00     0.182 C 
HETATM   10  O4  UNL     1      18.801  -7.530  26.245  1.00  0.00    -0.382 OA
HETATM   11  C15 UNL     1      18.732  -8.910  26.366  1.00  0.00     0.159 C 
HETATM   12  C16 UNL     1      18.182  -9.310  25.023  1.00  0.00     0.048 C 
HETATM   13  C17 UNL     1      18.292 -10.810  24.808  1.00  0.00     0.016 C 
HETATM   14  C18 UNL     1      18.156  -9.456  27.580  1.00  0.00     0.184 C 
HETATM   15  C19 UNL     1      16.909  -8.730  28.173  1.00  0.00     0.117 C 
ENDROOT
BRANCH   1  16
HETATM   16  C5  UNL     1      12.836  -7.303  26.355  1.00  0.00     0.058 C 
BRANCH  16  17
HETATM   17  C4  UNL     1      12.315  -7.969  25.069  1.00  0.00     0.122 C 
BRANCH  17  18
HETATM   18  N1  UNL     1      11.454  -7.039  24.394  1.00  0.00    -0.397 N 
HETATM   19  C2  UNL     1      10.687  -7.371  23.423  1.00  0.00    -0.026 C 
HETATM   20  C1  UNL     1      10.597  -8.748  22.884  1.00  0.00     0.062 C 
HETATM   21  C3  UNL     1       9.857  -6.258  22.840  1.00  0.00     0.062 C 
ATOM     22  H1  UNL     1      11.453  -6.067  24.701  1.00  0.00     0.159 HD
ENDBRANCH  17  18
ENDBRANCH  16  17
ENDBRANCH   1  16
BRANCH   1  23
HETATM   23  O1  UNL     1      13.792  -8.337  28.120  1.00  0.00    -0.389 OA
ATOM     24  H1  UNL     1      14.109  -9.231  28.159  1.00  0.00     0.210 HD
ENDBRANCH   1  23
BRANCH   6  25
HETATM   25  O3  UNL     1      15.599  -5.366  25.033  1.00  0.00    -0.395 OA
ATOM     26  H3  UNL     1      16.327  -5.178  24.452  1.00  0.00     0.210 HD
ENDBRANCH   6  25
BRANCH   4  27
HETATM   27  O2  UNL     1      16.206  -9.808  23.896  1.00  0.00    -0.389 OA
ATOM     28  H2  UNL     1      15.314  -9.935  24.194  1.00  0.00     0.210 HD
ENDBRANCH   4  27
BRANCH  15  29
HETATM   29  O6  UNL     1      16.065  -9.847  28.459  1.00  0.00    -0.384 OA
ATOM     30  H6  UNL     1      15.956 -10.031  29.384  1.00  0.00     0.210 HD
ENDBRANCH  15  29
BRANCH  15  31
HETATM   31  C20 UNL     1      17.223  -8.127  29.477  1.00  0.00     0.205 C 
BRANCH  31  32
HETATM   32  O7  UNL     1      16.182  -7.699  30.264  1.00  0.00    -0.398 OA
ATOM     33  H7  UNL     1      16.113  -6.771  30.454  1.00  0.00     0.209 HD
ENDBRANCH  31  32
ENDBRANCH  15  31
BRANCH  14  34
HETATM   34  O5  UNL     1      19.135  -9.339  28.601  1.00  0.00    -0.390 OA
ATOM     35  H5  UNL     1      18.783  -8.758  29.265  1.00  0.00     0.210 HD
ENDBRANCH  14  34
TORSDOF 10
ENDMDL
