MODEL 1
REMARK VINA RESULT: -7.626827369      0.000      0.000
REMARK  11 active torsions:
REMARK  status: ('A' for Active; 'I' for Inactive)
REMARK    1  A    between atoms: C2_2  and  C4_4 
REMARK    2  A    between atoms: C4_4  and  O1_5 
REMARK    3  A    between atoms: C4_4  and  C5_7 
REMARK    4  A    between atoms: C6_9  and  O3_10 
REMARK    5  A    between atoms: O3_10  and  C7_11 
REMARK    6  A    between atoms: C7_11  and  C8_12 
REMARK    7  A    between atoms: C9_13  and  O4_14 
REMARK    8  A    between atoms: C16_22  and  O5_23 
REMARK    9  A    between atoms: C18_26  and  O6_27 
REMARK   10  A    between atoms: C19_29  and  O7_30 
REMARK   11  A    between atoms: C20_32  and  O8_33 
ROOT
HETATM    1  C5  UNL     1      12.619  -8.094  24.766  1.00  0.00     0.185 C 
HETATM    2  O2  UNL     1      13.632  -8.400  23.879  1.00  0.00    -0.348 OA
HETATM    3  C6  UNL     1      14.851  -7.871  24.304  1.00  0.00     0.291 C 
HETATM    4  C18 UNL     1      15.200  -8.298  25.690  1.00  0.00     0.204 C 
HETATM    5  C19 UNL     1      14.139  -7.850  26.677  1.00  0.00     0.183 C 
HETATM    6  C20 UNL     1      12.997  -7.194  25.881  1.00  0.00     0.181 C 
ENDROOT
BRANCH   3   7
HETATM    7  O3  UNL     1      15.849  -8.191  23.391  1.00  0.00    -0.358 OA
BRANCH   7   8
HETATM    8  C7  UNL     1      16.225  -7.135  22.604  1.00  0.00     0.186 C 
BRANCH   8   9
HETATM    9  C8  UNL     1      15.915  -7.403  21.150  1.00  0.00     0.046 A 
HETATM   10  C9  UNL     1      16.742  -8.416  20.487  1.00  0.00     0.141 C 
HETATM   11  C10 UNL     1      16.749  -8.103  19.047  1.00  0.00    -0.007 A 
HETATM   12  C11 UNL     1      16.941  -9.145  18.112  1.00  0.00     0.018 A 
HETATM   13  C12 UNL     1      15.661  -8.524  18.159  1.00  0.00    -0.003 A 
HETATM   14  C17 UNL     1      16.830  -6.657  19.018  1.00  0.00     0.051 C 
HETATM   15  C13 UNL     1      14.446  -8.801  18.942  1.00  0.00     0.006 C 
HETATM   16  C14 UNL     1      13.997  -7.468  19.489  1.00  0.00     0.009 C 
HETATM   17  C15 UNL     1      14.780  -6.817  20.513  1.00  0.00     0.037 A 
HETATM   18  C16 UNL     1      16.057  -6.195  20.203  1.00  0.00     0.076 A 
BRANCH  10  19
HETATM   19  O4  UNL     1      16.556  -9.729  20.850  1.00  0.00    -0.394 OA
ATOM     20  H4  UNL     1      16.863 -10.399  20.251  1.00  0.00     0.210 HD
ENDBRANCH  10  19
BRANCH  18  21
HETATM   21  O5  UNL     1      16.419  -4.974  20.703  1.00  0.00    -0.388 OA
ATOM     22  H5  UNL     1      16.904  -4.364  20.161  1.00  0.00     0.210 HD
ENDBRANCH  18  21
ENDBRANCH   8   9
ENDBRANCH   7   8
ENDBRANCH   3   7
BRANCH   4  23
HETATM   23  O6  UNL     1      16.430  -7.728  26.034  1.00  0.00    -0.388 OA
ATOM     24  H6  UNL     1      16.337  -6.782  26.023  1.00  0.00     0.210 HD
ENDBRANCH   4  23
BRANCH   1  25
HETATM   25  C4  UNL     1      11.353  -7.656  24.105  1.00  0.00     0.153 C 
BRANCH  25  26
HETATM   26  C2  UNL     1      11.293  -7.965  22.645  1.00  0.00     0.009 C 
HETATM   27  C1  UNL     1      10.120  -8.937  22.449  1.00  0.00     0.012 C 
HETATM   28  C3  UNL     1      11.020  -6.781  21.754  1.00  0.00     0.012 C 
ENDBRANCH  25  26
BRANCH  25  29
HETATM   29  O1  UNL     1      11.017  -6.326  24.315  1.00  0.00    -0.393 OA
ATOM     30  H1  UNL     1      10.124  -6.173  24.031  1.00  0.00     0.210 HD
ENDBRANCH  25  29
ENDBRANCH   1  25
BRANCH   5  31
HETATM   31  O7  UNL     1      13.580  -8.924  27.359  1.00  0.00    -0.390 OA
ATOM     32  H7  UNL     1      12.632  -8.870  27.386  1.00  0.00     0.210 HD
ENDBRANCH   5  31
BRANCH   6  33
HETATM   33  O8  UNL     1      11.886  -7.057  26.736  1.00  0.00    -0.390 OA
ATOM     34  H8  UNL     1      12.167  -7.247  27.624  1.00  0.00     0.210 HD
ENDBRANCH   6  33
TORSDOF 11
ENDMDL
MODEL 2
REMARK VINA RESULT: -7.518542388      4.224      7.569
REMARK  11 active torsions:
REMARK  status: ('A' for Active; 'I' for Inactive)
REMARK    1  A    between atoms: C2_2  and  C4_4 
REMARK    2  A    between atoms: C4_4  and  O1_5 
REMARK    3  A    between atoms: C4_4  and  C5_7 
REMARK    4  A    between atoms: C6_9  and  O3_10 
REMARK    5  A    between atoms: O3_10  and  C7_11 
REMARK    6  A    between atoms: C7_11  and  C8_12 
REMARK    7  A    between atoms: C9_13  and  O4_14 
REMARK    8  A    between atoms: C16_22  and  O5_23 
REMARK    9  A    between atoms: C18_26  and  O6_27 
REMARK   10  A    between atoms: C19_29  and  O7_30 
REMARK   11  A    between atoms: C20_32  and  O8_33 
ROOT
HETATM    1  C5  UNL     1      15.579  -7.825  25.346  1.00  0.00     0.185 C 
HETATM    2  O2  UNL     1      16.511  -8.112  26.323  1.00  0.00    -0.348 OA
HETATM    3  C6  UNL     1      15.980  -7.918  27.598  1.00  0.00     0.291 C 
HETATM    4  C18 UNL     1      14.720  -8.689  27.810  1.00  0.00     0.204 C 
HETATM    5  C19 UNL     1      13.660  -8.278  26.807  1.00  0.00     0.183 C 
HETATM    6  C20 UNL     1      14.294  -7.270  25.832  1.00  0.00     0.181 C 
ENDROOT
BRANCH   3   7
HETATM    7  O3  UNL     1      16.940  -8.210  28.559  1.00  0.00    -0.358 OA
BRANCH   7   8
HETATM    8  C7  UNL     1      17.474  -9.465  28.431  1.00  0.00     0.186 C 
BRANCH   8   9
HETATM    9  C8  UNL     1      18.984  -9.414  28.404  1.00  0.00     0.046 A 
HETATM   10  C9  UNL     1      19.599  -8.170  28.875  1.00  0.00     0.141 C 
HETATM   11  C10 UNL     1      20.913  -8.053  28.220  1.00  0.00    -0.007 A 
HETATM   12  C11 UNL     1      21.947  -7.334  28.860  1.00  0.00     0.018 A 
HETATM   13  C12 UNL     1      22.099  -8.743  28.736  1.00  0.00    -0.003 A 
HETATM   14  C17 UNL     1      20.660  -8.526  26.874  1.00  0.00     0.051 C 
HETATM   15  C13 UNL     1      21.697  -9.870  29.595  1.00  0.00     0.006 C 
HETATM   16  C14 UNL     1      21.043 -10.873  28.676  1.00  0.00     0.009 C 
HETATM   17  C15 UNL     1      19.759 -10.570  28.087  1.00  0.00     0.037 A 
HETATM   18  C16 UNL     1      19.633  -9.595  27.017  1.00  0.00     0.076 A 
BRANCH  10  19
HETATM   19  O4  UNL     1      19.535  -7.898  30.222  1.00  0.00    -0.394 OA
ATOM     20  H4  UNL     1      20.355  -7.840  30.698  1.00  0.00     0.210 HD
ENDBRANCH  10  19
BRANCH  18  21
HETATM   21  O5  UNL     1      18.848  -9.809  25.917  1.00  0.00    -0.388 OA
ATOM     22  H5  UNL     1      18.668 -10.696  25.629  1.00  0.00     0.210 HD
ENDBRANCH  18  21
ENDBRANCH   8   9
ENDBRANCH   7   8
ENDBRANCH   3   7
BRANCH   4  23
HETATM   23  O6  UNL     1      14.260  -8.438  29.107  1.00  0.00    -0.388 OA
ATOM     24  H6  UNL     1      13.312  -8.379  29.084  1.00  0.00     0.210 HD
ENDBRANCH   4  23
BRANCH   1  25
HETATM   25  C4  UNL     1      16.128  -7.033  24.205  1.00  0.00     0.153 C 
BRANCH  25  26
HETATM   26  C2  UNL     1      17.523  -7.407  23.823  1.00  0.00     0.009 C 
HETATM   27  C1  UNL     1      17.551  -7.493  22.290  1.00  0.00     0.012 C 
HETATM   28  C3  UNL     1      18.580  -6.407  24.214  1.00  0.00     0.012 C 
ENDBRANCH  25  26
BRANCH  25  29
HETATM   29  O1  UNL     1      16.038  -5.657  24.356  1.00  0.00    -0.393 OA
ATOM     30  H1  UNL     1      15.382  -5.312  23.762  1.00  0.00     0.210 HD
ENDBRANCH  25  29
ENDBRANCH   1  25
BRANCH   5  31
HETATM   31  O7  UNL     1      13.230  -9.353  26.039  1.00  0.00    -0.390 OA
ATOM     32  H7  UNL     1      12.363  -9.206  25.679  1.00  0.00     0.210 HD
ENDBRANCH   5  31
BRANCH   6  33
HETATM   33  O8  UNL     1      13.430  -7.120  24.730  1.00  0.00    -0.390 OA
ATOM     34  H8  UNL     1      13.172  -6.207  24.673  1.00  0.00     0.210 HD
ENDBRANCH   6  33
TORSDOF 11
ENDMDL
MODEL 3
REMARK VINA RESULT: -7.465855239      1.646      3.911
REMARK  11 active torsions:
REMARK  status: ('A' for Active; 'I' for Inactive)
REMARK    1  A    between atoms: C2_2  and  C4_4 
REMARK    2  A    between atoms: C4_4  and  O1_5 
REMARK    3  A    between atoms: C4_4  and  C5_7 
REMARK    4  A    between atoms: C6_9  and  O3_10 
REMARK    5  A    between atoms: O3_10  and  C7_11 
REMARK    6  A    between atoms: C7_11  and  C8_12 
REMARK    7  A    between atoms: C9_13  and  O4_14 
REMARK    8  A    between atoms: C16_22  and  O5_23 
REMARK    9  A    between atoms: C18_26  and  O6_27 
REMARK   10  A    between atoms: C19_29  and  O7_30 
REMARK   11  A    between atoms: C20_32  and  O8_33 
ROOT
HETATM    1  C5  UNL     1      15.402  -7.321  26.845  1.00  0.00     0.185 C 
HETATM    2  O2  UNL     1      15.721  -7.413  25.505  1.00  0.00    -0.348 OA
HETATM    3  C6  UNL     1      14.913  -8.348  24.857  1.00  0.00     0.291 C 
HETATM    4  C18 UNL     1      13.460  -8.068  25.047  1.00  0.00     0.204 C 
HETATM    5  C19 UNL     1      13.094  -8.090  26.519  1.00  0.00     0.183 C 
HETATM    6  C20 UNL     1      14.388  -8.289  27.328  1.00  0.00     0.181 C 
ENDROOT
BRANCH   3   7
HETATM    7  O3  UNL     1      15.260  -8.421  23.513  1.00  0.00    -0.358 OA
BRANCH   7   8
HETATM    8  C7  UNL     1      15.439  -7.195  22.929  1.00  0.00     0.186 C 
BRANCH   8   9
HETATM    9  C8  UNL     1      15.388  -7.297  21.423  1.00  0.00     0.046 A 
HETATM   10  C9  UNL     1      16.440  -8.100  20.792  1.00  0.00     0.141 C 
HETATM   11  C10 UNL     1      16.615  -7.595  19.420  1.00  0.00    -0.007 A 
HETATM   12  C11 UNL     1      17.089  -8.467  18.414  1.00  0.00     0.018 A 
HETATM   13  C12 UNL     1      15.741  -8.021  18.322  1.00  0.00    -0.003 A 
HETATM   14  C17 UNL     1      16.491  -6.159  19.571  1.00  0.00     0.051 C 
HETATM   15  C13 UNL     1      14.476  -8.550  18.857  1.00  0.00     0.006 C 
HETATM   16  C14 UNL     1      13.765  -7.369  19.473  1.00  0.00     0.009 C 
HETATM   17  C15 UNL     1      14.287  -6.773  20.680  1.00  0.00     0.037 A 
HETATM   18  C16 UNL     1      15.493  -5.962  20.659  1.00  0.00     0.076 A 
BRANCH  10  19
HETATM   19  O4  UNL     1      16.392  -9.463  20.965  1.00  0.00    -0.394 OA
ATOM     20  H4  UNL     1      15.535  -9.872  21.002  1.00  0.00     0.210 HD
ENDBRANCH  10  19
BRANCH  18  21
HETATM   21  O5  UNL     1      15.599  -4.786  21.350  1.00  0.00    -0.388 OA
ATOM     22  H5  UNL     1      14.829  -4.402  21.751  1.00  0.00     0.210 HD
ENDBRANCH  18  21
ENDBRANCH   8   9
ENDBRANCH   7   8
ENDBRANCH   3   7
BRANCH   4  23
HETATM   23  O6  UNL     1      12.727  -9.046  24.368  1.00  0.00    -0.388 OA
ATOM     24  H6  UNL     1      12.848  -9.877  24.813  1.00  0.00     0.210 HD
ENDBRANCH   4  23
BRANCH   1  25
HETATM   25  C4  UNL     1      16.593  -7.270  27.745  1.00  0.00     0.153 C 
BRANCH  25  26
HETATM   26  C2  UNL     1      17.593  -8.350  27.488  1.00  0.00     0.009 C 
HETATM   27  C1  UNL     1      18.942  -7.653  27.257  1.00  0.00     0.012 C 
HETATM   28  C3  UNL     1      17.800  -9.311  28.629  1.00  0.00     0.012 C 
ENDBRANCH  25  26
BRANCH  25  29
HETATM   29  O1  UNL     1      16.296  -7.221  29.099  1.00  0.00    -0.393 OA
ATOM     30  H1  UNL     1      17.068  -6.957  29.586  1.00  0.00     0.210 HD
ENDBRANCH  25  29
ENDBRANCH   1  25
BRANCH   5  31
HETATM   31  O7  UNL     1      12.550  -6.881  26.935  1.00  0.00    -0.390 OA
ATOM     32  H7  UNL     1      12.206  -6.934  27.819  1.00  0.00     0.210 HD
ENDBRANCH   5  31
BRANCH   6  33
HETATM   33  O8  UNL     1      14.112  -8.004  28.679  1.00  0.00    -0.390 OA
ATOM     34  H8  UNL     1      13.582  -7.215  28.716  1.00  0.00     0.210 HD
ENDBRANCH   6  33
TORSDOF 11
ENDMDL
MODEL 4
REMARK VINA RESULT: -7.421136186      5.667      8.256
REMARK  11 active torsions:
REMARK  status: ('A' for Active; 'I' for Inactive)
REMARK    1  A    between atoms: C2_2  and  C4_4 
REMARK    2  A    between atoms: C4_4  and  O1_5 
REMARK    3  A    between atoms: C4_4  and  C5_7 
REMARK    4  A    between atoms: C6_9  and  O3_10 
REMARK    5  A    between atoms: O3_10  and  C7_11 
REMARK    6  A    between atoms: C7_11  and  C8_12 
REMARK    7  A    between atoms: C9_13  and  O4_14 
REMARK    8  A    between atoms: C16_22  and  O5_23 
REMARK    9  A    between atoms: C18_26  and  O6_27 
REMARK   10  A    between atoms: C19_29  and  O7_30 
REMARK   11  A    between atoms: C20_32  and  O8_33 
ROOT
HETATM    1  C5  UNL     1      15.682  -9.491  27.785  1.00  0.00     0.185 C 
HETATM    2  O2  UNL     1      17.019  -9.728  28.033  1.00  0.00    -0.348 OA
HETATM    3  C6  UNL     1      17.566  -8.732  28.842  1.00  0.00     0.291 C 
HETATM    4  C18 UNL     1      16.805  -8.553  30.112  1.00  0.00     0.204 C 
HETATM    5  C19 UNL     1      15.364  -8.173  29.830  1.00  0.00     0.183 C 
HETATM    6  C20 UNL     1      15.153  -8.209  28.306  1.00  0.00     0.181 C 
ENDROOT
BRANCH   3   7
HETATM    7  O3  UNL     1      18.911  -8.994  29.070  1.00  0.00    -0.358 OA
BRANCH   7   8
HETATM    8  C7  UNL     1      19.750  -8.299  28.239  1.00  0.00     0.186 C 
BRANCH   8   9
HETATM    9  C8  UNL     1      21.114  -8.946  28.178  1.00  0.00     0.046 A 
HETATM   10  C9  UNL     1      21.306 -10.134  29.015  1.00  0.00     0.141 C 
HETATM   11  C10 UNL     1      22.744 -10.232  29.316  1.00  0.00    -0.007 A 
HETATM   12  C11 UNL     1      23.314 -11.499  29.578  1.00  0.00     0.018 A 
HETATM   13  C12 UNL     1      23.692 -10.838  28.376  1.00  0.00    -0.003 A 
HETATM   14  C17 UNL     1      23.136  -8.855  29.535  1.00  0.00     0.051 C 
HETATM   15  C13 UNL     1      23.127 -10.840  27.016  1.00  0.00     0.006 C 
HETATM   16  C14 UNL     1      23.052  -9.391  26.601  1.00  0.00     0.009 C 
HETATM   17  C15 UNL     1      22.099  -8.514  27.239  1.00  0.00     0.037 A 
HETATM   18  C16 UNL     1      22.297  -8.053  28.604  1.00  0.00     0.076 A 
BRANCH  10  19
HETATM   19  O4  UNL     1      20.656 -11.288  28.643  1.00  0.00    -0.394 OA
ATOM     20  H4  UNL     1      21.125 -12.108  28.736  1.00  0.00     0.210 HD
ENDBRANCH  10  19
BRANCH  18  21
HETATM   21  O5  UNL     1      22.072  -6.756  28.980  1.00  0.00    -0.388 OA
ATOM     22  H5  UNL     1      21.638  -6.158  28.384  1.00  0.00     0.210 HD
ENDBRANCH  18  21
ENDBRANCH   8   9
ENDBRANCH   7   8
ENDBRANCH   3   7
BRANCH   4  23
HETATM   23  O6  UNL     1      17.419  -7.542  30.859  1.00  0.00    -0.388 OA
ATOM     24  H6  UNL     1      17.844  -7.939  31.611  1.00  0.00     0.210 HD
ENDBRANCH   4  23
BRANCH   1  25
HETATM   25  C4  UNL     1      15.285  -9.717  26.363  1.00  0.00     0.153 C 
BRANCH  25  26
HETATM   26  C2  UNL     1      15.620  -8.581  25.452  1.00  0.00     0.009 C 
HETATM   27  C1  UNL     1      16.701  -9.095  24.489  1.00  0.00     0.012 C 
HETATM   28  C3  UNL     1      14.481  -8.096  24.594  1.00  0.00     0.012 C 
ENDBRANCH  25  26
BRANCH  25  29
HETATM   29  O1  UNL     1      13.960 -10.086  26.181  1.00  0.00    -0.393 OA
ATOM     30  H1  UNL     1      13.639 -10.522  26.962  1.00  0.00     0.210 HD
ENDBRANCH  25  29
ENDBRANCH   1  25
BRANCH   5  31
HETATM   31  O7  UNL     1      14.471  -9.088  30.374  1.00  0.00    -0.390 OA
ATOM     32  H7  UNL     1      14.908  -9.882  30.661  1.00  0.00     0.210 HD
ENDBRANCH   5  31
BRANCH   6  33
HETATM   33  O8  UNL     1      13.768  -8.164  28.052  1.00  0.00    -0.390 OA
ATOM     34  H8  UNL     1      13.319  -7.997  28.873  1.00  0.00     0.210 HD
ENDBRANCH   6  33
TORSDOF 11
ENDMDL
MODEL 5
REMARK VINA RESULT: -7.378334346      5.509      8.165
REMARK  11 active torsions:
REMARK  status: ('A' for Active; 'I' for Inactive)
REMARK    1  A    between atoms: C2_2  and  C4_4 
REMARK    2  A    between atoms: C4_4  and  O1_5 
REMARK    3  A    between atoms: C4_4  and  C5_7 
REMARK    4  A    between atoms: C6_9  and  O3_10 
REMARK    5  A    between atoms: O3_10  and  C7_11 
REMARK    6  A    between atoms: C7_11  and  C8_12 
REMARK    7  A    between atoms: C9_13  and  O4_14 
REMARK    8  A    between atoms: C16_22  and  O5_23 
REMARK    9  A    between atoms: C18_26  and  O6_27 
REMARK   10  A    between atoms: C19_29  and  O7_30 
REMARK   11  A    between atoms: C20_32  and  O8_33 
ROOT
HETATM    1  C5  UNL     1      15.559  -9.493  27.792  1.00  0.00     0.185 C 
HETATM    2  O2  UNL     1      16.893  -9.752  28.040  1.00  0.00    -0.348 OA
HETATM    3  C6  UNL     1      17.457  -8.763  28.845  1.00  0.00     0.291 C 
HETATM    4  C18 UNL     1      16.699  -8.567  30.116  1.00  0.00     0.204 C 
HETATM    5  C19 UNL     1      15.265  -8.164  29.833  1.00  0.00     0.183 C 
HETATM    6  C20 UNL     1      15.052  -8.201  28.309  1.00  0.00     0.181 C 
ENDROOT
BRANCH   3   7
HETATM    7  O3  UNL     1      18.797  -9.047  29.074  1.00  0.00    -0.358 OA
BRANCH   7   8
HETATM    8  C7  UNL     1      19.310  -9.983  28.215  1.00  0.00     0.186 C 
BRANCH   8   9
HETATM    9  C8  UNL     1      20.818  -9.914  28.173  1.00  0.00     0.046 A 
HETATM   10  C9  UNL     1      21.436  -8.787  28.878  1.00  0.00     0.141 C 
HETATM   11  C10 UNL     1      22.737  -8.528  28.237  1.00  0.00    -0.007 A 
HETATM   12  C11 UNL     1      23.779  -7.945  28.992  1.00  0.00     0.018 A 
HETATM   13  C12 UNL     1      23.936  -9.298  28.581  1.00  0.00    -0.003 A 
HETATM   14  C17 UNL     1      22.460  -8.717  26.827  1.00  0.00     0.051 C 
HETATM   15  C13 UNL     1      23.556 -10.579  29.198  1.00  0.00     0.006 C 
HETATM   16  C14 UNL     1      22.889 -11.379  28.105  1.00  0.00     0.009 C 
HETATM   17  C15 UNL     1      21.594 -10.974  27.613  1.00  0.00     0.037 A 
HETATM   18  C16 UNL     1      21.442  -9.802  26.767  1.00  0.00     0.076 A 
BRANCH  10  19
HETATM   19  O4  UNL     1      21.397  -8.796  30.252  1.00  0.00    -0.394 OA
ATOM     20  H4  UNL     1      22.169  -8.496  30.717  1.00  0.00     0.210 HD
ENDBRANCH  10  19
BRANCH  18  21
HETATM   21  O5  UNL     1      20.637  -9.794  25.661  1.00  0.00    -0.388 OA
ATOM     22  H5  UNL     1      21.019  -9.891  24.797  1.00  0.00     0.210 HD
ENDBRANCH  18  21
ENDBRANCH   8   9
ENDBRANCH   7   8
ENDBRANCH   3   7
BRANCH   4  23
HETATM   23  O6  UNL     1      17.330  -7.564  30.859  1.00  0.00    -0.388 OA
ATOM     24  H6  UNL     1      16.729  -7.263  31.529  1.00  0.00     0.210 HD
ENDBRANCH   4  23
BRANCH   1  25
HETATM   25  C4  UNL     1      15.158  -9.717  26.371  1.00  0.00     0.153 C 
BRANCH  25  26
HETATM   26  C2  UNL     1      15.510  -8.590  25.456  1.00  0.00     0.009 C 
HETATM   27  C1  UNL     1      16.581  -9.123  24.493  1.00  0.00     0.012 C 
HETATM   28  C3  UNL     1      14.378  -8.088  24.599  1.00  0.00     0.012 C 
ENDBRANCH  25  26
BRANCH  25  29
HETATM   29  O1  UNL     1      13.827 -10.066  26.191  1.00  0.00    -0.393 OA
ATOM     30  H1  UNL     1      13.364  -9.997  27.017  1.00  0.00     0.210 HD
ENDBRANCH  25  29
ENDBRANCH   1  25
BRANCH   5  31
HETATM   31  O7  UNL     1      14.357  -9.062  30.380  1.00  0.00    -0.390 OA
ATOM     32  H7  UNL     1      14.025  -8.763  31.219  1.00  0.00     0.210 HD
ENDBRANCH   5  31
BRANCH   6  33
HETATM   33  O8  UNL     1      13.668  -8.134  28.056  1.00  0.00    -0.390 OA
ATOM     34  H8  UNL     1      13.501  -7.372  27.512  1.00  0.00     0.210 HD
ENDBRANCH   6  33
TORSDOF 11
ENDMDL
