MODEL 1
REMARK VINA RESULT: -6.515584653      0.000      0.000
REMARK  6 active torsions:
REMARK  status: ('A' for Active; 'I' for Inactive)
REMARK    1  A    between atoms: N1_1  and  N2_4 
REMARK    2  A    between atoms: N2_4  and  N3_6 
REMARK    3  A    between atoms: N3_6  and  N4_7 
REMARK       I    between atoms: N4_7  and  C1_9 
REMARK    4  A    between atoms: C1_9  and  C2_11 
REMARK    5  A    between atoms: N5_15  and  C6_16 
REMARK    6  A    between atoms: C6_16  and  C7_17 
ROOT
HETATM    1  C2  UNL     1      35.567  30.882  -3.130  1.00  0.00     0.049 A 
HETATM    2  C3  UNL     1      34.237  31.064  -3.494  1.00  0.00     0.020 A 
HETATM    3  C4  UNL     1      33.497  31.918  -2.729  1.00  0.00     0.019 A 
HETATM    4  C5  UNL     1      34.061  32.570  -1.636  1.00  0.00     0.096 A 
HETATM    5  N5  UNL     1      35.364  32.362  -1.314  1.00  0.00    -0.337 N 
HETATM    6  C8  UNL     1      36.097  31.531  -2.051  1.00  0.00     0.113 A 
ENDROOT
BRANCH   1   7
HETATM    7  C1  UNL     1      36.352  30.024  -4.002  1.00  0.00     0.270 C 
HETATM    8  N4  UNL     1      37.670  30.211  -4.412  1.00  0.00    -0.248 N 
ATOM      9  H4  UNL     1      38.198  31.025  -4.098  1.00  0.00     0.187 HD
HETATM   10  O1  UNL     1      35.745  28.968  -4.441  1.00  0.00    -0.266 OA
BRANCH   8  11
HETATM   11  N3  UNL     1      38.268  29.257  -5.271  1.00  0.00    -0.004 NA
BRANCH  11  12
HETATM   12  N2  UNL     1      38.859  28.218  -4.606  1.00  0.00    -0.233 N 
ATOM     13  H2  UNL     1      39.675  28.349  -4.007  1.00  0.00     0.205 HD
BRANCH  12  14
HETATM   14  N1  UNL     1      38.285  26.995  -4.796  1.00  0.00    -0.332 N 
ATOM     15  H12 UNL     1      37.275  26.894  -4.900  1.00  0.00     0.178 HD
ATOM     16  H11 UNL     1      38.931  26.206  -4.826  1.00  0.00     0.178 HD
ENDBRANCH  12  14
ENDBRANCH  11  12
ENDBRANCH   8  11
ENDBRANCH   1   7
BRANCH   5  17
HETATM   17  C6  UNL     1      35.935  33.096  -0.230  1.00  0.00     0.166 C 
BRANCH  17  18
HETATM   18  C7  UNL     1      35.369  32.903   1.088  1.00  0.00     0.270 C 
HETATM   19  N6  UNL     1      35.965  31.928   1.952  1.00  0.00    -0.057 NA
HETATM   20  O2  UNL     1      34.383  33.541   1.510  1.00  0.00    -0.270 OA
ENDBRANCH  17  18
ENDBRANCH   5  17
TORSDOF 6
ENDMDL
MODEL 2
REMARK VINA RESULT: -6.497419358      3.221      4.663
REMARK  6 active torsions:
REMARK  status: ('A' for Active; 'I' for Inactive)
REMARK    1  A    between atoms: N1_1  and  N2_4 
REMARK    2  A    between atoms: N2_4  and  N3_6 
REMARK    3  A    between atoms: N3_6  and  N4_7 
REMARK       I    between atoms: N4_7  and  C1_9 
REMARK    4  A    between atoms: C1_9  and  C2_11 
REMARK    5  A    between atoms: N5_15  and  C6_16 
REMARK    6  A    between atoms: C6_16  and  C7_17 
ROOT
HETATM    1  C2  UNL     1      36.108  31.475   0.228  1.00  0.00     0.049 A 
HETATM    2  C3  UNL     1      35.476  32.200   1.232  1.00  0.00     0.020 A 
HETATM    3  C4  UNL     1      34.261  32.746   0.931  1.00  0.00     0.019 A 
HETATM    4  C5  UNL     1      33.694  32.576  -0.329  1.00  0.00     0.096 A 
HETATM    5  N5  UNL     1      34.346  31.860  -1.282  1.00  0.00    -0.337 N 
HETATM    6  C8  UNL     1      35.532  31.324  -1.002  1.00  0.00     0.113 A 
ENDROOT
BRANCH   1   7
HETATM    7  C1  UNL     1      37.365  30.846   0.596  1.00  0.00     0.270 C 
HETATM    8  N4  UNL     1      38.476  30.631  -0.219  1.00  0.00    -0.248 N 
ATOM      9  H4  UNL     1      38.465  30.927  -1.195  1.00  0.00     0.187 HD
HETATM   10  O1  UNL     1      37.451  30.443   1.823  1.00  0.00    -0.266 OA
BRANCH   8  11
HETATM   11  N3  UNL     1      39.618  29.996   0.325  1.00  0.00    -0.004 NA
BRANCH  11  12
HETATM   12  N2  UNL     1      40.601  29.758  -0.595  1.00  0.00    -0.233 N 
ATOM     13  H2  UNL     1      40.396  29.583  -1.579  1.00  0.00     0.205 HD
BRANCH  12  14
HETATM   14  N1  UNL     1      41.877  29.772  -0.110  1.00  0.00    -0.332 N 
ATOM     15  H12 UNL     1      42.080  30.087   0.839  1.00  0.00     0.178 HD
ATOM     16  H11 UNL     1      42.597  29.449  -0.756  1.00  0.00     0.178 HD
ENDBRANCH  12  14
ENDBRANCH  11  12
ENDBRANCH   8  11
ENDBRANCH   1   7
BRANCH   5  17
HETATM   17  C6  UNL     1      33.710  31.643  -2.542  1.00  0.00     0.166 C 
BRANCH  17  18
HETATM   18  C7  UNL     1      34.034  32.548  -3.625  1.00  0.00     0.270 C 
HETATM   19  N6  UNL     1      35.193  32.275  -4.422  1.00  0.00    -0.057 NA
HETATM   20  O2  UNL     1      33.354  33.557  -3.899  1.00  0.00    -0.270 OA
ENDBRANCH  17  18
ENDBRANCH   5  17
TORSDOF 6
ENDMDL
MODEL 3
REMARK VINA RESULT: -6.462885700      2.443      2.901
REMARK  6 active torsions:
REMARK  status: ('A' for Active; 'I' for Inactive)
REMARK    1  A    between atoms: N1_1  and  N2_4 
REMARK    2  A    between atoms: N2_4  and  N3_6 
REMARK    3  A    between atoms: N3_6  and  N4_7 
REMARK       I    between atoms: N4_7  and  C1_9 
REMARK    4  A    between atoms: C1_9  and  C2_11 
REMARK    5  A    between atoms: N5_15  and  C6_16 
REMARK    6  A    between atoms: C6_16  and  C7_17 
ROOT
HETATM    1  C2  UNL     1      34.538  31.402  -1.595  1.00  0.00     0.049 A 
HETATM    2  C3  UNL     1      33.583  32.381  -1.345  1.00  0.00     0.020 A 
HETATM    3  C4  UNL     1      33.674  33.045  -0.156  1.00  0.00     0.019 A 
HETATM    4  C5  UNL     1      34.681  32.744   0.756  1.00  0.00     0.096 A 
HETATM    5  N5  UNL     1      35.593  31.778   0.472  1.00  0.00    -0.337 N 
HETATM    6  C8  UNL     1      35.516  31.122  -0.684  1.00  0.00     0.113 A 
ENDROOT
BRANCH   1   7
HETATM    7  C1  UNL     1      34.462  30.760  -2.897  1.00  0.00     0.270 C 
HETATM    8  N4  UNL     1      35.135  29.614  -3.318  1.00  0.00    -0.248 N 
ATOM      9  H4  UNL     1      35.767  29.125  -2.684  1.00  0.00     0.187 HD
HETATM   10  O1  UNL     1      33.676  31.327  -3.755  1.00  0.00    -0.266 OA
BRANCH   8  11
HETATM   11  N3  UNL     1      34.929  29.137  -4.635  1.00  0.00    -0.004 NA
BRANCH  11  12
HETATM   12  N2  UNL     1      36.059  29.161  -5.407  1.00  0.00    -0.233 N 
ATOM     13  H2  UNL     1      36.022  29.217  -6.425  1.00  0.00     0.205 HD
BRANCH  12  14
HETATM   14  N1  UNL     1      37.239  29.106  -4.723  1.00  0.00    -0.332 N 
ATOM     15  H12 UNL     1      38.015  29.727  -4.953  1.00  0.00     0.178 HD
ATOM     16  H11 UNL     1      37.283  28.409  -3.979  1.00  0.00     0.178 HD
ENDBRANCH  12  14
ENDBRANCH  11  12
ENDBRANCH   8  11
ENDBRANCH   1   7
BRANCH   5  17
HETATM   17  C6  UNL     1      36.657  31.537   1.394  1.00  0.00     0.166 C 
BRANCH  17  18
HETATM   18  C7  UNL     1      37.454  30.343   1.207  1.00  0.00     0.270 C 
HETATM   19  N6  UNL     1      38.796  30.483   0.725  1.00  0.00    -0.057 NA
HETATM   20  O2  UNL     1      37.029  29.193   1.443  1.00  0.00    -0.270 OA
ENDBRANCH  17  18
ENDBRANCH   5  17
TORSDOF 6
ENDMDL
MODEL 4
REMARK VINA RESULT: -6.404622095      1.850      5.857
REMARK  6 active torsions:
REMARK  status: ('A' for Active; 'I' for Inactive)
REMARK    1  A    between atoms: N1_1  and  N2_4 
REMARK    2  A    between atoms: N2_4  and  N3_6 
REMARK    3  A    between atoms: N3_6  and  N4_7 
REMARK       I    between atoms: N4_7  and  C1_9 
REMARK    4  A    between atoms: C1_9  and  C2_11 
REMARK    5  A    between atoms: N5_15  and  C6_16 
REMARK    6  A    between atoms: C6_16  and  C7_17 
ROOT
HETATM    1  C2  UNL     1      34.566  31.313  -2.092  1.00  0.00     0.049 A 
HETATM    2  C3  UNL     1      33.607  32.198  -2.573  1.00  0.00     0.020 A 
HETATM    3  C4  UNL     1      33.228  32.054  -3.877  1.00  0.00     0.019 A 
HETATM    4  C5  UNL     1      33.787  31.062  -4.677  1.00  0.00     0.096 A 
HETATM    5  N5  UNL     1      34.723  30.219  -4.168  1.00  0.00    -0.337 N 
HETATM    6  C8  UNL     1      35.101  30.349  -2.898  1.00  0.00     0.113 A 
ENDROOT
BRANCH   1   7
HETATM    7  C1  UNL     1      34.898  31.442  -0.684  1.00  0.00     0.270 C 
HETATM    8  N4  UNL     1      34.447  32.414   0.208  1.00  0.00    -0.248 N 
ATOM      9  H4  UNL     1      33.808  33.144  -0.104  1.00  0.00     0.187 HD
HETATM   10  O1  UNL     1      35.707  30.547  -0.216  1.00  0.00    -0.266 OA
BRANCH   8  11
HETATM   11  N3  UNL     1      34.887  32.373   1.553  1.00  0.00    -0.004 NA
BRANCH  11  12
HETATM   12  N2  UNL     1      36.164  32.832   1.724  1.00  0.00    -0.233 N 
ATOM     13  H2  UNL     1      36.435  33.788   1.493  1.00  0.00     0.205 HD
BRANCH  12  14
HETATM   14  N1  UNL     1      37.053  31.926   2.225  1.00  0.00    -0.332 N 
ATOM     15  H12 UNL     1      36.750  31.001   2.533  1.00  0.00     0.178 HD
ATOM     16  H11 UNL     1      38.023  32.238   2.267  1.00  0.00     0.178 HD
ENDBRANCH  12  14
ENDBRANCH  11  12
ENDBRANCH   8  11
ENDBRANCH   1   7
BRANCH   5  17
HETATM   17  C6  UNL     1      35.228  29.166  -4.991  1.00  0.00     0.166 C 
BRANCH  17  18
HETATM   18  C7  UNL     1      36.662  29.081  -5.171  1.00  0.00     0.270 C 
HETATM   19  N6  UNL     1      37.278  27.787  -5.157  1.00  0.00    -0.057 NA
HETATM   20  O2  UNL     1      37.391  30.079  -5.336  1.00  0.00    -0.270 OA
ENDBRANCH  17  18
ENDBRANCH   5  17
TORSDOF 6
ENDMDL
MODEL 5
REMARK VINA RESULT: -6.385608233      1.621      1.737
REMARK  6 active torsions:
REMARK  status: ('A' for Active; 'I' for Inactive)
REMARK    1  A    between atoms: N1_1  and  N2_4 
REMARK    2  A    between atoms: N2_4  and  N3_6 
REMARK    3  A    between atoms: N3_6  and  N4_7 
REMARK       I    between atoms: N4_7  and  C1_9 
REMARK    4  A    between atoms: C1_9  and  C2_11 
REMARK    5  A    between atoms: N5_15  and  C6_16 
REMARK    6  A    between atoms: C6_16  and  C7_17 
ROOT
HETATM    1  C2  UNL     1      35.270  31.043  -2.235  1.00  0.00     0.049 A 
HETATM    2  C3  UNL     1      33.980  31.558  -2.296  1.00  0.00     0.020 A 
HETATM    3  C4  UNL     1      33.569  32.323  -1.242  1.00  0.00     0.019 A 
HETATM    4  C5  UNL     1      34.414  32.566  -0.163  1.00  0.00     0.096 A 
HETATM    5  N5  UNL     1      35.667  32.042  -0.144  1.00  0.00    -0.337 N 
HETATM    6  C8  UNL     1      36.080  31.294  -1.164  1.00  0.00     0.113 A 
ENDROOT
BRANCH   1   7
HETATM    7  C1  UNL     1      35.708  30.292  -3.400  1.00  0.00     0.270 C 
HETATM    8  N4  UNL     1      36.903  30.438  -4.102  1.00  0.00    -0.248 N 
ATOM      9  H4  UNL     1      37.590  31.134  -3.813  1.00  0.00     0.187 HD
HETATM   10  O1  UNL     1      34.885  29.388  -3.824  1.00  0.00    -0.266 OA
BRANCH   8  11
HETATM   11  N3  UNL     1      37.152  29.607  -5.221  1.00  0.00    -0.004 NA
BRANCH  11  12
HETATM   12  N2  UNL     1      37.550  28.342  -4.885  1.00  0.00    -0.233 N 
ATOM     13  H2  UNL     1      36.887  27.576  -4.766  1.00  0.00     0.205 HD
BRANCH  12  14
HETATM   14  N1  UNL     1      38.894  28.174  -4.717  1.00  0.00    -0.332 N 
ATOM     15  H12 UNL     1      39.527  28.135  -5.516  1.00  0.00     0.178 HD
ATOM     16  H11 UNL     1      39.210  28.092  -3.751  1.00  0.00     0.178 HD
ENDBRANCH  12  14
ENDBRANCH  11  12
ENDBRANCH   8  11
ENDBRANCH   1   7
BRANCH   5  17
HETATM   17  C6  UNL     1      36.537  32.365   0.942  1.00  0.00     0.166 C 
BRANCH  17  18
HETATM   18  C7  UNL     1      37.153  31.269   1.660  1.00  0.00     0.270 C 
HETATM   19  N6  UNL     1      38.179  30.513   1.004  1.00  0.00    -0.057 NA
HETATM   20  O2  UNL     1      36.835  30.948   2.823  1.00  0.00    -0.270 OA
ENDBRANCH  17  18
ENDBRANCH   5  17
TORSDOF 6
ENDMDL
