MODEL 1
REMARK VINA RESULT: -7.105549610      0.000      0.000
REMARK  5 active torsions:
REMARK  status: ('A' for Active; 'I' for Inactive)
REMARK       I    between atoms: C1_4  and  N3_6 
REMARK    1  A    between atoms: N3_6  and  C2_8 
REMARK    2  A    between atoms: C4_12  and  N5_13 
REMARK    3  A    between atoms: N5_13  and  O1_14 
REMARK    4  A    between atoms: N5_13  and  N6_16 
REMARK    5  A    between atoms: N6_16  and  C5_18 
ROOT
HETATM    1  C2  UNL     1      35.228  30.642  -0.675  1.00  0.00     0.687 A 
HETATM    2  N4  UNL     1      34.456  31.721  -0.470  1.00  0.00    -0.199 N 
ATOM      3  H4  UNL     1      34.377  32.078   0.482  1.00  0.00     0.183 HD
HETATM    4  C3  UNL     1      33.776  32.363  -1.445  1.00  0.00     0.145 A 
HETATM    5  C4  UNL     1      33.862  31.907  -2.737  1.00  0.00     0.165 A 
HETATM    6  C6  UNL     1      34.667  30.782  -2.953  1.00  0.00     0.292 A 
HETATM    7  O3  UNL     1      34.751  30.356  -4.146  1.00  0.00    -0.265 OA
HETATM    8  N7  UNL     1      35.318  30.187  -1.943  1.00  0.00    -0.154 N 
ATOM      9  H7  UNL     1      35.895  29.370  -2.138  1.00  0.00     0.187 HD
ENDROOT
BRANCH   1  10
HETATM   10  N3  UNL     1      35.856  30.061   0.295  1.00  0.00    -0.164 N 
HETATM   11  C1  UNL     1      37.018  30.562   0.895  1.00  0.00     0.200 C 
HETATM   12  N1  UNL     1      38.127  30.475   0.261  1.00  0.00    -0.373 N 
HETATM   13  N2  UNL     1      36.991  31.157   2.173  1.00  0.00    -0.063 NA
ATOM     14  H12 UNL     1      38.973  30.840   0.698  1.00  0.00     0.158 HD
ATOM     15  H11 UNL     1      38.147  30.044  -0.664  1.00  0.00     0.158 HD
ATOM     16  H3  UNL     1      35.481  29.180   0.645  1.00  0.00     0.187 HD
ENDBRANCH   1  10
BRANCH   5  17
HETATM   17  N5  UNL     1      33.188  32.529  -3.820  1.00  0.00    -0.154 N 
BRANCH  17  18
HETATM   18  O1  UNL     1      32.374  31.851  -4.476  1.00  0.00    -0.267 OA
ATOM     19  H1  UNL     1      31.765  32.306  -5.047  1.00  0.00     0.247 HD
ENDBRANCH  17  18
BRANCH  17  20
HETATM   20  N6  UNL     1      33.401  33.863  -4.177  1.00  0.00    -0.250 N 
ATOM     21  H6  UNL     1      32.581  34.457  -4.299  1.00  0.00     0.192 HD
BRANCH  20  22
HETATM   22  C5  UNL     1      34.670  34.445  -4.380  1.00  0.00     0.370 C 
HETATM   23  O2  UNL     1      35.237  35.094  -3.481  1.00  0.00    -0.282 OA
ENDBRANCH  20  22
ENDBRANCH  17  20
ENDBRANCH   5  17
TORSDOF 5
ENDMDL
MODEL 2
REMARK VINA RESULT: -7.038766870      0.879      1.618
REMARK  5 active torsions:
REMARK  status: ('A' for Active; 'I' for Inactive)
REMARK       I    between atoms: C1_4  and  N3_6 
REMARK    1  A    between atoms: N3_6  and  C2_8 
REMARK    2  A    between atoms: C4_12  and  N5_13 
REMARK    3  A    between atoms: N5_13  and  O1_14 
REMARK    4  A    between atoms: N5_13  and  N6_16 
REMARK    5  A    between atoms: N6_16  and  C5_18 
ROOT
HETATM    1  C2  UNL     1      35.273  30.603  -0.653  1.00  0.00     0.687 A 
HETATM    2  N4  UNL     1      35.329  30.152  -1.917  1.00  0.00    -0.199 N 
ATOM      3  H4  UNL     1      35.882  29.316  -2.102  1.00  0.00     0.183 HD
HETATM    4  C3  UNL     1      34.697  30.736  -2.959  1.00  0.00     0.145 A 
HETATM    5  C4  UNL     1      33.943  31.862  -2.742  1.00  0.00     0.165 A 
HETATM    6  C6  UNL     1      33.883  32.335  -1.425  1.00  0.00     0.292 A 
HETATM    7  O3  UNL     1      33.187  33.375  -1.218  1.00  0.00    -0.265 OA
HETATM    8  N7  UNL     1      34.533  31.711  -0.432  1.00  0.00    -0.154 N 
ATOM      9  H7  UNL     1      34.466  32.083   0.515  1.00  0.00     0.187 HD
ENDROOT
BRANCH   1  10
HETATM   10  N3  UNL     1      35.899  30.009   0.309  1.00  0.00    -0.164 N 
HETATM   11  C1  UNL     1      37.050  30.508   0.931  1.00  0.00     0.200 C 
HETATM   12  N1  UNL     1      38.165  30.444   0.305  1.00  0.00    -0.373 N 
HETATM   13  N2  UNL     1      37.006  31.076   2.220  1.00  0.00    -0.063 NA
ATOM     14  H12 UNL     1      39.004  30.808   0.758  1.00  0.00     0.158 HD
ATOM     15  H11 UNL     1      38.198  30.033  -0.628  1.00  0.00     0.158 HD
ATOM     16  H3  UNL     1      35.528  29.117   0.638  1.00  0.00     0.187 HD
ENDBRANCH   1  10
BRANCH   5  17
HETATM   17  N5  UNL     1      33.241  32.531  -3.780  1.00  0.00    -0.154 N 
BRANCH  17  18
HETATM   18  O1  UNL     1      32.441  31.872  -4.470  1.00  0.00    -0.267 OA
ATOM     19  H1  UNL     1      32.313  32.125  -5.377  1.00  0.00     0.247 HD
ENDBRANCH  17  18
BRANCH  17  20
HETATM   20  N6  UNL     1      33.414  33.889  -4.055  1.00  0.00    -0.250 N 
ATOM     21  H6  UNL     1      32.586  34.485  -4.038  1.00  0.00     0.192 HD
BRANCH  20  22
HETATM   22  C5  UNL     1      34.652  34.495  -4.354  1.00  0.00     0.370 C 
HETATM   23  O2  UNL     1      35.316  35.080  -3.478  1.00  0.00    -0.282 OA
ENDBRANCH  20  22
ENDBRANCH  17  20
ENDBRANCH   5  17
TORSDOF 5
ENDMDL
MODEL 3
REMARK VINA RESULT: -6.921727233      1.274      1.667
REMARK  5 active torsions:
REMARK  status: ('A' for Active; 'I' for Inactive)
REMARK       I    between atoms: C1_4  and  N3_6 
REMARK    1  A    between atoms: N3_6  and  C2_8 
REMARK    2  A    between atoms: C4_12  and  N5_13 
REMARK    3  A    between atoms: N5_13  and  O1_14 
REMARK    4  A    between atoms: N5_13  and  N6_16 
REMARK    5  A    between atoms: N6_16  and  C5_18 
ROOT
HETATM    1  C2  UNL     1      35.258  30.657  -0.648  1.00  0.00     0.687 A 
HETATM    2  N4  UNL     1      34.453  31.709  -0.431  1.00  0.00    -0.199 N 
ATOM      3  H4  UNL     1      34.346  32.039   0.529  1.00  0.00     0.183 HD
HETATM    4  C3  UNL     1      33.776  32.360  -1.402  1.00  0.00     0.145 A 
HETATM    5  C4  UNL     1      33.900  31.941  -2.704  1.00  0.00     0.165 A 
HETATM    6  C6  UNL     1      34.739  30.844  -2.933  1.00  0.00     0.292 A 
HETATM    7  O3  UNL     1      34.858  30.452  -4.135  1.00  0.00    -0.265 OA
HETATM    8  N7  UNL     1      35.385  30.239  -1.926  1.00  0.00    -0.154 N 
ATOM      9  H7  UNL     1      35.988  29.443  -2.131  1.00  0.00     0.187 HD
ENDROOT
BRANCH   1  10
HETATM   10  N3  UNL     1      35.882  30.067   0.318  1.00  0.00    -0.164 N 
HETATM   11  C1  UNL     1      37.046  30.558   0.923  1.00  0.00     0.200 C 
HETATM   12  N1  UNL     1      38.155  30.470   0.290  1.00  0.00    -0.373 N 
HETATM   13  N2  UNL     1      37.020  31.145   2.205  1.00  0.00    -0.063 NA
ATOM     14  H12 UNL     1      39.002  30.828   0.731  1.00  0.00     0.158 HD
ATOM     15  H11 UNL     1      38.174  30.045  -0.637  1.00  0.00     0.158 HD
ATOM     16  H3  UNL     1      35.502  29.185   0.662  1.00  0.00     0.187 HD
ENDBRANCH   1  10
BRANCH   5  17
HETATM   17  N5  UNL     1      33.231  32.575  -3.784  1.00  0.00    -0.154 N 
BRANCH  17  18
HETATM   18  O1  UNL     1      33.417  33.794  -3.959  1.00  0.00    -0.267 OA
ATOM     19  H1  UNL     1      33.181  34.169  -4.800  1.00  0.00     0.247 HD
ENDBRANCH  17  18
BRANCH  17  20
HETATM   20  N6  UNL     1      32.377  31.888  -4.650  1.00  0.00    -0.250 N 
ATOM     21  H6  UNL     1      31.611  31.356  -4.237  1.00  0.00     0.192 HD
BRANCH  20  22
HETATM   22  C5  UNL     1      32.499  31.879  -6.056  1.00  0.00     0.370 C 
HETATM   23  O2  UNL     1      33.423  32.485  -6.629  1.00  0.00    -0.282 OA
ENDBRANCH  20  22
ENDBRANCH  17  20
ENDBRANCH   5  17
TORSDOF 5
ENDMDL
MODEL 4
REMARK VINA RESULT: -6.876185018      2.959      5.862
REMARK  5 active torsions:
REMARK  status: ('A' for Active; 'I' for Inactive)
REMARK       I    between atoms: C1_4  and  N3_6 
REMARK    1  A    between atoms: N3_6  and  C2_8 
REMARK    2  A    between atoms: C4_12  and  N5_13 
REMARK    3  A    between atoms: N5_13  and  O1_14 
REMARK    4  A    between atoms: N5_13  and  N6_16 
REMARK    5  A    between atoms: N6_16  and  C5_18 
ROOT
HETATM    1  C2  UNL     1      34.110  32.749  -2.144  1.00  0.00     0.687 A 
HETATM    2  N4  UNL     1      35.442  32.641  -2.014  1.00  0.00    -0.199 N 
ATOM      3  H4  UNL     1      36.011  32.700  -2.859  1.00  0.00     0.183 HD
HETATM    4  C3  UNL     1      36.078  32.460  -0.836  1.00  0.00     0.145 A 
HETATM    5  C4  UNL     1      35.341  32.379   0.320  1.00  0.00     0.165 A 
HETATM    6  C6  UNL     1      33.952  32.491   0.188  1.00  0.00     0.292 A 
HETATM    7  O3  UNL     1      33.265  32.416   1.252  1.00  0.00    -0.265 OA
HETATM    8  N7  UNL     1      33.378  32.669  -1.011  1.00  0.00    -0.154 N 
ATOM      9  H7  UNL     1      32.364  32.747  -1.069  1.00  0.00     0.187 HD
ENDROOT
BRANCH   1  10
HETATM   10  N3  UNL     1      33.550  32.918  -3.296  1.00  0.00    -0.164 N 
HETATM   11  C1  UNL     1      34.095  33.684  -4.335  1.00  0.00     0.200 C 
HETATM   12  N1  UNL     1      34.059  34.960  -4.245  1.00  0.00    -0.373 N 
HETATM   13  N2  UNL     1      34.680  33.081  -5.468  1.00  0.00    -0.063 NA
ATOM     14  H12 UNL     1      34.456  35.518  -5.001  1.00  0.00     0.158 HD
ATOM     15  H11 UNL     1      33.636  35.397  -3.425  1.00  0.00     0.158 HD
ATOM     16  H3  UNL     1      32.652  32.464  -3.460  1.00  0.00     0.187 HD
ENDBRANCH   1  10
BRANCH   5  17
HETATM   17  N5  UNL     1      35.931  32.199   1.598  1.00  0.00    -0.154 N 
BRANCH  17  18
HETATM   18  O1  UNL     1      36.019  33.187   2.352  1.00  0.00    -0.267 OA
ATOM     19  H1  UNL     1      35.447  33.228   3.109  1.00  0.00     0.247 HD
ENDBRANCH  17  18
BRANCH  17  20
HETATM   20  N6  UNL     1      36.414  30.965   2.040  1.00  0.00    -0.250 N 
ATOM     21  H6  UNL     1      36.152  30.663   2.978  1.00  0.00     0.192 HD
BRANCH  20  22
HETATM   22  C5  UNL     1      37.239  30.109   1.281  1.00  0.00     0.370 C 
HETATM   23  O2  UNL     1      38.412  30.419   1.002  1.00  0.00    -0.282 OA
ENDBRANCH  20  22
ENDBRANCH  17  20
ENDBRANCH   5  17
TORSDOF 5
ENDMDL
MODEL 5
REMARK VINA RESULT: -6.862392722      1.543      2.348
REMARK  5 active torsions:
REMARK  status: ('A' for Active; 'I' for Inactive)
REMARK       I    between atoms: C1_4  and  N3_6 
REMARK    1  A    between atoms: N3_6  and  C2_8 
REMARK    2  A    between atoms: C4_12  and  N5_13 
REMARK    3  A    between atoms: N5_13  and  O1_14 
REMARK    4  A    between atoms: N5_13  and  N6_16 
REMARK    5  A    between atoms: N6_16  and  C5_18 
ROOT
HETATM    1  C2  UNL     1      35.282  30.608  -0.655  1.00  0.00     0.687 A 
HETATM    2  N4  UNL     1      35.355  30.186  -1.927  1.00  0.00    -0.199 N 
ATOM      3  H4  UNL     1      35.928  29.367  -2.127  1.00  0.00     0.183 HD
HETATM    4  C3  UNL     1      34.717  30.779  -2.961  1.00  0.00     0.145 A 
HETATM    5  C4  UNL     1      33.936  31.883  -2.725  1.00  0.00     0.165 A 
HETATM    6  C6  UNL     1      33.858  32.325  -1.399  1.00  0.00     0.292 A 
HETATM    7  O3  UNL     1      33.137  33.345  -1.174  1.00  0.00    -0.265 OA
HETATM    8  N7  UNL     1      34.515  31.694  -0.415  1.00  0.00    -0.154 N 
ATOM      9  H7  UNL     1      34.435  32.044   0.539  1.00  0.00     0.187 HD
ENDROOT
BRANCH   1  10
HETATM   10  N3  UNL     1      35.914  30.007   0.299  1.00  0.00    -0.164 N 
HETATM   11  C1  UNL     1      37.063  30.508   0.924  1.00  0.00     0.200 C 
HETATM   12  N1  UNL     1      38.177  30.462   0.295  1.00  0.00    -0.373 N 
HETATM   13  N2  UNL     1      37.016  31.060   2.221  1.00  0.00    -0.063 NA
ATOM     14  H12 UNL     1      39.014  30.828   0.750  1.00  0.00     0.158 HD
ATOM     15  H11 UNL     1      38.211  30.063  -0.643  1.00  0.00     0.158 HD
ATOM     16  H3  UNL     1      35.553  29.108   0.617  1.00  0.00     0.187 HD
ENDBRANCH   1  10
BRANCH   5  17
HETATM   17  N5  UNL     1      33.226  32.558  -3.752  1.00  0.00    -0.154 N 
BRANCH  17  18
HETATM   18  O1  UNL     1      33.410  33.782  -3.890  1.00  0.00    -0.267 OA
ATOM     19  H1  UNL     1      34.167  34.070  -4.387  1.00  0.00     0.247 HD
ENDBRANCH  17  18
BRANCH  17  20
HETATM   20  N6  UNL     1      32.334  31.907  -4.607  1.00  0.00    -0.250 N 
ATOM     21  H6  UNL     1      31.480  31.526  -4.200  1.00  0.00     0.192 HD
BRANCH  20  22
HETATM   22  C5  UNL     1      32.531  31.739  -5.994  1.00  0.00     0.370 C 
HETATM   23  O2  UNL     1      33.002  32.652  -6.697  1.00  0.00    -0.282 OA
ENDBRANCH  20  22
ENDBRANCH  17  20
ENDBRANCH   5  17
TORSDOF 5
ENDMDL
