MODEL 1
REMARK VINA RESULT: -7.542039805      0.000      0.000
REMARK  3 active torsions:
REMARK  status: ('A' for Active; 'I' for Inactive)
REMARK       I    between atoms: C1_2  and  N2_4 
REMARK    1  A    between atoms: N2_4  and  N3_6 
REMARK    2  A    between atoms: N3_6  and  C2_8 
REMARK    3  A    between atoms: N4_9  and  N5_11 
REMARK       I    between atoms: N7_18  and  C6_19 
ROOT
HETATM    1  N5  UNL     1      36.127  31.710  -1.862  1.00  0.00    -0.270 N 
ATOM      2  H5  UNL     1      35.292  32.251  -2.084  1.00  0.00     0.190 HD
HETATM    3  C3  UNL     1      36.389  31.477  -0.609  1.00  0.00     0.200 C 
HETATM    4  N6  UNL     1      37.480  30.757  -0.063  1.00  0.00    -0.359 N 
ATOM      5  H6  UNL     1      38.238  30.317  -0.583  1.00  0.00     0.162 HD
HETATM    6  C4  UNL     1      37.313  30.763   1.372  1.00  0.00     0.143 C 
HETATM    7  C5  UNL     1      36.277  31.833   1.648  1.00  0.00     0.156 C 
HETATM    8  N7  UNL     1      35.535  31.963   0.415  1.00  0.00    -0.271 N 
HETATM    9  C6  UNL     1      34.218  32.479   0.288  1.00  0.00     0.337 C 
HETATM   10  N8  UNL     1      33.561  32.570  -0.970  1.00  0.00    -0.039 NA
HETATM   11  O2  UNL     1      33.588  32.873   1.301  1.00  0.00    -0.250 OA
ENDROOT
BRANCH   1  12
HETATM   12  N4  UNL     1      36.909  31.272  -2.906  1.00  0.00    -0.292 N 
HETATM   13  C2  UNL     1      36.514  30.725  -3.981  1.00  0.00     0.214 C 
ATOM     14  H4  UNL     1      37.915  31.400  -2.805  1.00  0.00     0.187 HD
BRANCH  13  15
HETATM   15  N3  UNL     1      37.499  30.344  -4.937  1.00  0.00    -0.291 N 
ATOM     16  H3  UNL     1      37.513  30.814  -5.842  1.00  0.00     0.188 HD
BRANCH  15  17
HETATM   17  N2  UNL     1      38.451  29.349  -4.683  1.00  0.00    -0.253 N 
HETATM   18  C1  UNL     1      38.240  27.998  -5.053  1.00  0.00     0.347 C 
HETATM   19  N1  UNL     1      39.249  27.053  -4.763  1.00  0.00    -0.038 NA
HETATM   20  O1  UNL     1      37.178  27.651  -5.627  1.00  0.00    -0.249 OA
ATOM     21  H2  UNL     1      39.322  29.605  -4.218  1.00  0.00     0.191 HD
ENDBRANCH  15  17
ENDBRANCH  13  15
ENDBRANCH   1  12
TORSDOF 3
ENDMDL
MODEL 2
REMARK VINA RESULT: -6.889114216      3.023      4.308
REMARK  3 active torsions:
REMARK  status: ('A' for Active; 'I' for Inactive)
REMARK       I    between atoms: C1_2  and  N2_4 
REMARK    1  A    between atoms: N2_4  and  N3_6 
REMARK    2  A    between atoms: N3_6  and  C2_8 
REMARK    3  A    between atoms: N4_9  and  N5_11 
REMARK       I    between atoms: N7_18  and  C6_19 
ROOT
HETATM    1  N5  UNL     1      35.643  30.485  -0.880  1.00  0.00    -0.270 N 
ATOM      2  H5  UNL     1      36.358  29.871  -0.491  1.00  0.00     0.190 HD
HETATM    3  C3  UNL     1      35.320  31.550  -0.206  1.00  0.00     0.200 C 
HETATM    4  N6  UNL     1      34.365  32.541  -0.542  1.00  0.00    -0.359 N 
ATOM      5  H6  UNL     1      33.774  32.558  -1.372  1.00  0.00     0.162 HD
HETATM    6  C4  UNL     1      34.389  33.525   0.516  1.00  0.00     0.143 C 
HETATM    7  C5  UNL     1      35.136  32.866   1.657  1.00  0.00     0.156 C 
HETATM    8  N7  UNL     1      35.946  31.844   1.034  1.00  0.00    -0.271 N 
HETATM    9  C6  UNL     1      37.125  31.271   1.579  1.00  0.00     0.337 C 
HETATM   10  N8  UNL     1      37.863  30.267   0.893  1.00  0.00    -0.039 NA
HETATM   11  O2  UNL     1      37.555  31.643   2.699  1.00  0.00    -0.250 OA
ENDROOT
BRANCH   1  12
HETATM   12  N4  UNL     1      35.078  30.136  -2.085  1.00  0.00    -0.292 N 
HETATM   13  C2  UNL     1      35.455  30.501  -3.240  1.00  0.00     0.214 C 
ATOM     14  H4  UNL     1      34.269  29.517  -2.045  1.00  0.00     0.187 HD
BRANCH  13  15
HETATM   15  N3  UNL     1      34.722  30.020  -4.364  1.00  0.00    -0.291 N 
ATOM     16  H3  UNL     1      34.809  29.037  -4.622  1.00  0.00     0.188 HD
BRANCH  15  17
HETATM   17  N2  UNL     1      33.888  30.844  -5.128  1.00  0.00    -0.253 N 
HETATM   18  C1  UNL     1      33.058  31.828  -4.535  1.00  0.00     0.347 C 
HETATM   19  N1  UNL     1      32.245  32.621  -5.375  1.00  0.00    -0.038 NA
HETATM   20  O1  UNL     1      33.050  31.990  -3.290  1.00  0.00    -0.249 OA
ATOM     21  H2  UNL     1      33.877  30.733  -6.142  1.00  0.00     0.191 HD
ENDBRANCH  15  17
ENDBRANCH  13  15
ENDBRANCH   1  12
TORSDOF 3
ENDMDL
MODEL 3
REMARK VINA RESULT: -6.882816966      1.042      1.086
REMARK  3 active torsions:
REMARK  status: ('A' for Active; 'I' for Inactive)
REMARK       I    between atoms: C1_2  and  N2_4 
REMARK    1  A    between atoms: N2_4  and  N3_6 
REMARK    2  A    between atoms: N3_6  and  C2_8 
REMARK    3  A    between atoms: N4_9  and  N5_11 
REMARK       I    between atoms: N7_18  and  C6_19 
ROOT
HETATM    1  N5  UNL     1      36.062  31.562  -1.682  1.00  0.00    -0.270 N 
ATOM      2  H5  UNL     1      35.261  32.117  -1.980  1.00  0.00     0.190 HD
HETATM    3  C3  UNL     1      36.294  31.460  -0.406  1.00  0.00     0.200 C 
HETATM    4  N6  UNL     1      37.336  30.749   0.240  1.00  0.00    -0.359 N 
ATOM      5  H6  UNL     1      38.076  30.213  -0.212  1.00  0.00     0.162 HD
HETATM    6  C4  UNL     1      37.151  30.928   1.662  1.00  0.00     0.143 C 
HETATM    7  C5  UNL     1      36.172  32.077   1.795  1.00  0.00     0.156 C 
HETATM    8  N7  UNL     1      35.454  32.105   0.540  1.00  0.00    -0.271 N 
HETATM    9  C6  UNL     1      34.170  32.672   0.330  1.00  0.00     0.337 C 
HETATM   10  N8  UNL     1      33.536  32.654  -0.943  1.00  0.00    -0.039 NA
HETATM   11  O2  UNL     1      33.550  33.212   1.279  1.00  0.00    -0.250 OA
ENDROOT
BRANCH   1  12
HETATM   12  N4  UNL     1      36.832  30.966  -2.653  1.00  0.00    -0.292 N 
HETATM   13  C2  UNL     1      36.572  30.883  -3.893  1.00  0.00     0.214 C 
ATOM     14  H4  UNL     1      37.708  30.545  -2.344  1.00  0.00     0.187 HD
BRANCH  13  15
HETATM   15  N3  UNL     1      37.513  30.217  -4.730  1.00  0.00    -0.291 N 
ATOM     16  H3  UNL     1      38.501  30.244  -4.475  1.00  0.00     0.188 HD
BRANCH  15  17
HETATM   17  N2  UNL     1      37.137  29.528  -5.887  1.00  0.00    -0.253 N 
HETATM   18  C1  UNL     1      37.153  28.113  -5.956  1.00  0.00     0.347 C 
HETATM   19  N1  UNL     1      36.758  27.490  -7.161  1.00  0.00    -0.038 NA
HETATM   20  O1  UNL     1      37.511  27.429  -4.965  1.00  0.00    -0.249 OA
ATOM     21  H2  UNL     1      36.841  30.059  -6.706  1.00  0.00     0.191 HD
ENDBRANCH  15  17
ENDBRANCH  13  15
ENDBRANCH   1  12
TORSDOF 3
ENDMDL
MODEL 4
REMARK VINA RESULT: -6.880946712      1.390      1.419
REMARK  3 active torsions:
REMARK  status: ('A' for Active; 'I' for Inactive)
REMARK       I    between atoms: C1_2  and  N2_4 
REMARK    1  A    between atoms: N2_4  and  N3_6 
REMARK    2  A    between atoms: N3_6  and  C2_8 
REMARK    3  A    between atoms: N4_9  and  N5_11 
REMARK       I    between atoms: N7_18  and  C6_19 
ROOT
HETATM    1  N5  UNL     1      35.017  31.152  -1.409  1.00  0.00    -0.270 N 
ATOM      2  H5  UNL     1      34.269  31.821  -1.587  1.00  0.00     0.190 HD
HETATM    3  C3  UNL     1      35.643  31.223  -0.271  1.00  0.00     0.200 C 
HETATM    4  N6  UNL     1      36.705  30.409   0.196  1.00  0.00    -0.359 N 
ATOM      5  H6  UNL     1      37.148  29.641  -0.309  1.00  0.00     0.162 HD
HETATM    6  C4  UNL     1      37.042  30.874   1.521  1.00  0.00     0.143 C 
HETATM    7  C5  UNL     1      36.374  32.227   1.651  1.00  0.00     0.156 C 
HETATM    8  N7  UNL     1      35.292  32.205   0.691  1.00  0.00    -0.271 N 
HETATM    9  C6  UNL     1      34.128  33.017   0.734  1.00  0.00     0.337 C 
HETATM   10  N8  UNL     1      33.110  32.926  -0.255  1.00  0.00    -0.039 NA
HETATM   11  O2  UNL     1      33.964  33.847   1.661  1.00  0.00    -0.250 OA
ENDROOT
BRANCH   1  12
HETATM   12  N4  UNL     1      35.303  30.228  -2.388  1.00  0.00    -0.292 N 
HETATM   13  C2  UNL     1      35.721  30.463  -3.563  1.00  0.00     0.214 C 
ATOM     14  H4  UNL     1      35.165  29.248  -2.143  1.00  0.00     0.187 HD
BRANCH  13  15
HETATM   15  N3  UNL     1      35.954  29.351  -4.423  1.00  0.00    -0.291 N 
ATOM     16  H3  UNL     1      35.155  28.895  -4.862  1.00  0.00     0.188 HD
BRANCH  15  17
HETATM   17  N2  UNL     1      37.237  28.861  -4.690  1.00  0.00    -0.253 N 
HETATM   18  C1  UNL     1      38.080  29.454  -5.662  1.00  0.00     0.347 C 
HETATM   19  N1  UNL     1      39.363  28.900  -5.872  1.00  0.00    -0.038 NA
HETATM   20  O1  UNL     1      37.693  30.450  -6.320  1.00  0.00    -0.249 OA
ATOM     21  H2  UNL     1      37.577  28.053  -4.168  1.00  0.00     0.191 HD
ENDBRANCH  15  17
ENDBRANCH  13  15
ENDBRANCH   1  12
TORSDOF 3
ENDMDL
MODEL 5
REMARK VINA RESULT: -6.794474100      2.362      6.381
REMARK  3 active torsions:
REMARK  status: ('A' for Active; 'I' for Inactive)
REMARK       I    between atoms: C1_2  and  N2_4 
REMARK    1  A    between atoms: N2_4  and  N3_6 
REMARK    2  A    between atoms: N3_6  and  C2_8 
REMARK    3  A    between atoms: N4_9  and  N5_11 
REMARK       I    between atoms: N7_18  and  C6_19 
ROOT
HETATM    1  N5  UNL     1      35.191  30.011  -3.918  1.00  0.00    -0.270 N 
ATOM      2  H5  UNL     1      34.267  30.049  -4.349  1.00  0.00     0.190 HD
HETATM    3  C3  UNL     1      36.222  29.863  -4.698  1.00  0.00     0.200 C 
HETATM    4  N6  UNL     1      37.589  29.784  -4.334  1.00  0.00    -0.359 N 
ATOM      5  H6  UNL     1      37.969  29.822  -3.388  1.00  0.00     0.162 HD
HETATM    6  C4  UNL     1      38.344  29.638  -5.557  1.00  0.00     0.143 C 
HETATM    7  C5  UNL     1      37.323  29.267  -6.613  1.00  0.00     0.156 C 
HETATM    8  N7  UNL     1      36.062  29.757  -6.104  1.00  0.00    -0.271 N 
HETATM    9  C6  UNL     1      34.914  30.060  -6.882  1.00  0.00     0.337 C 
HETATM   10  N8  UNL     1      33.710  30.539  -6.295  1.00  0.00    -0.039 NA
HETATM   11  O2  UNL     1      34.932  29.911  -8.129  1.00  0.00    -0.250 OA
ENDROOT
BRANCH   1  12
HETATM   12  N4  UNL     1      35.270  30.120  -2.549  1.00  0.00    -0.292 N 
HETATM   13  C2  UNL     1      34.644  30.938  -1.809  1.00  0.00     0.214 C 
ATOM     14  H4  UNL     1      35.901  29.472  -2.078  1.00  0.00     0.187 HD
BRANCH  13  15
HETATM   15  N3  UNL     1      34.876  30.880  -0.404  1.00  0.00    -0.291 N 
ATOM     16  H3  UNL     1      34.177  31.273   0.225  1.00  0.00     0.188 HD
BRANCH  15  17
HETATM   17  N2  UNL     1      36.027  30.304   0.146  1.00  0.00    -0.253 N 
HETATM   18  C1  UNL     1      36.855  31.005   1.057  1.00  0.00     0.347 C 
HETATM   19  N1  UNL     1      37.999  30.354   1.570  1.00  0.00    -0.038 NA
HETATM   20  O1  UNL     1      36.574  32.180   1.401  1.00  0.00    -0.249 OA
ATOM     21  H2  UNL     1      36.276  29.350  -0.116  1.00  0.00     0.191 HD
ENDBRANCH  15  17
ENDBRANCH  13  15
ENDBRANCH   1  12
TORSDOF 3
ENDMDL
