MODEL 1
REMARK VINA RESULT: -6.260849836      0.000      0.000
REMARK  5 active torsions:
REMARK  status: ('A' for Active; 'I' for Inactive)
REMARK    1  A    between atoms: N1_1  and  N2_4 
REMARK       I    between atoms: N2_4  and  C1_6 
REMARK       I    between atoms: C1_6  and  N3_8 
REMARK    2  A    between atoms: N3_8  and  C2_10 
REMARK    3  A    between atoms: C2_10  and  C3_11 
REMARK    4  A    between atoms: C2_10  and  C7_19 
REMARK    5  A    between atoms: C3_11  and  C4_12 
ROOT
HETATM    1  C2  UNL     1      34.771  32.347  -2.235  1.00  0.00     0.181 C 
ENDROOT
BRANCH   1   2
HETATM    2  N3  UNL     1      34.780  31.093  -2.969  1.00  0.00    -0.329 N 
HETATM    3  C1  UNL     1      35.974  30.640  -3.566  1.00  0.00     0.335 C 
HETATM    4  N2  UNL     1      36.019  29.421  -4.288  1.00  0.00    -0.258 N 
HETATM    5  O1  UNL     1      37.057  31.313  -3.476  1.00  0.00    -0.246 OA
ATOM      6  H2  UNL     1      35.164  28.872  -4.370  1.00  0.00     0.191 HD
ATOM      7  H3  UNL     1      33.925  30.542  -3.051  1.00  0.00     0.165 HD
BRANCH   4   8
HETATM    8  N1  UNL     1      37.182  28.938  -4.893  1.00  0.00    -0.341 N 
ATOM      9  H12 UNL     1      38.025  29.506  -4.811  1.00  0.00     0.177 HD
ATOM     10  H11 UNL     1      37.218  28.055  -5.402  1.00  0.00     0.177 HD
ENDBRANCH   4   8
ENDBRANCH   1   2
BRANCH   1  11
HETATM   11  C3  UNL     1      34.217  32.020  -0.873  1.00  0.00     0.093 C 
BRANCH  11  12
HETATM   12  C4  UNL     1      35.175  31.936   0.217  1.00  0.00     0.028 A 
HETATM   13  C5  UNL     1      35.462  32.998   1.080  1.00  0.00     0.114 A 
HETATM   14  N4  UNL     1      36.395  32.630   1.971  1.00  0.00    -0.360 N 
HETATM   15  C6  UNL     1      36.709  31.353   1.692  1.00  0.00     0.180 A 
ATOM     16  H4  UNL     1      36.789  33.207   2.713  1.00  0.00     0.166 HD
HETATM   17  N5  UNL     1      35.979  30.939   0.643  1.00  0.00    -0.354 N 
ATOM     18  H5  UNL     1      36.026  30.008   0.229  1.00  0.00     0.166 HD
ENDBRANCH  11  12
ENDBRANCH   1  11
BRANCH   1  19
HETATM   19  C7  UNL     1      34.009  33.334  -3.003  1.00  0.00     0.254 C 
HETATM   20  N6  UNL     1      34.192  34.712  -2.779  1.00  0.00    -0.060 NA
HETATM   21  O2  UNL     1      33.187  32.972  -3.868  1.00  0.00    -0.275 OA
ENDBRANCH   1  19
TORSDOF 5
ENDMDL
MODEL 2
REMARK VINA RESULT: -6.189582708      2.811      3.490
REMARK  5 active torsions:
REMARK  status: ('A' for Active; 'I' for Inactive)
REMARK    1  A    between atoms: N1_1  and  N2_4 
REMARK       I    between atoms: N2_4  and  C1_6 
REMARK       I    between atoms: C1_6  and  N3_8 
REMARK    2  A    between atoms: N3_8  and  C2_10 
REMARK    3  A    between atoms: C2_10  and  C3_11 
REMARK    4  A    between atoms: C2_10  and  C7_19 
REMARK    5  A    between atoms: C3_11  and  C4_12 
ROOT
HETATM    1  C2  UNL     1      34.699  33.528  -0.858  1.00  0.00     0.181 C 
ENDROOT
BRANCH   1   2
HETATM    2  N3  UNL     1      33.963  33.102  -2.036  1.00  0.00    -0.329 N 
HETATM    3  C1  UNL     1      33.958  33.914  -3.189  1.00  0.00     0.335 C 
HETATM    4  N2  UNL     1      33.251  33.529  -4.356  1.00  0.00    -0.258 N 
HETATM    5  O1  UNL     1      34.592  35.023  -3.222  1.00  0.00    -0.246 OA
ATOM      6  H2  UNL     1      32.740  32.647  -4.347  1.00  0.00     0.191 HD
ATOM      7  H3  UNL     1      33.451  32.220  -2.028  1.00  0.00     0.165 HD
BRANCH   4   8
HETATM    8  N1  UNL     1      33.223  34.303  -5.518  1.00  0.00    -0.341 N 
ATOM      9  H12 UNL     1      32.969  35.286  -5.422  1.00  0.00     0.177 HD
ATOM     10  H11 UNL     1      33.444  33.929  -6.440  1.00  0.00     0.177 HD
ENDBRANCH   4   8
ENDBRANCH   1   2
BRANCH   1  11
HETATM   11  C3  UNL     1      35.998  32.765  -0.891  1.00  0.00     0.093 C 
BRANCH  11  12
HETATM   12  C4  UNL     1      36.369  32.059   0.324  1.00  0.00     0.028 A 
HETATM   13  C5  UNL     1      36.489  30.669   0.407  1.00  0.00     0.114 A 
HETATM   14  N4  UNL     1      36.826  30.307   1.654  1.00  0.00    -0.360 N 
HETATM   15  C6  UNL     1      36.922  31.441   2.369  1.00  0.00     0.180 A 
ATOM     16  H4  UNL     1      36.978  29.358   1.993  1.00  0.00     0.166 HD
HETATM   17  N5  UNL     1      36.649  32.488   1.573  1.00  0.00    -0.354 N 
ATOM     18  H5  UNL     1      36.652  33.464   1.870  1.00  0.00     0.166 HD
ENDBRANCH  11  12
ENDBRANCH   1  11
BRANCH   1  19
HETATM   19  C7  UNL     1      33.866  33.300   0.324  1.00  0.00     0.254 C 
HETATM   20  N6  UNL     1      33.942  34.167   1.431  1.00  0.00    -0.060 NA
HETATM   21  O2  UNL     1      33.075  32.337   0.371  1.00  0.00    -0.275 OA
ENDBRANCH   1  19
TORSDOF 5
ENDMDL
MODEL 3
REMARK VINA RESULT: -6.189073218      1.944      5.165
REMARK  5 active torsions:
REMARK  status: ('A' for Active; 'I' for Inactive)
REMARK    1  A    between atoms: N1_1  and  N2_4 
REMARK       I    between atoms: N2_4  and  C1_6 
REMARK       I    between atoms: C1_6  and  N3_8 
REMARK    2  A    between atoms: N3_8  and  C2_10 
REMARK    3  A    between atoms: C2_10  and  C3_11 
REMARK    4  A    between atoms: C2_10  and  C7_19 
REMARK    5  A    between atoms: C3_11  and  C4_12 
ROOT
HETATM    1  C2  UNL     1      35.471  31.250  -2.399  1.00  0.00     0.181 C 
ENDROOT
BRANCH   1   2
HETATM    2  N3  UNL     1      35.688  30.409  -1.234  1.00  0.00    -0.329 N 
HETATM    3  C1  UNL     1      36.134  30.987  -0.028  1.00  0.00     0.335 C 
HETATM    4  N2  UNL     1      36.355  30.197   1.129  1.00  0.00    -0.258 N 
HETATM    5  O1  UNL     1      36.353  32.243   0.065  1.00  0.00    -0.246 OA
ATOM      6  H2  UNL     1      36.185  29.194   1.072  1.00  0.00     0.191 HD
ATOM      7  H3  UNL     1      35.518  29.405  -1.289  1.00  0.00     0.165 HD
BRANCH   4   8
HETATM    8  N1  UNL     1      36.795  30.732   2.342  1.00  0.00    -0.341 N 
ATOM      9  H12 UNL     1      36.126  31.279   2.884  1.00  0.00     0.177 HD
ATOM     10  H11 UNL     1      37.740  30.597   2.698  1.00  0.00     0.177 HD
ENDBRANCH   4   8
ENDBRANCH   1   2
BRANCH   1  11
HETATM   11  C3  UNL     1      34.003  31.588  -2.391  1.00  0.00     0.093 C 
BRANCH  11  12
HETATM   12  C4  UNL     1      33.475  32.229  -3.584  1.00  0.00     0.028 A 
HETATM   13  C5  UNL     1      33.714  33.566  -3.916  1.00  0.00     0.114 A 
HETATM   14  N4  UNL     1      33.085  33.878  -5.059  1.00  0.00    -0.360 N 
HETATM   15  C6  UNL     1      32.450  32.764  -5.463  1.00  0.00     0.180 A 
ATOM     16  H4  UNL     1      33.089  34.782  -5.529  1.00  0.00     0.166 HD
HETATM   17  N5  UNL     1      32.683  31.779  -4.580  1.00  0.00    -0.354 N 
ATOM     18  H5  UNL     1      32.315  30.830  -4.652  1.00  0.00     0.166 HD
ENDBRANCH  11  12
ENDBRANCH   1  11
BRANCH   1  19
HETATM   19  C7  UNL     1      35.945  30.537  -3.587  1.00  0.00     0.254 C 
HETATM   20  N6  UNL     1      35.239  29.425  -4.083  1.00  0.00    -0.060 NA
HETATM   21  O2  UNL     1      36.980  30.903  -4.179  1.00  0.00    -0.275 OA
ENDBRANCH   1  19
TORSDOF 5
ENDMDL
MODEL 4
REMARK VINA RESULT: -6.176021293      2.212      3.711
REMARK  5 active torsions:
REMARK  status: ('A' for Active; 'I' for Inactive)
REMARK    1  A    between atoms: N1_1  and  N2_4 
REMARK       I    between atoms: N2_4  and  C1_6 
REMARK       I    between atoms: C1_6  and  N3_8 
REMARK    2  A    between atoms: N3_8  and  C2_10 
REMARK    3  A    between atoms: C2_10  and  C3_11 
REMARK    4  A    between atoms: C2_10  and  C7_19 
REMARK    5  A    between atoms: C3_11  and  C4_12 
ROOT
HETATM    1  C2  UNL     1      35.119  31.115  -2.478  1.00  0.00     0.181 C 
ENDROOT
BRANCH   1   2
HETATM    2  N3  UNL     1      35.345  30.196  -1.375  1.00  0.00    -0.329 N 
HETATM    3  C1  UNL     1      36.094  30.616  -0.257  1.00  0.00     0.335 C 
HETATM    4  N2  UNL     1      36.333  29.747   0.838  1.00  0.00    -0.258 N 
HETATM    5  O1  UNL     1      36.582  31.795  -0.191  1.00  0.00    -0.246 OA
ATOM      6  H2  UNL     1      35.951  28.802   0.801  1.00  0.00     0.191 HD
ATOM      7  H3  UNL     1      34.963  29.250  -1.410  1.00  0.00     0.165 HD
BRANCH   4   8
HETATM    8  N1  UNL     1      37.068  30.125   1.963  1.00  0.00    -0.341 N 
ATOM      9  H12 UNL     1      37.493  29.383   2.518  1.00  0.00     0.177 HD
ATOM     10  H11 UNL     1      37.193  31.097   2.244  1.00  0.00     0.177 HD
ENDBRANCH   4   8
ENDBRANCH   1   2
BRANCH   1  11
HETATM   11  C3  UNL     1      33.776  31.745  -2.216  1.00  0.00     0.093 C 
BRANCH  11  12
HETATM   12  C4  UNL     1      33.699  32.674  -1.101  1.00  0.00     0.028 A 
HETATM   13  C5  UNL     1      33.990  34.037  -1.206  1.00  0.00     0.114 A 
HETATM   14  N4  UNL     1      33.849  34.633  -0.013  1.00  0.00    -0.360 N 
HETATM   15  C6  UNL     1      33.472  33.675   0.852  1.00  0.00     0.180 A 
ATOM     16  H4  UNL     1      33.998  35.620   0.197  1.00  0.00     0.166 HD
HETATM   17  N5  UNL     1      33.383  32.504   0.201  1.00  0.00    -0.354 N 
ATOM     18  H5  UNL     1      33.116  31.617   0.627  1.00  0.00     0.166 HD
ENDBRANCH  11  12
ENDBRANCH   1  11
BRANCH   1  19
HETATM   19  C7  UNL     1      35.231  30.374  -3.736  1.00  0.00     0.254 C 
HETATM   20  N6  UNL     1      35.763  30.990  -4.884  1.00  0.00    -0.060 NA
HETATM   21  O2  UNL     1      34.858  29.186  -3.811  1.00  0.00    -0.275 OA
ENDBRANCH   1  19
TORSDOF 5
ENDMDL
MODEL 5
REMARK VINA RESULT: -5.983533344      1.895      4.671
REMARK  5 active torsions:
REMARK  status: ('A' for Active; 'I' for Inactive)
REMARK    1  A    between atoms: N1_1  and  N2_4 
REMARK       I    between atoms: N2_4  and  C1_6 
REMARK       I    between atoms: C1_6  and  N3_8 
REMARK    2  A    between atoms: N3_8  and  C2_10 
REMARK    3  A    between atoms: C2_10  and  C3_11 
REMARK    4  A    between atoms: C2_10  and  C7_19 
REMARK    5  A    between atoms: C3_11  and  C4_12 
ROOT
HETATM    1  C2  UNL     1      34.995  32.309  -0.814  1.00  0.00     0.181 C 
ENDROOT
BRANCH   1   2
HETATM    2  N3  UNL     1      34.136  33.103  -1.676  1.00  0.00    -0.329 N 
HETATM    3  C1  UNL     1      34.709  33.944  -2.652  1.00  0.00     0.335 C 
HETATM    4  N2  UNL     1      33.902  34.732  -3.511  1.00  0.00    -0.258 N 
HETATM    5  O1  UNL     1      35.977  34.025  -2.795  1.00  0.00    -0.246 OA
ATOM      6  H2  UNL     1      32.889  34.679  -3.409  1.00  0.00     0.191 HD
ATOM      7  H3  UNL     1      33.122  33.051  -1.576  1.00  0.00     0.165 HD
BRANCH   4   8
HETATM    8  N1  UNL     1      34.431  35.576  -4.490  1.00  0.00    -0.341 N 
ATOM      9  H12 UNL     1      33.950  36.459  -4.658  1.00  0.00     0.177 HD
ATOM     10  H11 UNL     1      35.264  35.346  -5.030  1.00  0.00     0.177 HD
ENDBRANCH   4   8
ENDBRANCH   1   2
BRANCH   1  11
HETATM   11  C3  UNL     1      34.897  30.897  -1.328  1.00  0.00     0.093 C 
BRANCH  11  12
HETATM   12  C4  UNL     1      35.491  30.634  -2.629  1.00  0.00     0.028 A 
HETATM   13  C5  UNL     1      34.882  29.855  -3.616  1.00  0.00     0.114 A 
HETATM   14  N4  UNL     1      35.673  29.777  -4.697  1.00  0.00    -0.360 N 
HETATM   15  C6  UNL     1      36.776  30.492  -4.417  1.00  0.00     0.180 A 
ATOM     16  H4  UNL     1      35.476  29.273  -5.561  1.00  0.00     0.166 HD
HETATM   17  N5  UNL     1      36.667  31.003  -3.180  1.00  0.00    -0.354 N 
ATOM     18  H5  UNL     1      37.369  31.586  -2.724  1.00  0.00     0.166 HD
ENDBRANCH  11  12
ENDBRANCH   1  11
BRANCH   1  19
HETATM   19  C7  UNL     1      34.573  32.503   0.575  1.00  0.00     0.254 C 
HETATM   20  N6  UNL     1      35.519  32.790   1.577  1.00  0.00    -0.060 NA
HETATM   21  O2  UNL     1      33.370  32.419   0.893  1.00  0.00    -0.275 OA
ENDBRANCH   1  19
TORSDOF 5
ENDMDL
