MODEL 1
REMARK VINA RESULT: -4.532745717      0.000      0.000
REMARK  1 active torsions:
REMARK  status: ('A' for Active; 'I' for Inactive)
REMARK    1  A    between atoms: N2_3  and  N3_5 
ROOT
HETATM    1  N3  UNL     1      37.760  26.301  31.983  1.00  0.00    -0.287 N 
ATOM      2  H3  UNL     1      38.414  25.726  31.452  1.00  0.00     0.188 HD
HETATM    3  C2  UNL     1      38.047  26.682  33.170  1.00  0.00     0.110 A 
HETATM    4  C3  UNL     1      37.707  27.409  34.405  1.00  0.00     0.198 A 
HETATM    5  N4  UNL     1      38.997  26.702  34.313  1.00  0.00    -0.370 N 
ATOM      6  H4  UNL     1      39.887  26.428  34.728  1.00  0.00     0.161 HD
ENDROOT
BRANCH   1   7
HETATM    7  N2  UNL     1      36.539  26.683  31.425  1.00  0.00    -0.297 N 
HETATM    8  C1  UNL     1      35.813  25.758  30.892  1.00  0.00     0.206 C 
HETATM    9  N1  UNL     1      34.578  26.169  30.331  1.00  0.00    -0.095 NA
ATOM     10  H2  UNL     1      36.233  27.655  31.437  1.00  0.00     0.187 HD
ENDBRANCH   1   7
TORSDOF 1
ENDMDL
MODEL 2
REMARK VINA RESULT: -4.456128068      1.438      4.093
REMARK  1 active torsions:
REMARK  status: ('A' for Active; 'I' for Inactive)
REMARK    1  A    between atoms: N2_3  and  N3_5 
ROOT
HETATM    1  N3  UNL     1      37.734  25.976  33.043  1.00  0.00    -0.287 N 
ATOM      2  H3  UNL     1      38.115  25.082  33.350  1.00  0.00     0.188 HD
HETATM    3  C2  UNL     1      36.986  26.041  32.007  1.00  0.00     0.110 A 
HETATM    4  C3  UNL     1      36.170  26.815  31.056  1.00  0.00     0.198 A 
HETATM    5  N4  UNL     1      36.306  25.358  30.875  1.00  0.00    -0.370 N 
ATOM      6  H4  UNL     1      36.092  24.507  30.356  1.00  0.00     0.161 HD
ENDROOT
BRANCH   1   7
HETATM    7  N2  UNL     1      38.021  27.147  33.746  1.00  0.00    -0.297 N 
HETATM    8  C1  UNL     1      37.939  27.103  35.034  1.00  0.00     0.206 C 
HETATM    9  N1  UNL     1      38.235  28.304  35.727  1.00  0.00    -0.095 NA
ATOM     10  H2  UNL     1      38.285  28.004  33.261  1.00  0.00     0.187 HD
ENDBRANCH   1   7
TORSDOF 1
ENDMDL
MODEL 3
REMARK VINA RESULT: -4.032162375      1.278      1.353
REMARK  1 active torsions:
REMARK  status: ('A' for Active; 'I' for Inactive)
REMARK    1  A    between atoms: N2_3  and  N3_5 
ROOT
HETATM    1  N3  UNL     1      37.199  27.681  32.842  1.00  0.00    -0.287 N 
ATOM      2  H3  UNL     1      37.093  28.651  32.545  1.00  0.00     0.188 HD
HETATM    3  C2  UNL     1      37.544  27.405  34.043  1.00  0.00     0.110 A 
HETATM    4  C3  UNL     1      37.863  26.427  35.097  1.00  0.00     0.198 A 
HETATM    5  N4  UNL     1      37.916  27.867  35.406  1.00  0.00    -0.370 N 
ATOM      6  H4  UNL     1      38.084  28.625  36.068  1.00  0.00     0.161 HD
ENDROOT
BRANCH   1   7
HETATM    7  N2  UNL     1      36.972  26.637  31.945  1.00  0.00    -0.297 N 
HETATM    8  C1  UNL     1      35.958  26.743  31.152  1.00  0.00     0.206 C 
HETATM    9  N1  UNL     1      35.747  25.671  30.250  1.00  0.00    -0.095 NA
ATOM     10  H2  UNL     1      37.583  25.821  31.916  1.00  0.00     0.187 HD
ENDBRANCH   1   7
TORSDOF 1
ENDMDL
MODEL 4
REMARK VINA RESULT: -3.928960113      1.378      4.062
REMARK  1 active torsions:
REMARK  status: ('A' for Active; 'I' for Inactive)
REMARK    1  A    between atoms: N2_3  and  N3_5 
ROOT
HETATM    1  N3  UNL     1      36.731  27.459  32.155  1.00  0.00    -0.287 N 
ATOM      2  H3  UNL     1      36.237  28.307  31.877  1.00  0.00     0.188 HD
HETATM    3  C2  UNL     1      36.478  26.345  31.580  1.00  0.00     0.110 A 
HETATM    4  C3  UNL     1      36.710  24.899  31.419  1.00  0.00     0.198 A 
HETATM    5  N4  UNL     1      35.712  25.572  30.567  1.00  0.00    -0.370 N 
ATOM      6  H4  UNL     1      35.012  25.535  29.826  1.00  0.00     0.161 HD
ENDROOT
BRANCH   1   7
HETATM    7  N2  UNL     1      37.691  27.498  33.166  1.00  0.00    -0.297 N 
HETATM    8  C1  UNL     1      37.305  27.872  34.340  1.00  0.00     0.206 C 
HETATM    9  N1  UNL     1      38.298  27.904  35.351  1.00  0.00    -0.095 NA
ATOM     10  H2  UNL     1      38.661  27.241  32.985  1.00  0.00     0.187 HD
ENDBRANCH   1   7
TORSDOF 1
ENDMDL
MODEL 5
REMARK VINA RESULT: -3.899884220      1.126      3.975
REMARK  1 active torsions:
REMARK  status: ('A' for Active; 'I' for Inactive)
REMARK    1  A    between atoms: N2_3  and  N3_5 
ROOT
HETATM    1  N3  UNL     1      37.424  25.352  32.117  1.00  0.00    -0.287 N 
ATOM      2  H3  UNL     1      37.711  24.381  32.243  1.00  0.00     0.188 HD
HETATM    3  C2  UNL     1      36.432  25.642  31.364  1.00  0.00     0.110 A 
HETATM    4  C3  UNL     1      35.527  26.631  30.753  1.00  0.00     0.198 A 
HETATM    5  N4  UNL     1      35.340  25.199  30.458  1.00  0.00    -0.370 N 
ATOM      6  H4  UNL     1      34.834  24.452  29.982  1.00  0.00     0.161 HD
ENDROOT
BRANCH   1   7
HETATM    7  N2  UNL     1      38.109  26.381  32.764  1.00  0.00    -0.297 N 
HETATM    8  C1  UNL     1      37.702  26.721  33.941  1.00  0.00     0.206 C 
HETATM    9  N1  UNL     1      38.412  27.768  34.578  1.00  0.00    -0.095 NA
ATOM     10  H2  UNL     1      38.902  26.848  32.323  1.00  0.00     0.187 HD
ENDBRANCH   1   7
TORSDOF 1
ENDMDL
