MODEL 1
REMARK VINA RESULT: -4.139826471      0.000      0.000
REMARK  2 active torsions:
REMARK  status: ('A' for Active; 'I' for Inactive)
REMARK    1  A    between atoms: N2_4  and  N3_6 
REMARK    2  A    between atoms: N3_6  and  C1_8 
ROOT
HETATM    1  N3  UNL     1      31.745  33.602  27.804  1.00  0.00    -0.290 N 
ATOM      2  H3  UNL     1      32.348  34.420  27.709  1.00  0.00     0.184 HD
ENDROOT
BRANCH   1   3
HETATM    3  N2  UNL     1      30.557  33.495  27.091  1.00  0.00    -0.252 N 
HETATM    4  N1  UNL     1      30.032  34.535  26.614  1.00  0.00    -0.331 N 
ATOM      5  H12 UNL     1      30.486  35.437  26.758  1.00  0.00     0.178 HD
ATOM      6  H11 UNL     1      29.160  34.456  26.092  1.00  0.00     0.178 HD
ATOM      7  H2  UNL     1      30.116  32.585  26.957  1.00  0.00     0.207 HD
ENDBRANCH   1   3
BRANCH   1   8
HETATM    8  C1  UNL     1      32.096  32.507  28.687  1.00  0.00     0.325 A 
HETATM    9  C2  UNL     1      31.622  31.149  28.437  1.00  0.00     0.290 A 
HETATM   10  N4  UNL     1      32.933  31.503  27.931  1.00  0.00    -0.048 N 
ATOM     11  H42 UNL     1      33.393  31.476  27.021  1.00  0.00     0.279 HD
ATOM     12  H41 UNL     1      33.875  31.124  28.023  1.00  0.00     0.279 HD
ENDBRANCH   1   8
TORSDOF 2
ENDMDL
MODEL 2
REMARK VINA RESULT: -3.850834106      9.104     10.292
REMARK  2 active torsions:
REMARK  status: ('A' for Active; 'I' for Inactive)
REMARK    1  A    between atoms: N2_4  and  N3_6 
REMARK    2  A    between atoms: N3_6  and  C1_8 
ROOT
HETATM    1  N3  UNL     1      37.513  25.804  32.627  1.00  0.00    -0.290 N 
ATOM      2  H3  UNL     1      37.480  24.906  33.110  1.00  0.00     0.184 HD
ENDROOT
BRANCH   1   3
HETATM    3  N2  UNL     1      37.171  25.913  31.285  1.00  0.00    -0.252 N 
HETATM    4  N1  UNL     1      36.403  26.842  30.921  1.00  0.00    -0.331 N 
ATOM      5  H12 UNL     1      36.045  27.497  31.615  1.00  0.00     0.178 HD
ATOM      6  H11 UNL     1      36.152  26.921  29.936  1.00  0.00     0.178 HD
ATOM      7  H2  UNL     1      37.538  25.248  30.602  1.00  0.00     0.207 HD
ENDBRANCH   1   3
BRANCH   1   8
HETATM    8  C1  UNL     1      37.919  27.014  33.314  1.00  0.00     0.325 A 
HETATM    9  C2  UNL     1      37.872  27.113  34.769  1.00  0.00     0.290 A 
HETATM   10  N4  UNL     1      39.131  26.723  34.167  1.00  0.00    -0.048 N 
ATOM     11  H42 UNL     1      39.776  25.941  34.271  1.00  0.00     0.279 HD
ATOM     12  H41 UNL     1      40.092  27.062  34.205  1.00  0.00     0.279 HD
ENDBRANCH   1   8
TORSDOF 2
ENDMDL
MODEL 3
REMARK VINA RESULT: -3.752091755      9.436     10.612
REMARK  2 active torsions:
REMARK  status: ('A' for Active; 'I' for Inactive)
REMARK    1  A    between atoms: N2_4  and  N3_6 
REMARK    2  A    between atoms: N3_6  and  C1_8 
ROOT
HETATM    1  N3  UNL     1      38.401  26.532  32.756  1.00  0.00    -0.290 N 
ATOM      2  H3  UNL     1      39.082  26.932  32.110  1.00  0.00     0.184 HD
ENDROOT
BRANCH   1   3
HETATM    3  N2  UNL     1      38.636  26.502  34.125  1.00  0.00    -0.252 N 
HETATM    4  N1  UNL     1      37.789  25.957  34.881  1.00  0.00    -0.331 N 
ATOM      5  H12 UNL     1      36.947  25.547  34.477  1.00  0.00     0.178 HD
ATOM      6  H11 UNL     1      37.962  25.936  35.886  1.00  0.00     0.178 HD
ATOM      7  H2  UNL     1      39.483  26.918  34.512  1.00  0.00     0.207 HD
ENDBRANCH   1   3
BRANCH   1   8
HETATM    8  C1  UNL     1      37.151  25.971  32.280  1.00  0.00     0.325 A 
HETATM    9  C2  UNL     1      36.300  26.700  31.344  1.00  0.00     0.290 A 
HETATM   10  N4  UNL     1      37.239  25.746  30.789  1.00  0.00    -0.048 N 
ATOM     11  H42 UNL     1      37.982  25.777  30.091  1.00  0.00     0.279 HD
ATOM     12  H41 UNL     1      37.176  24.938  30.171  1.00  0.00     0.279 HD
ENDBRANCH   1   8
TORSDOF 2
ENDMDL
MODEL 4
REMARK VINA RESULT: -3.675606285      8.797      9.219
REMARK  2 active torsions:
REMARK  status: ('A' for Active; 'I' for Inactive)
REMARK    1  A    between atoms: N2_4  and  N3_6 
REMARK    2  A    between atoms: N3_6  and  C1_8 
ROOT
HETATM    1  N3  UNL     1      36.815  26.546  31.128  1.00  0.00    -0.290 N 
ATOM      2  H3  UNL     1      37.300  27.230  30.547  1.00  0.00     0.184 HD
ENDROOT
BRANCH   1   3
HETATM    3  N2  UNL     1      36.021  25.555  30.565  1.00  0.00    -0.252 N 
HETATM    4  N1  UNL     1      34.781  25.750  30.456  1.00  0.00    -0.331 N 
ATOM      5  H12 UNL     1      34.382  26.630  30.783  1.00  0.00     0.178 HD
ATOM      6  H11 UNL     1      34.199  25.023  30.043  1.00  0.00     0.178 HD
ATOM      7  H2  UNL     1      36.436  24.680  30.244  1.00  0.00     0.207 HD
ENDBRANCH   1   3
BRANCH   1   8
HETATM    8  C1  UNL     1      36.928  26.571  32.574  1.00  0.00     0.325 A 
HETATM    9  C2  UNL     1      37.957  27.363  33.241  1.00  0.00     0.290 A 
HETATM   10  N4  UNL     1      36.651  27.969  33.073  1.00  0.00    -0.048 N 
ATOM     11  H42 UNL     1      36.296  28.832  32.662  1.00  0.00     0.279 HD
ATOM     12  H41 UNL     1      35.963  28.397  33.691  1.00  0.00     0.279 HD
ENDBRANCH   1   8
TORSDOF 2
ENDMDL
MODEL 5
REMARK VINA RESULT: -3.635110551      9.183      9.959
REMARK  2 active torsions:
REMARK  status: ('A' for Active; 'I' for Inactive)
REMARK    1  A    between atoms: N2_4  and  N3_6 
REMARK    2  A    between atoms: N3_6  and  C1_8 
ROOT
HETATM    1  N3  UNL     1      36.569  27.201  32.511  1.00  0.00    -0.290 N 
ATOM      2  H3  UNL     1      35.673  27.414  32.950  1.00  0.00     0.184 HD
ENDROOT
BRANCH   1   3
HETATM    3  N2  UNL     1      36.651  26.859  31.167  1.00  0.00    -0.252 N 
HETATM    4  N1  UNL     1      37.088  25.722  30.849  1.00  0.00    -0.331 N 
ATOM      5  H12 UNL     1      37.374  25.072  31.580  1.00  0.00     0.178 HD
ATOM      6  H11 UNL     1      37.147  25.472  29.862  1.00  0.00     0.178 HD
ATOM      7  H2  UNL     1      36.360  27.522  30.447  1.00  0.00     0.207 HD
ENDBRANCH   1   3
BRANCH   1   8
HETATM    8  C1  UNL     1      37.806  27.244  33.266  1.00  0.00     0.325 A 
HETATM    9  C2  UNL     1      37.808  27.466  34.709  1.00  0.00     0.290 A 
HETATM   10  N4  UNL     1      37.835  26.094  34.244  1.00  0.00    -0.048 N 
ATOM     11  H42 UNL     1      37.271  25.260  34.404  1.00  0.00     0.279 HD
ATOM     12  H41 UNL     1      38.437  25.285  34.399  1.00  0.00     0.279 HD
ENDBRANCH   1   8
TORSDOF 2
ENDMDL
