MODEL 1
REMARK VINA RESULT: -4.531332681      0.000      0.000
REMARK  3 active torsions:
REMARK  status: ('A' for Active; 'I' for Inactive)
REMARK    1  A    between atoms: N1_2  and  C2_4 
REMARK    2  A    between atoms: C3_7  and  N3_8 
REMARK    3  A    between atoms: N4_13  and  N5_14 
ROOT
HETATM    1  C2  UNL     1      28.552  27.373   1.615  1.00  0.00     0.695 A 
HETATM    2  N2  UNL     1      29.119  28.128   2.576  1.00  0.00    -0.170 N 
ATOM      3  H2  UNL     1      28.537  28.520   3.318  1.00  0.00     0.186 HD
HETATM    4  C3  UNL     1      30.448  28.373   2.570  1.00  0.00     0.186 A 
HETATM    5  C4  UNL     1      31.218  27.840   1.567  1.00  0.00     0.325 A 
HETATM    6  O1  UNL     1      32.447  28.059   1.551  1.00  0.00    -0.261 OA
HETATM    7  N4  UNL     1      30.644  27.084   0.608  1.00  0.00    -0.146 N 
HETATM    8  N6  UNL     1      29.337  26.870   0.654  1.00  0.00    -0.108 N 
ATOM      9  H6  UNL     1      28.910  26.298  -0.075  1.00  0.00     0.208 HD
ENDROOT
BRANCH   1  10
HETATM   10  N1  UNL     1      27.287  27.129   1.604  1.00  0.00    -0.229 N 
HETATM   11  C1  UNL     1      26.723  26.076   0.790  1.00  0.00     0.165 C 
ATOM     12  H1  UNL     1      26.667  27.694   2.186  1.00  0.00     0.177 HD
ENDBRANCH   1  10
BRANCH   4  13
HETATM   13  N3  UNL     1      30.990  29.108   3.506  1.00  0.00    -0.380 N 
ATOM     14  H32 UNL     1      31.249  28.698   4.403  1.00  0.00     0.157 HD
ATOM     15  H31 UNL     1      31.160  30.102   3.349  1.00  0.00     0.157 HD
ENDBRANCH   4  13
BRANCH   7  16
HETATM   16  N5  UNL     1      31.406  26.536  -0.414  1.00  0.00    -0.320 N 
ATOM     17  H52 UNL     1      31.304  26.876  -1.370  1.00  0.00     0.179 HD
ATOM     18  H51 UNL     1      32.075  25.789  -0.223  1.00  0.00     0.179 HD
ENDBRANCH   7  16
TORSDOF 3
ENDMDL
MODEL 2
REMARK VINA RESULT: -4.445671585      0.566      2.451
REMARK  3 active torsions:
REMARK  status: ('A' for Active; 'I' for Inactive)
REMARK    1  A    between atoms: N1_2  and  C2_4 
REMARK    2  A    between atoms: C3_7  and  N3_8 
REMARK    3  A    between atoms: N4_13  and  N5_14 
ROOT
HETATM    1  C2  UNL     1      28.566  27.357   1.592  1.00  0.00     0.695 A 
HETATM    2  N2  UNL     1      29.354  26.887   0.605  1.00  0.00    -0.170 N 
ATOM      3  H2  UNL     1      28.943  26.333  -0.148  1.00  0.00     0.186 HD
HETATM    4  C3  UNL     1      30.682  27.142   0.599  1.00  0.00     0.186 A 
HETATM    5  C4  UNL     1      31.219  27.889   1.617  1.00  0.00     0.325 A 
HETATM    6  O1  UNL     1      32.445  28.131   1.622  1.00  0.00    -0.261 OA
HETATM    7  N4  UNL     1      30.424  28.356   2.601  1.00  0.00    -0.146 N 
HETATM    8  N6  UNL     1      29.128  28.081   2.566  1.00  0.00    -0.108 N 
ATOM      9  H6  UNL     1      28.534  28.438   3.315  1.00  0.00     0.208 HD
ENDROOT
BRANCH   1  10
HETATM   10  N1  UNL     1      27.299  27.123   1.614  1.00  0.00    -0.229 N 
HETATM   11  C1  UNL     1      26.718  26.014   0.892  1.00  0.00     0.165 C 
ATOM     12  H1  UNL     1      26.689  27.738   2.155  1.00  0.00     0.177 HD
ENDBRANCH   1  10
BRANCH   4  13
HETATM   13  N3  UNL     1      31.439  26.683  -0.363  1.00  0.00    -0.380 N 
ATOM     14  H32 UNL     1      31.055  26.060  -1.074  1.00  0.00     0.157 HD
ATOM     15  H31 UNL     1      32.425  26.942  -0.412  1.00  0.00     0.157 HD
ENDBRANCH   4  13
BRANCH   7  16
HETATM   16  N5  UNL     1      30.950  29.113   3.639  1.00  0.00    -0.320 N 
ATOM     17  H52 UNL     1      31.761  29.710   3.479  1.00  0.00     0.179 HD
ATOM     18  H51 UNL     1      30.534  29.082   4.570  1.00  0.00     0.179 HD
ENDBRANCH   7  16
TORSDOF 3
ENDMDL
MODEL 3
REMARK VINA RESULT: -4.251178936      1.800      3.487
REMARK  3 active torsions:
REMARK  status: ('A' for Active; 'I' for Inactive)
REMARK    1  A    between atoms: N1_2  and  C2_4 
REMARK    2  A    between atoms: C3_7  and  N3_8 
REMARK    3  A    between atoms: N4_13  and  N5_14 
ROOT
HETATM    1  C2  UNL     1      29.738  28.107   2.296  1.00  0.00     0.695 A 
HETATM    2  N2  UNL     1      28.433  27.802   2.153  1.00  0.00    -0.170 N 
ATOM      3  H2  UNL     1      27.751  28.186   2.809  1.00  0.00     0.186 HD
HETATM    4  C3  UNL     1      28.017  26.995   1.152  1.00  0.00     0.186 A 
HETATM    5  C4  UNL     1      28.945  26.488   0.278  1.00  0.00     0.325 A 
HETATM    6  O1  UNL     1      28.572  25.741  -0.651  1.00  0.00    -0.261 OA
HETATM    7  N4  UNL     1      30.249  26.797   0.427  1.00  0.00    -0.146 N 
HETATM    8  N6  UNL     1      30.612  27.592   1.423  1.00  0.00    -0.108 N 
ATOM      9  H6  UNL     1      31.600  27.821   1.529  1.00  0.00     0.208 HD
ENDROOT
BRANCH   1  10
HETATM   10  N1  UNL     1      30.153  28.874   3.244  1.00  0.00    -0.229 N 
HETATM   11  C1  UNL     1      31.556  29.177   3.418  1.00  0.00     0.165 C 
ATOM     12  H1  UNL     1      29.474  29.279   3.890  1.00  0.00     0.177 HD
ENDBRANCH   1  10
BRANCH   4  13
HETATM   13  N3  UNL     1      26.748  26.704   1.020  1.00  0.00    -0.380 N 
ATOM     14  H32 UNL     1      26.045  27.442   1.009  1.00  0.00     0.157 HD
ATOM     15  H31 UNL     1      26.449  25.734   0.927  1.00  0.00     0.157 HD
ENDBRANCH   4  13
BRANCH   7  16
HETATM   16  N5  UNL     1      31.202  26.293  -0.447  1.00  0.00    -0.320 N 
ATOM     17  H52 UNL     1      31.174  25.313  -0.729  1.00  0.00     0.179 HD
ATOM     18  H51 UNL     1      31.940  26.894  -0.817  1.00  0.00     0.179 HD
ENDBRANCH   7  16
TORSDOF 3
ENDMDL
MODEL 4
REMARK VINA RESULT: -4.181785446      2.256      4.060
REMARK  3 active torsions:
REMARK  status: ('A' for Active; 'I' for Inactive)
REMARK    1  A    between atoms: N1_2  and  C2_4 
REMARK    2  A    between atoms: C3_7  and  N3_8 
REMARK    3  A    between atoms: N4_13  and  N5_14 
ROOT
HETATM    1  C2  UNL     1      32.137  27.653   1.092  1.00  0.00     0.695 A 
HETATM    2  N2  UNL     1      30.952  27.813   0.470  1.00  0.00    -0.170 N 
ATOM      3  H2  UNL     1      30.790  27.358  -0.429  1.00  0.00     0.186 HD
HETATM    4  C3  UNL     1      29.977  28.568   1.023  1.00  0.00     0.186 A 
HETATM    5  C4  UNL     1      30.210  29.174   2.232  1.00  0.00     0.325 A 
HETATM    6  O1  UNL     1      29.317  29.874   2.752  1.00  0.00    -0.261 OA
HETATM    7  N4  UNL     1      31.399  29.009   2.849  1.00  0.00    -0.146 N 
HETATM    8  N6  UNL     1      32.326  28.260   2.270  1.00  0.00    -0.108 N 
ATOM      9  H6  UNL     1      33.221  28.140   2.742  1.00  0.00     0.208 HD
ENDROOT
BRANCH   1  10
HETATM   10  N1  UNL     1      33.078  26.937   0.580  1.00  0.00    -0.229 N 
HETATM   11  C1  UNL     1      32.801  25.897  -0.385  1.00  0.00     0.165 C 
ATOM     12  H1  UNL     1      34.043  27.108   0.863  1.00  0.00     0.177 HD
ENDBRANCH   1  10
BRANCH   4  13
HETATM   13  N3  UNL     1      28.830  28.719   0.412  1.00  0.00    -0.380 N 
ATOM     14  H32 UNL     1      28.782  28.731  -0.606  1.00  0.00     0.157 HD
ATOM     15  H31 UNL     1      27.970  28.825   0.950  1.00  0.00     0.157 HD
ENDBRANCH   4  13
BRANCH   7  16
HETATM   16  N5  UNL     1      31.653  29.613   4.072  1.00  0.00    -0.320 N 
ATOM     17  H52 UNL     1      32.525  29.425   4.567  1.00  0.00     0.179 HD
ATOM     18  H51 UNL     1      30.974  30.250   4.490  1.00  0.00     0.179 HD
ENDBRANCH   7  16
TORSDOF 3
ENDMDL
MODEL 5
REMARK VINA RESULT: -4.173055333      2.409      3.499
REMARK  3 active torsions:
REMARK  status: ('A' for Active; 'I' for Inactive)
REMARK    1  A    between atoms: N1_2  and  C2_4 
REMARK    2  A    between atoms: C3_7  and  N3_8 
REMARK    3  A    between atoms: N4_13  and  N5_14 
ROOT
HETATM    1  C2  UNL     1      32.177  27.640   1.089  1.00  0.00     0.695 A 
HETATM    2  N2  UNL     1      32.386  28.236   2.280  1.00  0.00    -0.170 N 
ATOM      3  H2  UNL     1      33.280  28.112   2.756  1.00  0.00     0.186 HD
HETATM    4  C3  UNL     1      31.424  28.995   2.851  1.00  0.00     0.186 A 
HETATM    5  C4  UNL     1      30.227  29.154   2.199  1.00  0.00     0.325 A 
HETATM    6  O1  UNL     1      29.332  29.853   2.717  1.00  0.00    -0.261 OA
HETATM    7  N4  UNL     1      30.026  28.555   1.007  1.00  0.00    -0.146 N 
HETATM    8  N6  UNL     1      30.997  27.819   0.485  1.00  0.00    -0.108 N 
ATOM      9  H6  UNL     1      30.837  27.370  -0.417  1.00  0.00     0.208 HD
ENDROOT
BRANCH   1  10
HETATM   10  N1  UNL     1      33.082  26.913   0.530  1.00  0.00    -0.229 N 
HETATM   11  C1  UNL     1      32.740  25.829  -0.364  1.00  0.00     0.165 C 
ATOM     12  H1  UNL     1      34.065  27.106   0.722  1.00  0.00     0.177 HD
ENDBRANCH   1  10
BRANCH   4  13
HETATM   13  N3  UNL     1      31.634  29.569   4.007  1.00  0.00    -0.380 N 
ATOM     14  H32 UNL     1      32.511  29.424   4.508  1.00  0.00     0.157 HD
ATOM     15  H31 UNL     1      30.922  30.170   4.422  1.00  0.00     0.157 HD
ENDBRANCH   4  13
BRANCH   7  16
HETATM   16  N5  UNL     1      28.822  28.703   0.333  1.00  0.00    -0.320 N 
ATOM     17  H52 UNL     1      28.084  28.007   0.440  1.00  0.00     0.179 HD
ATOM     18  H51 UNL     1      28.661  29.507  -0.275  1.00  0.00     0.179 HD
ENDBRANCH   7  16
TORSDOF 3
ENDMDL
