MODEL 1
REMARK VINA RESULT: -4.970414698      0.000      0.000
REMARK  0 active torsions:
REMARK  status: ('A' for Active; 'I' for Inactive)
ROOT
HETATM    1  N1  UNL     1      30.829  27.345  -0.620  1.00  0.00    -0.079 NA
HETATM    2  C1  UNL     1      30.920  28.012   0.628  1.00  0.00     0.160 A 
HETATM    3  N2  UNL     1      29.929  28.837   1.048  1.00  0.00    -0.304 N 
ATOM      4  H2  UNL     1      29.095  29.001   0.483  1.00  0.00     0.170 HD
HETATM    5  C2  UNL     1      30.097  29.430   2.245  1.00  0.00     0.315 A 
HETATM    6  O1  UNL     1      29.201  30.202   2.668  1.00  0.00    -0.262 OA
HETATM    7  C3  UNL     1      31.211  29.232   3.038  1.00  0.00     0.315 A 
HETATM    8  O2  UNL     1      31.332  29.806   4.155  1.00  0.00    -0.262 OA
HETATM    9  N3  UNL     1      32.158  28.404   2.568  1.00  0.00    -0.304 N 
ATOM     10  H3  UNL     1      32.991  28.240   3.134  1.00  0.00     0.170 HD
HETATM   11  C4  UNL     1      32.052  27.785   1.388  1.00  0.00     0.160 A 
HETATM   12  N4  UNL     1      33.067  26.907   0.903  1.00  0.00    -0.079 NA
ENDROOT
TORSDOF 0
ENDMDL
MODEL 2
REMARK VINA RESULT: -4.914354102      2.816      3.681
REMARK  0 active torsions:
REMARK  status: ('A' for Active; 'I' for Inactive)
ROOT
HETATM    1  N1  UNL     1      30.192  29.428   3.321  1.00  0.00    -0.079 NA
HETATM    2  C1  UNL     1      29.732  28.439   2.414  1.00  0.00     0.160 A 
HETATM    3  N2  UNL     1      28.437  28.036   2.426  1.00  0.00    -0.304 N 
ATOM      4  H2  UNL     1      27.761  28.429   3.082  1.00  0.00     0.170 HD
HETATM    5  C2  UNL     1      28.085  27.094   1.532  1.00  0.00     0.315 A 
HETATM    6  O1  UNL     1      26.893  26.694   1.512  1.00  0.00    -0.262 OA
HETATM    7  C3  UNL     1      28.970  26.539   0.628  1.00  0.00     0.315 A 
HETATM    8  O2  UNL     1      28.602  25.657  -0.196  1.00  0.00    -0.262 OA
HETATM    9  N3  UNL     1      30.238  26.979   0.665  1.00  0.00    -0.304 N 
ATOM     10  H3  UNL     1      30.913  26.586   0.008  1.00  0.00     0.170 HD
HETATM   11  C4  UNL     1      30.652  27.912   1.528  1.00  0.00     0.160 A 
HETATM   12  N4  UNL     1      32.003  28.369   1.554  1.00  0.00    -0.079 NA
ENDROOT
TORSDOF 0
ENDMDL
MODEL 3
REMARK VINA RESULT: -4.909346206      2.802      3.842
REMARK  0 active torsions:
REMARK  status: ('A' for Active; 'I' for Inactive)
ROOT
HETATM    1  N1  UNL     1      31.951  28.498   1.518  1.00  0.00    -0.079 NA
HETATM    2  C1  UNL     1      30.629  27.984   1.482  1.00  0.00     0.160 A 
HETATM    3  N2  UNL     1      30.281  27.026   0.586  1.00  0.00    -0.304 N 
ATOM      4  H2  UNL     1      30.955  26.650  -0.082  1.00  0.00     0.170 HD
HETATM    5  C2  UNL     1      29.006  26.595   0.620  1.00  0.00     0.315 A 
HETATM    6  O1  UNL     1      28.647  25.709  -0.195  1.00  0.00    -0.262 OA
HETATM    7  C3  UNL     1      28.067  27.079   1.510  1.00  0.00     0.315 A 
HETATM    8  O2  UNL     1      26.881  26.650   1.511  1.00  0.00    -0.262 OA
HETATM    9  N3  UNL     1      28.472  28.027   2.372  1.00  0.00    -0.304 N 
ATOM     10  H3  UNL     1      27.798  28.402   3.040  1.00  0.00     0.170 HD
HETATM   11  C4  UNL     1      29.722  28.497   2.390  1.00  0.00     0.160 A 
HETATM   12  N4  UNL     1      30.136  29.503   3.312  1.00  0.00    -0.079 NA
ENDROOT
TORSDOF 0
ENDMDL
MODEL 4
REMARK VINA RESULT: -4.883164255      2.282      2.901
REMARK  0 active torsions:
REMARK  status: ('A' for Active; 'I' for Inactive)
ROOT
HETATM    1  N1  UNL     1      26.933  26.636   1.363  1.00  0.00    -0.079 NA
HETATM    2  C1  UNL     1      28.243  27.163   1.505  1.00  0.00     0.160 A 
HETATM    3  N2  UNL     1      28.508  28.118   2.431  1.00  0.00    -0.304 N 
ATOM      4  H2  UNL     1      27.781  28.483   3.047  1.00  0.00     0.170 HD
HETATM    5  C2  UNL     1      29.777  28.564   2.499  1.00  0.00     0.315 A 
HETATM    6  O1  UNL     1      30.062  29.449   3.343  1.00  0.00    -0.262 OA
HETATM    7  C3  UNL     1      30.789  28.095   1.683  1.00  0.00     0.315 A 
HETATM    8  O2  UNL     1      31.966  28.537   1.777  1.00  0.00    -0.262 OA
HETATM    9  N3  UNL     1      30.463  27.149   0.787  1.00  0.00    -0.304 N 
ATOM     10  H3  UNL     1      31.191  26.785   0.171  1.00  0.00     0.170 HD
HETATM   11  C4  UNL     1      29.223  26.665   0.668  1.00  0.00     0.160 A 
HETATM   12  N4  UNL     1      28.894  25.660  -0.289  1.00  0.00    -0.079 NA
ENDROOT
TORSDOF 0
ENDMDL
MODEL 5
REMARK VINA RESULT: -4.873652385      2.310      3.190
REMARK  0 active torsions:
REMARK  status: ('A' for Active; 'I' for Inactive)
ROOT
HETATM    1  N1  UNL     1      28.847  25.638  -0.285  1.00  0.00    -0.079 NA
HETATM    2  C1  UNL     1      29.182  26.647   0.653  1.00  0.00     0.160 A 
HETATM    3  N2  UNL     1      30.445  27.139   0.720  1.00  0.00    -0.304 N 
ATOM      4  H2  UNL     1      31.183  26.801   0.103  1.00  0.00     0.170 HD
HETATM    5  C2  UNL     1      30.676  28.095   1.640  1.00  0.00     0.315 A 
HETATM    6  O1  UNL     1      31.834  28.575   1.733  1.00  0.00    -0.262 OA
HETATM    7  C3  UNL     1      29.702  28.579   2.492  1.00  0.00     0.315 A 
HETATM    8  O2  UNL     1      29.959  29.476   3.340  1.00  0.00    -0.262 OA
HETATM    9  N3  UNL     1      28.472  28.052   2.376  1.00  0.00    -0.304 N 
ATOM     10  H3  UNL     1      27.734  28.391   2.994  1.00  0.00     0.170 HD
HETATM   11  C4  UNL     1      28.176  27.101   1.485  1.00  0.00     0.160 A 
HETATM   12  N4  UNL     1      26.865  26.552   1.375  1.00  0.00    -0.079 NA
ENDROOT
TORSDOF 0
ENDMDL
