MODEL 1
REMARK VINA RESULT: -4.989566239      0.000      0.000
REMARK  2 active torsions:
REMARK  status: ('A' for Active; 'I' for Inactive)
REMARK    1  A    between atoms: N2_4  and  O1_5 
REMARK    2  A    between atoms: N2_4  and  N3_7 
ROOT
HETATM    1  N3  UNL     1      29.012  27.853   1.876  1.00  0.00    -0.095 N 
HETATM    2  N4  UNL     1      27.743  27.485   2.057  1.00  0.00    -0.222 N 
ATOM      3  H4  UNL     1      27.111  27.887   2.750  1.00  0.00     0.194 HD
HETATM    4  C1  UNL     1      27.422  26.512   1.200  1.00  0.00     0.344 A 
HETATM    5  O2  UNL     1      26.322  25.932   1.090  1.00  0.00    -0.245 OA
HETATM    6  N5  UNL     1      28.488  26.253   0.467  1.00  0.00    -0.256 N 
ATOM      7  H5  UNL     1      28.555  25.557  -0.276  1.00  0.00     0.175 HD
HETATM    8  C2  UNL     1      29.462  27.068   0.874  1.00  0.00     0.368 A 
HETATM    9  O3  UNL     1      30.653  27.141   0.429  1.00  0.00    -0.243 OA
ENDROOT
BRANCH   1  10
HETATM   10  N2  UNL     1      29.724  28.833   2.554  1.00  0.00    -0.075 N 
HETATM   11  N1  UNL     1      30.864  28.568   3.020  1.00  0.00    -0.302 N 
ATOM     12  H12 UNL     1      31.388  29.288   3.518  1.00  0.00     0.181 HD
ATOM     13  H11 UNL     1      31.234  27.626   2.889  1.00  0.00     0.181 HD
BRANCH  10  14
HETATM   14  O1  UNL     1      29.231  30.092   2.729  1.00  0.00    -0.252 OA
ATOM     15  H1  UNL     1      29.740  30.825   2.402  1.00  0.00     0.248 HD
ENDBRANCH  10  14
ENDBRANCH   1  10
TORSDOF 2
ENDMDL
MODEL 2
REMARK VINA RESULT: -4.923738601      1.795      3.708
REMARK  2 active torsions:
REMARK  status: ('A' for Active; 'I' for Inactive)
REMARK    1  A    between atoms: N2_4  and  O1_5 
REMARK    2  A    between atoms: N2_4  and  N3_7 
ROOT
HETATM    1  N3  UNL     1      29.592  28.038   2.046  1.00  0.00    -0.095 N 
HETATM    2  N4  UNL     1      29.703  28.878   3.075  1.00  0.00    -0.222 N 
ATOM      3  H4  UNL     1      28.919  29.290   3.581  1.00  0.00     0.194 HD
HETATM    4  C1  UNL     1      30.992  29.101   3.347  1.00  0.00     0.344 A 
HETATM    5  O2  UNL     1      31.462  29.833   4.242  1.00  0.00    -0.245 OA
HETATM    6  N5  UNL     1      31.711  28.403   2.488  1.00  0.00    -0.256 N 
ATOM      7  H5  UNL     1      32.729  28.368   2.442  1.00  0.00     0.175 HD
HETATM    8  C2  UNL     1      30.863  27.751   1.691  1.00  0.00     0.368 A 
HETATM    9  O3  UNL     1      31.145  26.970   0.727  1.00  0.00    -0.243 OA
ENDROOT
BRANCH   1  10
HETATM   10  N2  UNL     1      28.430  27.549   1.463  1.00  0.00    -0.075 N 
HETATM   11  N1  UNL     1      28.375  27.395   0.214  1.00  0.00    -0.302 N 
ATOM     12  H12 UNL     1      27.522  27.035  -0.215  1.00  0.00     0.181 HD
ATOM     13  H11 UNL     1      29.194  27.644  -0.342  1.00  0.00     0.181 HD
BRANCH  10  14
HETATM   14  O1  UNL     1      27.336  27.215   2.204  1.00  0.00    -0.252 OA
ATOM     15  H1  UNL     1      27.449  27.076   3.137  1.00  0.00     0.248 HD
ENDBRANCH  10  14
ENDBRANCH   1  10
TORSDOF 2
ENDMDL
MODEL 3
REMARK VINA RESULT: -4.893495510      1.554      3.559
REMARK  2 active torsions:
REMARK  status: ('A' for Active; 'I' for Inactive)
REMARK    1  A    between atoms: N2_4  and  O1_5 
REMARK    2  A    between atoms: N2_4  and  N3_7 
ROOT
HETATM    1  N3  UNL     1      28.775  27.761   1.513  1.00  0.00    -0.095 N 
HETATM    2  N4  UNL     1      29.091  28.195   2.733  1.00  0.00    -0.222 N 
ATOM      3  H4  UNL     1      28.667  27.864   3.600  1.00  0.00     0.194 HD
HETATM    4  C1  UNL     1      30.044  29.128   2.654  1.00  0.00     0.344 A 
HETATM    5  O2  UNL     1      30.576  29.749   3.598  1.00  0.00    -0.245 OA
HETATM    6  N5  UNL     1      30.340  29.295   1.379  1.00  0.00    -0.256 N 
ATOM      7  H5  UNL     1      31.032  29.941   1.000  1.00  0.00     0.175 HD
HETATM    8  C2  UNL     1      29.570  28.463   0.676  1.00  0.00     0.368 A 
HETATM    9  O3  UNL     1      29.539  28.311  -0.587  1.00  0.00    -0.243 OA
ENDROOT
BRANCH   1  10
HETATM   10  N2  UNL     1      27.843  26.792   1.164  1.00  0.00    -0.075 N 
HETATM   11  N1  UNL     1      28.212  25.773   0.520  1.00  0.00    -0.302 N 
ATOM     12  H12 UNL     1      27.528  25.062   0.264  1.00  0.00     0.181 HD
ATOM     13  H11 UNL     1      29.197  25.692   0.265  1.00  0.00     0.181 HD
BRANCH  10  14
HETATM   14  O1  UNL     1      26.529  26.900   1.506  1.00  0.00    -0.252 OA
ATOM     15  H1  UNL     1      26.202  26.361   2.218  1.00  0.00     0.248 HD
ENDBRANCH  10  14
ENDBRANCH   1  10
TORSDOF 2
ENDMDL
MODEL 4
REMARK VINA RESULT: -4.830667919      2.103      3.820
REMARK  2 active torsions:
REMARK  status: ('A' for Active; 'I' for Inactive)
REMARK    1  A    between atoms: N2_4  and  O1_5 
REMARK    2  A    between atoms: N2_4  and  N3_7 
ROOT
HETATM    1  N3  UNL     1      29.844  28.210   2.033  1.00  0.00    -0.095 N 
HETATM    2  N4  UNL     1      29.905  29.045   3.070  1.00  0.00    -0.222 N 
ATOM      3  H4  UNL     1      29.099  29.482   3.517  1.00  0.00     0.194 HD
HETATM    4  C1  UNL     1      31.177  29.226   3.437  1.00  0.00     0.344 A 
HETATM    5  O2  UNL     1      31.602  29.942   4.368  1.00  0.00    -0.245 OA
HETATM    6  N5  UNL     1      31.935  28.506   2.633  1.00  0.00    -0.256 N 
ATOM      7  H5  UNL     1      32.952  28.438   2.663  1.00  0.00     0.175 HD
HETATM    8  C2  UNL     1      31.128  27.883   1.772  1.00  0.00     0.368 A 
HETATM    9  O3  UNL     1      31.456  27.093   0.830  1.00  0.00    -0.243 OA
ENDROOT
BRANCH   1  10
HETATM   10  N2  UNL     1      28.714  27.758   1.363  1.00  0.00    -0.075 N 
HETATM   11  N1  UNL     1      27.734  27.316   2.020  1.00  0.00    -0.302 N 
ATOM     12  H12 UNL     1      26.904  26.984   1.529  1.00  0.00     0.181 HD
ATOM     13  H11 UNL     1      27.803  27.295   3.038  1.00  0.00     0.181 HD
BRANCH  10  14
HETATM   14  O1  UNL     1      28.622  27.786   0.004  1.00  0.00    -0.252 OA
ATOM     15  H1  UNL     1      29.346  28.154  -0.490  1.00  0.00     0.248 HD
ENDBRANCH  10  14
ENDBRANCH   1  10
TORSDOF 2
ENDMDL
MODEL 5
REMARK VINA RESULT: -4.745965179      1.243      1.366
REMARK  2 active torsions:
REMARK  status: ('A' for Active; 'I' for Inactive)
REMARK    1  A    between atoms: N2_4  and  O1_5 
REMARK    2  A    between atoms: N2_4  and  N3_7 
ROOT
HETATM    1  N3  UNL     1      30.038  28.332   2.185  1.00  0.00    -0.095 N 
HETATM    2  N4  UNL     1      28.755  28.147   2.496  1.00  0.00    -0.222 N 
ATOM      3  H4  UNL     1      28.255  28.642   3.235  1.00  0.00     0.194 HD
HETATM    4  C1  UNL     1      28.219  27.220   1.697  1.00  0.00     0.344 A 
HETATM    5  O2  UNL     1      27.044  26.799   1.707  1.00  0.00    -0.245 OA
HETATM    6  N5  UNL     1      29.161  26.806   0.872  1.00  0.00    -0.256 N 
ATOM      7  H5  UNL     1      29.058  26.100   0.144  1.00  0.00     0.175 HD
HETATM    8  C2  UNL     1      30.275  27.480   1.164  1.00  0.00     0.368 A 
HETATM    9  O3  UNL     1      31.414  27.380   0.606  1.00  0.00    -0.243 OA
ENDROOT
BRANCH   1  10
HETATM   10  N2  UNL     1      30.942  29.209   2.769  1.00  0.00    -0.075 N 
HETATM   11  N1  UNL     1      31.808  29.781   2.053  1.00  0.00    -0.302 N 
ATOM     12  H12 UNL     1      32.472  30.426   2.481  1.00  0.00     0.181 HD
ATOM     13  H11 UNL     1      31.824  29.574   1.054  1.00  0.00     0.181 HD
BRANCH  10  14
HETATM   14  O1  UNL     1      30.921  29.486   4.103  1.00  0.00    -0.252 OA
ATOM     15  H1  UNL     1      30.353  28.968   4.662  1.00  0.00     0.248 HD
ENDBRANCH  10  14
ENDBRANCH   1  10
TORSDOF 2
ENDMDL
