MODEL 1
REMARK VINA RESULT: -8.077495037      0.000      0.000
REMARK  11 active torsions:
REMARK  status: ('A' for Active; 'I' for Inactive)
REMARK    1  A    between atoms: C2_5  and  N3_6 
REMARK    2  A    between atoms: C2_5  and  C6_17 
REMARK    3  A    between atoms: N3_6  and  N4_8 
REMARK    4  A    between atoms: N4_8  and  C3_10 
REMARK    5  A    between atoms: C7_19  and  C8_20 
REMARK    6  A    between atoms: C10_24  and  C11_25 
REMARK    7  A    between atoms: N9_27  and  O2_29 
REMARK    8  A    between atoms: C14_35  and  C15_36 
REMARK    9  A    between atoms: C15_36  and  O3_37 
REMARK   10  A    between atoms: C15_36  and  C16_39 
REMARK   11  A    between atoms: C16_39  and  O4_40 
ROOT
HETATM    1  N1  UNL     1      15.495  22.205   2.600  1.00  0.00    -0.172 NA
HETATM    2  C1  UNL     1      15.095  22.565   3.648  1.00  0.00     0.183 C 
HETATM    3  N2  UNL     1      14.647  23.006   4.889  1.00  0.00    -0.276 N 
ATOM      4  H2  UNL     1      15.304  23.414   5.554  1.00  0.00     0.179 HD
HETATM    5  C2  UNL     1      13.413  22.899   5.194  1.00  0.00     0.164 C 
ENDROOT
BRANCH   5   6
HETATM    6  N3  UNL     1      13.006  23.365   6.476  1.00  0.00    -0.280 N 
ATOM      7  H3  UNL     1      13.590  24.049   6.957  1.00  0.00     0.188 HD
BRANCH   6   8
HETATM    8  N4  UNL     1      11.853  22.931   7.092  1.00  0.00    -0.270 N 
ATOM      9  H4  UNL     1      11.010  23.503   7.044  1.00  0.00     0.190 HD
BRANCH   8  10
HETATM   10  C3  UNL     1      11.825  21.691   7.799  1.00  0.00     0.190 C 
HETATM   11  N5  UNL     1      12.751  21.288   8.596  1.00  0.00    -0.360 N 
HETATM   12  C4  UNL     1      12.439  19.990   9.165  1.00  0.00     0.142 C 
ATOM     13  H5  UNL     1      13.599  21.815   8.802  1.00  0.00     0.162 HD
HETATM   14  C5  UNL     1      10.941  19.816   8.880  1.00  0.00     0.142 C 
HETATM   15  N6  UNL     1      10.803  20.711   7.748  1.00  0.00    -0.360 N 
ATOM     16  H6  UNL     1      10.084  20.646   7.029  1.00  0.00     0.162 HD
ENDBRANCH   8  10
ENDBRANCH   6   8
ENDBRANCH   5   6
BRANCH   5  17
HETATM   17  C6  UNL     1      12.474  22.316   4.273  1.00  0.00     0.131 A 
HETATM   18  O1  UNL     1      11.613  23.025   3.551  1.00  0.00    -0.302 OA
HETATM   19  C7  UNL     1      10.885  22.244   2.806  1.00  0.00     0.120 A 
HETATM   20  C13 UNL     1      11.271  20.951   3.037  1.00  0.00     0.054 A 
HETATM   21  C14 UNL     1      12.292  20.995   3.979  1.00  0.00     0.013 A 
BRANCH  19  22
HETATM   22  C8  UNL     1       9.833  22.657   1.882  1.00  0.00     0.139 A 
HETATM   23  N7  UNL     1       8.876  23.518   2.215  1.00  0.00    -0.349 N 
HETATM   24  C9  UNL     1       7.926  23.866   1.317  1.00  0.00     0.106 A 
ATOM     25  H7  UNL     1       8.859  23.919   3.153  1.00  0.00     0.167 HD
HETATM   26  C10 UNL     1       7.865  23.382   0.030  1.00  0.00     0.037 A 
HETATM   27  C12 UNL     1       8.901  22.473  -0.275  1.00  0.00     0.106 A 
HETATM   28  N10 UNL     1       9.818  22.156   0.638  1.00  0.00    -0.349 N 
ATOM     29  H10 UNL     1      10.549  21.496   0.377  1.00  0.00     0.167 HD
BRANCH  26  30
HETATM   30  C11 UNL     1       6.880  23.715  -0.967  1.00  0.00     0.148 C 
HETATM   31  N8  UNL     1       6.606  25.134  -1.156  1.00  0.00    -0.080 NA
HETATM   32  N9  UNL     1       6.230  22.950  -1.691  1.00  0.00    -0.255 N 
ATOM     33  H9  UNL     1       5.581  23.407  -2.331  1.00  0.00     0.195 HD
BRANCH  32  34
HETATM   34  O2  UNL     1       6.251  21.622  -1.760  1.00  0.00    -0.288 OA
ATOM     35  H2  UNL     1       5.551  21.013  -1.967  1.00  0.00     0.244 HD
ENDBRANCH  32  34
ENDBRANCH  26  30
ENDBRANCH  19  22
BRANCH  21  36
HETATM   36  C15 UNL     1      13.014  19.847   4.529  1.00  0.00     0.177 C 
BRANCH  36  37
HETATM   37  O3  UNL     1      12.520  19.399   5.751  1.00  0.00    -0.389 OA
ATOM     38  H3  UNL     1      13.143  18.892   6.258  1.00  0.00     0.210 HD
ENDBRANCH  36  37
BRANCH  36  39
HETATM   39  C16 UNL     1      12.989  18.663   3.569  1.00  0.00     0.200 C 
BRANCH  39  40
HETATM   40  O4  UNL     1      12.145  17.681   4.068  1.00  0.00    -0.398 OA
ATOM     41  H4  UNL     1      12.658  17.026   4.526  1.00  0.00     0.209 HD
ENDBRANCH  39  40
ENDBRANCH  36  39
ENDBRANCH  21  36
ENDBRANCH   5  17
TORSDOF 11
ENDMDL
MODEL 2
REMARK VINA RESULT: -7.578608174      1.639      4.047
REMARK  11 active torsions:
REMARK  status: ('A' for Active; 'I' for Inactive)
REMARK    1  A    between atoms: C2_5  and  N3_6 
REMARK    2  A    between atoms: C2_5  and  C6_17 
REMARK    3  A    between atoms: N3_6  and  N4_8 
REMARK    4  A    between atoms: N4_8  and  C3_10 
REMARK    5  A    between atoms: C7_19  and  C8_20 
REMARK    6  A    between atoms: C10_24  and  C11_25 
REMARK    7  A    between atoms: N9_27  and  O2_29 
REMARK    8  A    between atoms: C14_35  and  C15_36 
REMARK    9  A    between atoms: C15_36  and  O3_37 
REMARK   10  A    between atoms: C15_36  and  C16_39 
REMARK   11  A    between atoms: C16_39  and  O4_40 
ROOT
HETATM    1  N1  UNL     1      10.141  21.144   5.962  1.00  0.00    -0.172 NA
HETATM    2  C1  UNL     1      11.222  21.563   5.748  1.00  0.00     0.183 C 
HETATM    3  N2  UNL     1      12.504  22.053   5.523  1.00  0.00    -0.276 N 
ATOM      4  H2  UNL     1      13.092  22.324   6.311  1.00  0.00     0.179 HD
HETATM    5  C2  UNL     1      12.942  22.162   4.330  1.00  0.00     0.164 C 
ENDROOT
BRANCH   5   6
HETATM    6  N3  UNL     1      14.262  22.668   4.154  1.00  0.00    -0.280 N 
ATOM      7  H3  UNL     1      14.758  23.034   4.966  1.00  0.00     0.188 HD
BRANCH   6   8
HETATM    8  N4  UNL     1      14.894  22.682   2.931  1.00  0.00    -0.270 N 
ATOM      9  H4  UNL     1      14.362  22.909   2.091  1.00  0.00     0.190 HD
BRANCH   8  10
HETATM   10  C3  UNL     1      16.287  22.382   2.824  1.00  0.00     0.190 C 
HETATM   11  N5  UNL     1      16.873  21.424   3.449  1.00  0.00    -0.360 N 
HETATM   12  C4  UNL     1      18.289  21.370   3.137  1.00  0.00     0.142 C 
ATOM     13  H5  UNL     1      16.401  20.781   4.085  1.00  0.00     0.162 HD
HETATM   14  C5  UNL     1      18.420  22.241   1.880  1.00  0.00     0.142 C 
HETATM   15  N6  UNL     1      17.241  23.070   2.035  1.00  0.00    -0.360 N 
ATOM     16  H6  UNL     1      17.118  24.001   1.638  1.00  0.00     0.162 HD
ENDBRANCH   8  10
ENDBRANCH   6   8
ENDBRANCH   5   6
BRANCH   5  17
HETATM   17  C6  UNL     1      12.123  21.794   3.207  1.00  0.00     0.131 A 
HETATM   18  O1  UNL     1      11.159  22.563   2.714  1.00  0.00    -0.302 OA
HETATM   19  C7  UNL     1      10.580  21.984   1.702  1.00  0.00     0.120 A 
HETATM   20  C13 UNL     1      11.179  20.769   1.504  1.00  0.00     0.054 A 
HETATM   21  C14 UNL     1      12.171  20.645   2.470  1.00  0.00     0.013 A 
BRANCH  19  22
HETATM   22  C8  UNL     1       9.480  22.521   0.906  1.00  0.00     0.139 A 
HETATM   23  N7  UNL     1       8.890  23.680   1.179  1.00  0.00    -0.349 N 
HETATM   24  C9  UNL     1       7.873  24.129   0.406  1.00  0.00     0.106 A 
ATOM     25  H7  UNL     1       9.205  24.234   1.976  1.00  0.00     0.167 HD
HETATM   26  C10 UNL     1       7.379  23.456  -0.687  1.00  0.00     0.037 A 
HETATM   27  C12 UNL     1       8.037  22.232  -0.936  1.00  0.00     0.106 A 
HETATM   28  N10 UNL     1       9.034  21.826  -0.150  1.00  0.00    -0.349 N 
ATOM     29  H10 UNL     1       9.483  20.936  -0.365  1.00  0.00     0.167 HD
BRANCH  26  30
HETATM   30  C11 UNL     1       6.302  23.884  -1.544  1.00  0.00     0.148 C 
HETATM   31  N8  UNL     1       6.103  25.322  -1.662  1.00  0.00    -0.080 NA
HETATM   32  N9  UNL     1       5.517  23.185  -2.199  1.00  0.00    -0.255 N 
ATOM     33  H9  UNL     1       4.826  23.704  -2.740  1.00  0.00     0.195 HD
BRANCH  32  34
HETATM   34  O2  UNL     1       5.439  21.862  -2.302  1.00  0.00    -0.288 OA
ATOM     35  H2  UNL     1       5.918  21.267  -2.868  1.00  0.00     0.244 HD
ENDBRANCH  32  34
ENDBRANCH  26  30
ENDBRANCH  19  22
BRANCH  21  36
HETATM   36  C15 UNL     1      13.074  19.507   2.644  1.00  0.00     0.177 C 
BRANCH  36  37
HETATM   37  O3  UNL     1      14.420  19.819   2.479  1.00  0.00    -0.389 OA
ATOM     38  H3  UNL     1      14.793  19.507   1.663  1.00  0.00     0.210 HD
ENDBRANCH  36  37
BRANCH  36  39
HETATM   39  C16 UNL     1      12.920  18.881   4.025  1.00  0.00     0.200 C 
BRANCH  39  40
HETATM   40  O4  UNL     1      12.067  17.790   3.947  1.00  0.00    -0.398 OA
ATOM     41  H4  UNL     1      12.558  16.993   4.110  1.00  0.00     0.209 HD
ENDBRANCH  39  40
ENDBRANCH  36  39
ENDBRANCH  21  36
ENDBRANCH   5  17
TORSDOF 11
ENDMDL
MODEL 3
REMARK VINA RESULT: -7.500548739      1.860      3.342
REMARK  11 active torsions:
REMARK  status: ('A' for Active; 'I' for Inactive)
REMARK    1  A    between atoms: C2_5  and  N3_6 
REMARK    2  A    between atoms: C2_5  and  C6_17 
REMARK    3  A    between atoms: N3_6  and  N4_8 
REMARK    4  A    between atoms: N4_8  and  C3_10 
REMARK    5  A    between atoms: C7_19  and  C8_20 
REMARK    6  A    between atoms: C10_24  and  C11_25 
REMARK    7  A    between atoms: N9_27  and  O2_29 
REMARK    8  A    between atoms: C14_35  and  C15_36 
REMARK    9  A    between atoms: C15_36  and  O3_37 
REMARK   10  A    between atoms: C15_36  and  C16_39 
REMARK   11  A    between atoms: C16_39  and  O4_40 
ROOT
HETATM    1  N1  UNL     1       9.854  21.128   6.218  1.00  0.00    -0.172 NA
HETATM    2  C1  UNL     1      10.891  21.676   6.099  1.00  0.00     0.183 C 
HETATM    3  N2  UNL     1      12.119  22.317   5.986  1.00  0.00    -0.276 N 
ATOM      4  H2  UNL     1      12.618  22.616   6.824  1.00  0.00     0.179 HD
HETATM    5  C2  UNL     1      12.621  22.532   4.834  1.00  0.00     0.164 C 
ENDROOT
BRANCH   5   6
HETATM    6  N3  UNL     1      13.881  23.192   4.773  1.00  0.00    -0.280 N 
ATOM      7  H3  UNL     1      14.552  22.901   4.061  1.00  0.00     0.188 HD
BRANCH   6   8
HETATM    8  N4  UNL     1      14.232  24.205   5.637  1.00  0.00    -0.270 N 
ATOM      9  H4  UNL     1      13.529  24.886   5.925  1.00  0.00     0.190 HD
BRANCH   8  10
HETATM   10  C3  UNL     1      15.566  24.315   6.133  1.00  0.00     0.190 C 
HETATM   11  N5  UNL     1      16.106  25.414   6.526  1.00  0.00    -0.360 N 
HETATM   12  C4  UNL     1      17.471  25.207   6.976  1.00  0.00     0.142 C 
ATOM     13  H5  UNL     1      15.635  26.318   6.522  1.00  0.00     0.162 HD
HETATM   14  C5  UNL     1      17.567  23.687   7.165  1.00  0.00     0.142 C 
HETATM   15  N6  UNL     1      16.505  23.264   6.274  1.00  0.00    -0.360 N 
ATOM     16  H6  UNL     1      16.443  22.353   5.821  1.00  0.00     0.162 HD
ENDBRANCH   8  10
ENDBRANCH   6   8
ENDBRANCH   5   6
BRANCH   5  17
HETATM   17  C6  UNL     1      11.927  22.128   3.641  1.00  0.00     0.131 A 
HETATM   18  O1  UNL     1      10.930  22.817   3.098  1.00  0.00    -0.302 OA
HETATM   19  C7  UNL     1      10.486  22.222   2.028  1.00  0.00     0.120 A 
HETATM   20  C13 UNL     1      11.217  21.080   1.841  1.00  0.00     0.054 A 
HETATM   21  C14 UNL     1      12.143  21.017   2.876  1.00  0.00     0.013 A 
BRANCH  19  22
HETATM   22  C8  UNL     1       9.400  22.679   1.166  1.00  0.00     0.139 A 
HETATM   23  N7  UNL     1       8.653  23.742   1.448  1.00  0.00    -0.349 N 
HETATM   24  C9  UNL     1       7.657  24.119   0.612  1.00  0.00     0.106 A 
ATOM     25  H7  UNL     1       8.831  24.275   2.299  1.00  0.00     0.167 HD
HETATM   26  C10 UNL     1       7.341  23.466  -0.557  1.00  0.00     0.037 A 
HETATM   27  C12 UNL     1       8.162  22.346  -0.812  1.00  0.00     0.106 A 
HETATM   28  N10 UNL     1       9.131  22.007   0.037  1.00  0.00    -0.349 N 
ATOM     29  H10 UNL     1       9.701  21.191  -0.184  1.00  0.00     0.167 HD
BRANCH  26  30
HETATM   30  C11 UNL     1       6.296  23.821  -1.483  1.00  0.00     0.148 C 
HETATM   31  N8  UNL     1       6.054  25.246  -1.670  1.00  0.00    -0.080 NA
HETATM   32  N9  UNL     1       5.570  23.070  -2.147  1.00  0.00    -0.255 N 
ATOM     33  H9  UNL     1       4.890  23.542  -2.743  1.00  0.00     0.195 HD
BRANCH  32  34
HETATM   34  O2  UNL     1       5.542  21.742  -2.200  1.00  0.00    -0.288 OA
ATOM     35  H2  UNL     1       4.943  21.129  -1.789  1.00  0.00     0.244 HD
ENDBRANCH  32  34
ENDBRANCH  26  30
ENDBRANCH  19  22
BRANCH  21  36
HETATM   36  C15 UNL     1      13.139  19.966   3.085  1.00  0.00     0.177 C 
BRANCH  36  37
HETATM   37  O3  UNL     1      14.436  20.440   3.261  1.00  0.00    -0.389 OA
ATOM     38  H3  UNL     1      15.110  19.791   3.102  1.00  0.00     0.210 HD
ENDBRANCH  36  37
BRANCH  36  39
HETATM   39  C16 UNL     1      12.800  19.112   4.301  1.00  0.00     0.200 C 
BRANCH  39  40
HETATM   40  O4  UNL     1      12.025  18.031   3.905  1.00  0.00    -0.398 OA
ATOM     41  H4  UNL     1      11.105  18.262   3.966  1.00  0.00     0.209 HD
ENDBRANCH  39  40
ENDBRANCH  36  39
ENDBRANCH  21  36
ENDBRANCH   5  17
TORSDOF 11
ENDMDL
MODEL 4
REMARK VINA RESULT: -7.437889213      1.784      2.557
REMARK  11 active torsions:
REMARK  status: ('A' for Active; 'I' for Inactive)
REMARK    1  A    between atoms: C2_5  and  N3_6 
REMARK    2  A    between atoms: C2_5  and  C6_17 
REMARK    3  A    between atoms: N3_6  and  N4_8 
REMARK    4  A    between atoms: N4_8  and  C3_10 
REMARK    5  A    between atoms: C7_19  and  C8_20 
REMARK    6  A    between atoms: C10_24  and  C11_25 
REMARK    7  A    between atoms: N9_27  and  O2_29 
REMARK    8  A    between atoms: C14_35  and  C15_36 
REMARK    9  A    between atoms: C15_36  and  O3_37 
REMARK   10  A    between atoms: C15_36  and  C16_39 
REMARK   11  A    between atoms: C16_39  and  O4_40 
ROOT
HETATM    1  N1  UNL     1      12.955  18.284   3.200  1.00  0.00    -0.172 NA
HETATM    2  C1  UNL     1      12.782  18.850   4.220  1.00  0.00     0.183 C 
HETATM    3  N2  UNL     1      12.593  19.497   5.436  1.00  0.00    -0.276 N 
ATOM      4  H2  UNL     1      12.737  18.992   6.311  1.00  0.00     0.179 HD
HETATM    5  C2  UNL     1      12.238  20.722   5.456  1.00  0.00     0.164 C 
ENDROOT
BRANCH   5   6
HETATM    6  N3  UNL     1      12.058  21.338   6.727  1.00  0.00    -0.280 N 
ATOM      7  H3  UNL     1      11.170  21.797   6.927  1.00  0.00     0.188 HD
BRANCH   6   8
HETATM    8  N4  UNL     1      13.036  21.340   7.697  1.00  0.00    -0.270 N 
ATOM      9  H4  UNL     1      13.876  21.902   7.563  1.00  0.00     0.190 HD
BRANCH   8  10
HETATM   10  C3  UNL     1      12.888  20.563   8.886  1.00  0.00     0.190 C 
HETATM   11  N5  UNL     1      13.001  21.032  10.078  1.00  0.00    -0.360 N 
HETATM   12  C4  UNL     1      12.797  20.001  11.079  1.00  0.00     0.142 C 
ATOM     13  H5  UNL     1      13.207  22.007  10.293  1.00  0.00     0.162 HD
HETATM   14  C5  UNL     1      12.140  18.856  10.296  1.00  0.00     0.142 C 
HETATM   15  N6  UNL     1      12.602  19.178   8.961  1.00  0.00    -0.360 N 
ATOM     16  H6  UNL     1      12.706  18.512   8.196  1.00  0.00     0.162 HD
ENDBRANCH   8  10
ENDBRANCH   6   8
ENDBRANCH   5   6
BRANCH   5  17
HETATM   17  C6  UNL     1      12.020  21.446   4.233  1.00  0.00     0.131 A 
HETATM   18  O1  UNL     1      10.824  21.623   3.684  1.00  0.00    -0.302 OA
HETATM   19  C7  UNL     1      10.919  22.313   2.583  1.00  0.00     0.120 A 
HETATM   20  C13 UNL     1      12.239  22.613   2.380  1.00  0.00     0.054 A 
HETATM   21  C14 UNL     1      12.948  22.057   3.439  1.00  0.00     0.013 A 
BRANCH  19  22
HETATM   22  C8  UNL     1       9.820  22.705   1.705  1.00  0.00     0.139 A 
HETATM   23  N7  UNL     1       8.835  23.507   2.096  1.00  0.00    -0.349 N 
HETATM   24  C9  UNL     1       7.841  23.837   1.239  1.00  0.00     0.106 A 
ATOM     25  H7  UNL     1       8.828  23.876   3.047  1.00  0.00     0.167 HD
HETATM   26  C10 UNL     1       7.763  23.393  -0.061  1.00  0.00     0.037 A 
HETATM   27  C12 UNL     1       8.831  22.545  -0.428  1.00  0.00     0.106 A 
HETATM   28  N10 UNL     1       9.790  22.244   0.446  1.00  0.00    -0.349 N 
ATOM     29  H10 UNL     1      10.543  21.629   0.141  1.00  0.00     0.167 HD
BRANCH  26  30
HETATM   30  C11 UNL     1       6.732  23.710  -1.017  1.00  0.00     0.148 C 
HETATM   31  N8  UNL     1       6.450  25.126  -1.217  1.00  0.00    -0.080 NA
HETATM   32  N9  UNL     1       6.049  22.933  -1.696  1.00  0.00    -0.255 N 
ATOM     33  H9  UNL     1       5.371  23.380  -2.313  1.00  0.00     0.195 HD
BRANCH  32  34
HETATM   34  O2  UNL     1       6.065  21.605  -1.743  1.00  0.00    -0.288 OA
ATOM     35  H2  UNL     1       5.761  21.017  -2.425  1.00  0.00     0.244 HD
ENDBRANCH  32  34
ENDBRANCH  26  30
ENDBRANCH  19  22
BRANCH  21  36
HETATM   36  C15 UNL     1      14.395  22.126   3.643  1.00  0.00     0.177 C 
BRANCH  36  37
HETATM   37  O3  UNL     1      15.097  22.654   2.563  1.00  0.00    -0.389 OA
ATOM     38  H3  UNL     1      16.040  22.652   2.676  1.00  0.00     0.210 HD
ENDBRANCH  36  37
BRANCH  36  39
HETATM   39  C16 UNL     1      14.745  22.968   4.865  1.00  0.00     0.200 C 
BRANCH  39  40
HETATM   40  O4  UNL     1      15.189  22.140   5.886  1.00  0.00    -0.398 OA
ATOM     41  H4  UNL     1      14.516  21.501   6.089  1.00  0.00     0.209 HD
ENDBRANCH  39  40
ENDBRANCH  36  39
ENDBRANCH  21  36
ENDBRANCH   5  17
TORSDOF 11
ENDMDL
MODEL 5
REMARK VINA RESULT: -7.422066355      1.866      2.805
REMARK  11 active torsions:
REMARK  status: ('A' for Active; 'I' for Inactive)
REMARK    1  A    between atoms: C2_5  and  N3_6 
REMARK    2  A    between atoms: C2_5  and  C6_17 
REMARK    3  A    between atoms: N3_6  and  N4_8 
REMARK    4  A    between atoms: N4_8  and  C3_10 
REMARK    5  A    between atoms: C7_19  and  C8_20 
REMARK    6  A    between atoms: C10_24  and  C11_25 
REMARK    7  A    between atoms: N9_27  and  O2_29 
REMARK    8  A    between atoms: C14_35  and  C15_36 
REMARK    9  A    between atoms: C15_36  and  O3_37 
REMARK   10  A    between atoms: C15_36  and  C16_39 
REMARK   11  A    between atoms: C16_39  and  O4_40 
ROOT
HETATM    1  N1  UNL     1      13.872  18.832   2.123  1.00  0.00    -0.172 NA
HETATM    2  C1  UNL     1      13.595  18.861   3.269  1.00  0.00     0.183 C 
HETATM    3  N2  UNL     1      13.287  18.874   4.625  1.00  0.00    -0.276 N 
ATOM      4  H2  UNL     1      13.535  18.078   5.213  1.00  0.00     0.179 HD
HETATM    5  C2  UNL     1      12.694  19.883   5.132  1.00  0.00     0.164 C 
ENDROOT
BRANCH   5   6
HETATM    6  N3  UNL     1      12.402  19.847   6.525  1.00  0.00    -0.280 N 
ATOM      7  H3  UNL     1      11.431  19.937   6.824  1.00  0.00     0.188 HD
BRANCH   6   8
HETATM    8  N4  UNL     1      13.377  19.697   7.485  1.00  0.00    -0.270 N 
ATOM      9  H4  UNL     1      14.327  19.453   7.204  1.00  0.00     0.190 HD
BRANCH   8  10
HETATM   10  C3  UNL     1      13.076  19.879   8.869  1.00  0.00     0.190 C 
HETATM   11  N5  UNL     1      12.675  18.942   9.654  1.00  0.00    -0.360 N 
HETATM   12  C4  UNL     1      12.451  19.433  11.001  1.00  0.00     0.142 C 
ATOM     13  H5  UNL     1      12.531  17.974   9.365  1.00  0.00     0.162 HD
HETATM   14  C5  UNL     1      13.169  20.790  11.020  1.00  0.00     0.142 C 
HETATM   15  N6  UNL     1      13.161  21.088   9.601  1.00  0.00    -0.360 N 
ATOM     16  H6  UNL     1      13.210  22.022   9.195  1.00  0.00     0.162 HD
ENDBRANCH   8  10
ENDBRANCH   6   8
ENDBRANCH   5   6
BRANCH   5  17
HETATM   17  C6  UNL     1      12.327  21.009   4.317  1.00  0.00     0.131 A 
HETATM   18  O1  UNL     1      11.220  21.061   3.586  1.00  0.00    -0.302 OA
HETATM   19  C7  UNL     1      11.141  22.194   2.948  1.00  0.00     0.120 A 
HETATM   20  C13 UNL     1      12.245  22.939   3.263  1.00  0.00     0.054 A 
HETATM   21  C14 UNL     1      13.009  22.180   4.142  1.00  0.00     0.013 A 
BRANCH  19  22
HETATM   22  C8  UNL     1      10.069  22.613   2.049  1.00  0.00     0.139 A 
HETATM   23  N7  UNL     1       9.113  23.462   2.413  1.00  0.00    -0.349 N 
HETATM   24  C9  UNL     1       8.143  23.816   1.537  1.00  0.00     0.106 A 
ATOM     25  H7  UNL     1       9.110  23.849   3.357  1.00  0.00     0.167 HD
HETATM   26  C10 UNL     1       8.062  23.350   0.245  1.00  0.00     0.037 A 
HETATM   27  C12 UNL     1       9.099  22.452  -0.092  1.00  0.00     0.106 A 
HETATM   28  N10 UNL     1      10.035  22.130   0.799  1.00  0.00    -0.349 N 
ATOM     29  H10 UNL     1      10.766  21.479   0.515  1.00  0.00     0.167 HD
BRANCH  26  30
HETATM   30  C11 UNL     1       7.056  23.690  -0.729  1.00  0.00     0.148 C 
HETATM   31  N8  UNL     1       6.776  25.109  -0.900  1.00  0.00    -0.080 NA
HETATM   32  N9  UNL     1       6.393  22.930  -1.446  1.00  0.00    -0.255 N 
ATOM     33  H9  UNL     1       5.730  23.391  -2.068  1.00  0.00     0.195 HD
BRANCH  32  34
HETATM   34  O2  UNL     1       6.414  21.603  -1.527  1.00  0.00    -0.288 OA
ATOM     35  H2  UNL     1       6.682  21.042  -2.246  1.00  0.00     0.244 HD
ENDBRANCH  32  34
ENDBRANCH  26  30
ENDBRANCH  19  22
BRANCH  21  36
HETATM   36  C15 UNL     1      14.282  22.574   4.747  1.00  0.00     0.177 C 
BRANCH  36  37
HETATM   37  O3  UNL     1      15.165  23.187   3.863  1.00  0.00    -0.389 OA
ATOM     38  H3  UNL     1      15.998  23.425   4.251  1.00  0.00     0.210 HD
ENDBRANCH  36  37
BRANCH  36  39
HETATM   39  C16 UNL     1      14.069  23.533   5.913  1.00  0.00     0.200 C 
BRANCH  39  40
HETATM   40  O4  UNL     1      13.647  22.822   7.026  1.00  0.00    -0.398 OA
ATOM     41  H4  UNL     1      12.791  22.447   6.856  1.00  0.00     0.209 HD
ENDBRANCH  39  40
ENDBRANCH  36  39
ENDBRANCH  21  36
ENDBRANCH   5  17
TORSDOF 11
ENDMDL
