MODEL 1
REMARK VINA RESULT: -8.336081733      0.000      0.000
REMARK  8 active torsions:
REMARK  status: ('A' for Active; 'I' for Inactive)
REMARK    1  A    between atoms: N1_2  and  N2_3 
REMARK    2  A    between atoms: N1_2  and  C8_22 
REMARK    3  A    between atoms: N3_5  and  C2_7 
REMARK    4  A    between atoms: C4_9  and  N4_10 
REMARK    5  A    between atoms: C7_15  and  S1_16 
REMARK    6  A    between atoms: S1_16  and  N5_17 
REMARK    7  A    between atoms: C9_25  and  N7_26 
REMARK       I    between atoms: N7_26  and  C10_28 
REMARK       I    between atoms: C10_28  and  N8_29 
REMARK       I    between atoms: C10_28  and  N9_33 
REMARK    8  A    between atoms: C11_39  and  N11_40 
ROOT
HETATM    1  C8  UNL     1      11.597  21.426   3.475  1.00  0.00     0.729 A 
HETATM    2  N6  UNL     1      11.120  20.783   4.546  1.00  0.00    -0.020 N 
ATOM      3  H6  UNL     1      10.586  19.927   4.391  1.00  0.00     0.203 HD
HETATM    4  C9  UNL     1      11.301  21.196   5.826  1.00  0.00     0.710 A 
HETATM    5  N10 UNL     1      12.004  22.320   5.994  1.00  0.00    -0.022 N 
ATOM      6  H10 UNL     1      12.163  22.666   6.941  1.00  0.00     0.203 HD
HETATM    7  C11 UNL     1      12.514  23.018   4.943  1.00  0.00     0.705 A 
HETATM    8  N12 UNL     1      12.298  22.550   3.694  1.00  0.00    -0.020 N 
ATOM      9  H12 UNL     1      12.677  23.064   2.898  1.00  0.00     0.203 HD
ENDROOT
BRANCH   1  10
HETATM   10  N1  UNL     1      11.387  20.974   2.121  1.00  0.00    -0.113 N 
HETATM   11  C1  UNL     1      11.151  19.571   1.915  1.00  0.00     0.199 C 
BRANCH  10  12
HETATM   12  N2  UNL     1      11.439  21.888   1.127  1.00  0.00    -0.226 N 
HETATM   13  N3  UNL     1      10.685  22.465   0.393  1.00  0.00    -0.284 N 
ATOM     14  H3  UNL     1      11.173  23.103  -0.236  1.00  0.00     0.188 HD
ATOM     15  H2  UNL     1      12.402  22.173   0.950  1.00  0.00     0.209 HD
BRANCH  13  16
HETATM   16  C2  UNL     1       9.308  22.478   0.188  1.00  0.00     0.075 A 
HETATM   17  C3  UNL     1       8.699  21.764  -0.821  1.00  0.00     0.068 A 
HETATM   18  C4  UNL     1       7.329  21.780  -1.024  1.00  0.00     0.105 A 
HETATM   19  C5  UNL     1       6.563  22.542  -0.180  1.00  0.00     0.038 A 
HETATM   20  C6  UNL     1       7.118  23.282   0.853  1.00  0.00     0.030 A 
HETATM   21  C7  UNL     1       8.502  23.230   1.014  1.00  0.00     0.107 A 
BRANCH  18  22
HETATM   22  N4  UNL     1       6.726  21.024  -2.082  1.00  0.00    -0.116 N 
HETATM   23  O1  UNL     1       7.207  19.951  -2.439  1.00  0.00    -0.532 OA
HETATM   24  O2  UNL     1       5.602  21.507  -2.696  1.00  0.00    -0.532 OA
ENDBRANCH  18  22
BRANCH  21  25
HETATM   25  S1  UNL     1       9.272  24.143   2.293  1.00  0.00     0.259 S 
HETATM   26  O3  UNL     1      10.568  24.708   1.797  1.00  0.00    -0.201 OA
HETATM   27  O4  UNL     1       9.456  23.302   3.538  1.00  0.00    -0.201 OA
BRANCH  25  28
HETATM   28  N5  UNL     1       8.246  25.461   2.737  1.00  0.00    -0.324 N 
ATOM     29  H52 UNL     1       7.266  25.551   2.469  1.00  0.00     0.169 HD
ATOM     30  H51 UNL     1       8.781  26.121   3.302  1.00  0.00     0.169 HD
ENDBRANCH  25  28
ENDBRANCH  21  25
ENDBRANCH  13  16
ENDBRANCH  10  12
ENDBRANCH   1  10
BRANCH   4  31
HETATM   31  N7  UNL     1      10.819  20.534   6.814  1.00  0.00    -0.172 N 
HETATM   32  C10 UNL     1      11.524  20.479   8.071  1.00  0.00     0.494 C 
HETATM   33  N8  UNL     1      10.652  19.840   9.081  1.00  0.00    -0.032 N 
HETATM   34  N9  UNL     1      12.710  19.612   7.951  1.00  0.00    -0.032 N 
ATOM     35  H83 UNL     1       9.746  20.303   9.162  1.00  0.00     0.278 HD
ATOM     36  H82 UNL     1      10.316  18.924   8.783  1.00  0.00     0.278 HD
ATOM     37  H81 UNL     1      11.150  19.802   9.971  1.00  0.00     0.278 HD
ATOM     38  H93 UNL     1      12.470  18.681   7.607  1.00  0.00     0.278 HD
ATOM     39  H92 UNL     1      13.318  19.901   7.185  1.00  0.00     0.278 HD
ATOM     40  H91 UNL     1      13.208  19.573   8.840  1.00  0.00     0.278 HD
ATOM     41  H7  UNL     1       9.932  20.042   6.709  1.00  0.00     0.181 HD
ENDBRANCH   4  31
BRANCH   7  42
HETATM   42  N11 UNL     1      13.173  24.082   5.197  1.00  0.00    -0.234 N 
ATOM     43 2H11 UNL     1      13.382  24.405   6.142  1.00  0.00     0.174 HD
ATOM     44 1H11 UNL     1      13.506  24.635   4.408  1.00  0.00     0.174 HD
ENDBRANCH   7  42
TORSDOF 8
ENDMDL
MODEL 2
REMARK VINA RESULT: -8.140661469      3.725      7.830
REMARK  8 active torsions:
REMARK  status: ('A' for Active; 'I' for Inactive)
REMARK    1  A    between atoms: N1_2  and  N2_3 
REMARK    2  A    between atoms: N1_2  and  C8_22 
REMARK    3  A    between atoms: N3_5  and  C2_7 
REMARK    4  A    between atoms: C4_9  and  N4_10 
REMARK    5  A    between atoms: C7_15  and  S1_16 
REMARK    6  A    between atoms: S1_16  and  N5_17 
REMARK    7  A    between atoms: C9_25  and  N7_26 
REMARK       I    between atoms: N7_26  and  C10_28 
REMARK       I    between atoms: C10_28  and  N8_29 
REMARK       I    between atoms: C10_28  and  N9_33 
REMARK    8  A    between atoms: C11_39  and  N11_40 
ROOT
HETATM    1  C8  UNL     1      10.652  23.079   1.994  1.00  0.00     0.729 A 
HETATM    2  N6  UNL     1       9.413  22.865   1.539  1.00  0.00    -0.020 N 
ATOM      3  H6  UNL     1       9.196  21.942   1.162  1.00  0.00     0.203 HD
HETATM    4  C9  UNL     1       8.427  23.796   1.547  1.00  0.00     0.710 A 
HETATM    5  N10 UNL     1       8.744  24.994   2.048  1.00  0.00    -0.022 N 
ATOM      6  H10 UNL     1       8.031  25.724   2.072  1.00  0.00     0.203 HD
HETATM    7  C11 UNL     1       9.987  25.272   2.525  1.00  0.00     0.705 A 
HETATM    8  N12 UNL     1      10.924  24.299   2.488  1.00  0.00    -0.020 N 
ATOM      9  H12 UNL     1      11.860  24.495   2.845  1.00  0.00     0.203 HD
ENDROOT
BRANCH   1  10
HETATM   10  N1  UNL     1      11.690  22.077   1.969  1.00  0.00    -0.113 N 
HETATM   11  C1  UNL     1      11.316  20.738   1.608  1.00  0.00     0.199 C 
BRANCH  10  12
HETATM   12  N2  UNL     1      12.946  22.451   2.299  1.00  0.00    -0.226 N 
HETATM   13  N3  UNL     1      13.722  22.306   3.204  1.00  0.00    -0.284 N 
ATOM     14  H3  UNL     1      14.606  22.785   3.032  1.00  0.00     0.188 HD
ATOM     15  H2  UNL     1      13.356  23.026   1.563  1.00  0.00     0.209 HD
BRANCH  13  16
HETATM   16  C2  UNL     1      13.712  21.646   4.429  1.00  0.00     0.075 A 
HETATM   17  C3  UNL     1      12.992  22.099   5.514  1.00  0.00     0.068 A 
HETATM   18  C4  UNL     1      12.985  21.441   6.732  1.00  0.00     0.105 A 
HETATM   19  C5  UNL     1      13.730  20.295   6.848  1.00  0.00     0.038 A 
HETATM   20  C6  UNL     1      14.474  19.790   5.792  1.00  0.00     0.030 A 
HETATM   21  C7  UNL     1      14.445  20.491   4.588  1.00  0.00     0.107 A 
BRANCH  18  22
HETATM   22  N4  UNL     1      12.224  21.937   7.840  1.00  0.00    -0.116 N 
HETATM   23  O1  UNL     1      11.892  23.120   7.894  1.00  0.00    -0.532 OA
HETATM   24  O2  UNL     1      11.867  21.081   8.846  1.00  0.00    -0.532 OA
ENDBRANCH  18  22
BRANCH  21  25
HETATM   25  S1  UNL     1      15.366  19.915   3.215  1.00  0.00     0.259 S 
HETATM   26  O3  UNL     1      16.291  20.994   2.742  1.00  0.00    -0.201 OA
HETATM   27  O4  UNL     1      14.458  19.418   2.111  1.00  0.00    -0.201 OA
BRANCH  25  28
HETATM   28  N5  UNL     1      16.324  18.564   3.709  1.00  0.00    -0.324 N 
ATOM     29  H52 UNL     1      16.009  17.828   4.341  1.00  0.00     0.169 HD
ATOM     30  H51 UNL     1      17.242  18.630   3.267  1.00  0.00     0.169 HD
ENDBRANCH  25  28
ENDBRANCH  21  25
ENDBRANCH  13  16
ENDBRANCH  10  12
ENDBRANCH   1  10
BRANCH   4  31
HETATM   31  N7  UNL     1       7.254  23.529   1.098  1.00  0.00    -0.172 N 
HETATM   32  C10 UNL     1       7.009  23.476  -0.322  1.00  0.00     0.494 C 
HETATM   33  N8  UNL     1       5.648  22.943  -0.553  1.00  0.00    -0.032 N 
HETATM   34  N9  UNL     1       7.015  24.837  -0.889  1.00  0.00    -0.032 N 
ATOM     35  H83 UNL     1       5.501  22.041  -0.098  1.00  0.00     0.278 HD
ATOM     36  H82 UNL     1       4.933  23.472  -0.054  1.00  0.00     0.278 HD
ATOM     37  H81 UNL     1       5.475  22.905  -1.557  1.00  0.00     0.278 HD
ATOM     38  H93 UNL     1       6.357  25.453  -0.411  1.00  0.00     0.278 HD
ATOM     39  H92 UNL     1       7.876  25.338  -0.669  1.00  0.00     0.278 HD
ATOM     40  H91 UNL     1       6.842  24.799  -1.893  1.00  0.00     0.278 HD
ATOM     41  H7  UNL     1       6.491  23.353   1.751  1.00  0.00     0.181 HD
ENDBRANCH   4  31
BRANCH   7  42
HETATM   42  N11 UNL     1      10.202  26.444   2.984  1.00  0.00    -0.234 N 
ATOM     43 2H11 UNL     1       9.504  26.989   3.491  1.00  0.00     0.174 HD
ATOM     44 1H11 UNL     1      11.123  26.853   2.833  1.00  0.00     0.174 HD
ENDBRANCH   7  42
TORSDOF 8
ENDMDL
MODEL 3
REMARK VINA RESULT: -8.061104637      1.123      2.503
REMARK  8 active torsions:
REMARK  status: ('A' for Active; 'I' for Inactive)
REMARK    1  A    between atoms: N1_2  and  N2_3 
REMARK    2  A    between atoms: N1_2  and  C8_22 
REMARK    3  A    between atoms: N3_5  and  C2_7 
REMARK    4  A    between atoms: C4_9  and  N4_10 
REMARK    5  A    between atoms: C7_15  and  S1_16 
REMARK    6  A    between atoms: S1_16  and  N5_17 
REMARK    7  A    between atoms: C9_25  and  N7_26 
REMARK       I    between atoms: N7_26  and  C10_28 
REMARK       I    between atoms: C10_28  and  N8_29 
REMARK       I    between atoms: C10_28  and  N9_33 
REMARK    8  A    between atoms: C11_39  and  N11_40 
ROOT
HETATM    1  C8  UNL     1      11.744  21.555   3.423  1.00  0.00     0.729 A 
HETATM    2  N6  UNL     1      12.775  22.335   3.765  1.00  0.00    -0.020 N 
ATOM      3  H6  UNL     1      13.419  22.623   3.029  1.00  0.00     0.203 HD
HETATM    4  C9  UNL     1      13.018  22.767   5.028  1.00  0.00     0.710 A 
HETATM    5  N10 UNL     1      12.155  22.371   5.968  1.00  0.00    -0.022 N 
ATOM      6  H10 UNL     1      12.301  22.674   6.932  1.00  0.00     0.203 HD
HETATM    7  C11 UNL     1      11.087  21.578   5.682  1.00  0.00     0.705 A 
HETATM    8  N12 UNL     1      10.902  21.183   4.403  1.00  0.00    -0.020 N 
ATOM      9  H12 UNL     1      10.105  20.589   4.175  1.00  0.00     0.203 HD
ENDROOT
BRANCH   1  10
HETATM   10  N1  UNL     1      11.507  21.099   2.075  1.00  0.00    -0.113 N 
HETATM   11  C1  UNL     1      11.259  19.698   1.879  1.00  0.00     0.199 C 
BRANCH  10  12
HETATM   12  N2  UNL     1      11.545  22.011   1.078  1.00  0.00    -0.226 N 
HETATM   13  N3  UNL     1      10.780  22.590   0.356  1.00  0.00    -0.284 N 
ATOM     14  H3  UNL     1      11.260  23.223  -0.284  1.00  0.00     0.188 HD
ATOM     15  H2  UNL     1      12.506  22.288   0.880  1.00  0.00     0.209 HD
BRANCH  13  16
HETATM   16  C2  UNL     1       9.400  22.611   0.178  1.00  0.00     0.075 A 
HETATM   17  C3  UNL     1       8.750  21.775  -0.704  1.00  0.00     0.068 A 
HETATM   18  C4  UNL     1       7.377  21.799  -0.881  1.00  0.00     0.105 A 
HETATM   19  C5  UNL     1       6.649  22.697  -0.142  1.00  0.00     0.038 A 
HETATM   20  C6  UNL     1       7.247  23.564   0.761  1.00  0.00     0.030 A 
HETATM   21  C7  UNL     1       8.632  23.497   0.901  1.00  0.00     0.107 A 
BRANCH  18  22
HETATM   22  N4  UNL     1       6.731  20.915  -1.805  1.00  0.00    -0.116 N 
HETATM   23  O1  UNL     1       7.137  19.764  -1.961  1.00  0.00    -0.532 OA
HETATM   24  O2  UNL     1       5.651  21.360  -2.518  1.00  0.00    -0.532 OA
ENDBRANCH  18  22
BRANCH  21  25
HETATM   25  S1  UNL     1       9.453  24.566   2.018  1.00  0.00     0.259 S 
HETATM   26  O3  UNL     1      10.405  25.444   1.264  1.00  0.00    -0.201 OA
HETATM   27  O4  UNL     1      10.144  23.789   3.118  1.00  0.00    -0.201 OA
BRANCH  25  28
HETATM   28  N5  UNL     1       8.284  25.578   2.788  1.00  0.00    -0.324 N 
ATOM     29  H52 UNL     1       8.508  26.344   3.424  1.00  0.00     0.169 HD
ATOM     30  H51 UNL     1       7.350  25.282   2.504  1.00  0.00     0.169 HD
ENDBRANCH  25  28
ENDBRANCH  21  25
ENDBRANCH  13  16
ENDBRANCH  10  12
ENDBRANCH   1  10
BRANCH   4  31
HETATM   31  N7  UNL     1      14.025  23.518   5.293  1.00  0.00    -0.172 N 
HETATM   32  C10 UNL     1      15.369  23.010   5.170  1.00  0.00     0.494 C 
HETATM   33  N8  UNL     1      16.320  24.133   5.324  1.00  0.00    -0.032 N 
HETATM   34  N9  UNL     1      15.660  22.075   6.272  1.00  0.00    -0.032 N 
ATOM     35  H83 UNL     1      16.131  24.896   4.674  1.00  0.00     0.278 HD
ATOM     36  H82 UNL     1      16.177  24.648   6.193  1.00  0.00     0.278 HD
ATOM     37  H81 UNL     1      17.271  23.773   5.237  1.00  0.00     0.278 HD
ATOM     38  H93 UNL     1      15.495  22.497   7.185  1.00  0.00     0.278 HD
ATOM     39  H92 UNL     1      14.973  21.323   6.327  1.00  0.00     0.278 HD
ATOM     40  H91 UNL     1      16.611  21.716   6.184  1.00  0.00     0.278 HD
ATOM     41  H7  UNL     1      13.872  24.480   5.594  1.00  0.00     0.181 HD
ENDBRANCH   4  31
BRANCH   7  42
HETATM   42  N11 UNL     1      10.314  21.247   6.644  1.00  0.00    -0.234 N 
ATOM     43 2H11 UNL     1       9.595  21.861   7.026  1.00  0.00     0.174 HD
ATOM     44 1H11 UNL     1      10.427  20.318   7.047  1.00  0.00     0.174 HD
ENDBRANCH   7  42
TORSDOF 8
ENDMDL
MODEL 4
REMARK VINA RESULT: -8.036761852      1.384      1.743
REMARK  8 active torsions:
REMARK  status: ('A' for Active; 'I' for Inactive)
REMARK    1  A    between atoms: N1_2  and  N2_3 
REMARK    2  A    between atoms: N1_2  and  C8_22 
REMARK    3  A    between atoms: N3_5  and  C2_7 
REMARK    4  A    between atoms: C4_9  and  N4_10 
REMARK    5  A    between atoms: C7_15  and  S1_16 
REMARK    6  A    between atoms: S1_16  and  N5_17 
REMARK    7  A    between atoms: C9_25  and  N7_26 
REMARK       I    between atoms: N7_26  and  C10_28 
REMARK       I    between atoms: C10_28  and  N8_29 
REMARK       I    between atoms: C10_28  and  N9_33 
REMARK    8  A    between atoms: C11_39  and  N11_40 
ROOT
HETATM    1  C8  UNL     1      12.094  21.251   3.137  1.00  0.00     0.729 A 
HETATM    2  N6  UNL     1      12.584  20.314   3.956  1.00  0.00    -0.020 N 
ATOM      3  H6  UNL     1      12.535  19.342   3.652  1.00  0.00     0.203 HD
HETATM    4  C9  UNL     1      13.143  20.575   5.164  1.00  0.00     0.710 A 
HETATM    5  N10 UNL     1      13.192  21.859   5.533  1.00  0.00    -0.022 N 
ATOM      6  H10 UNL     1      13.604  22.098   6.435  1.00  0.00     0.203 HD
HETATM    7  C11 UNL     1      12.710  22.856   4.743  1.00  0.00     0.705 A 
HETATM    8  N12 UNL     1      12.167  22.528   3.550  1.00  0.00    -0.020 N 
ATOM      9  H12 UNL     1      11.803  23.267   2.948  1.00  0.00     0.203 HD
ENDROOT
BRANCH   1  10
HETATM   10  N1  UNL     1      11.497  20.953   1.858  1.00  0.00    -0.113 N 
HETATM   11  C1  UNL     1      10.973  19.630   1.660  1.00  0.00     0.199 C 
BRANCH  10  12
HETATM   12  N2  UNL     1      11.478  21.926   0.920  1.00  0.00    -0.226 N 
HETATM   13  N3  UNL     1      10.675  22.521   0.256  1.00  0.00    -0.284 N 
ATOM     14  H3  UNL     1      11.116  23.210  -0.354  1.00  0.00     0.188 HD
ATOM     15  H2  UNL     1      12.424  22.250   0.718  1.00  0.00     0.209 HD
BRANCH  13  16
HETATM   16  C2  UNL     1       9.291  22.504   0.112  1.00  0.00     0.075 A 
HETATM   17  C3  UNL     1       8.655  21.807  -0.893  1.00  0.00     0.068 A 
HETATM   18  C4  UNL     1       7.277  21.794  -1.034  1.00  0.00     0.105 A 
HETATM   19  C5  UNL     1       6.531  22.506  -0.131  1.00  0.00     0.038 A 
HETATM   20  C6  UNL     1       7.114  23.227   0.901  1.00  0.00     0.030 A 
HETATM   21  C7  UNL     1       8.504  23.206   0.999  1.00  0.00     0.107 A 
BRANCH  18  22
HETATM   22  N4  UNL     1       6.646  21.057  -2.089  1.00  0.00    -0.116 N 
HETATM   23  O1  UNL     1       5.643  21.498  -2.649  1.00  0.00    -0.532 OA
HETATM   24  O2  UNL     1       7.169  19.853  -2.473  1.00  0.00    -0.532 OA
ENDBRANCH  18  22
BRANCH  21  25
HETATM   25  S1  UNL     1       9.307  24.098   2.273  1.00  0.00     0.259 S 
HETATM   26  O3  UNL     1      10.620  24.618   1.771  1.00  0.00    -0.201 OA
HETATM   27  O4  UNL     1       9.467  23.255   3.520  1.00  0.00    -0.201 OA
BRANCH  25  28
HETATM   28  N5  UNL     1       8.328  25.450   2.715  1.00  0.00    -0.324 N 
ATOM     29  H52 UNL     1       7.372  25.605   2.394  1.00  0.00     0.169 HD
ATOM     30  H51 UNL     1       8.860  26.055   3.341  1.00  0.00     0.169 HD
ENDBRANCH  25  28
ENDBRANCH  21  25
ENDBRANCH  13  16
ENDBRANCH  10  12
ENDBRANCH   1  10
BRANCH   4  31
HETATM   31  N7  UNL     1      13.599  19.631   5.905  1.00  0.00    -0.172 N 
HETATM   32  C10 UNL     1      14.928  19.711   6.458  1.00  0.00     0.494 C 
HETATM   33  N8  UNL     1      15.109  18.611   7.431  1.00  0.00    -0.032 N 
HETATM   34  N9  UNL     1      15.931  19.487   5.401  1.00  0.00    -0.032 N 
ATOM     35  H83 UNL     1      14.387  18.607   8.153  1.00  0.00     0.278 HD
ATOM     36  H82 UNL     1      14.910  17.696   7.026  1.00  0.00     0.278 HD
ATOM     37  H81 UNL     1      16.049  18.668   7.823  1.00  0.00     0.278 HD
ATOM     38  H93 UNL     1      15.776  18.609   4.906  1.00  0.00     0.278 HD
ATOM     39  H92 UNL     1      15.806  20.126   4.615  1.00  0.00     0.278 HD
ATOM     40  H91 UNL     1      16.871  19.544   5.792  1.00  0.00     0.278 HD
ATOM     41  H7  UNL     1      13.016  18.818   6.104  1.00  0.00     0.181 HD
ENDBRANCH   4  31
BRANCH   7  42
HETATM   42  N11 UNL     1      12.798  24.054   5.175  1.00  0.00    -0.234 N 
ATOM     43 2H11 UNL     1      12.266  24.835   4.788  1.00  0.00     0.174 HD
ATOM     44 1H11 UNL     1      13.435  24.236   5.950  1.00  0.00     0.174 HD
ENDBRANCH   7  42
TORSDOF 8
ENDMDL
MODEL 5
REMARK VINA RESULT: -7.995699392      3.585      7.599
REMARK  8 active torsions:
REMARK  status: ('A' for Active; 'I' for Inactive)
REMARK    1  A    between atoms: N1_2  and  N2_3 
REMARK    2  A    between atoms: N1_2  and  C8_22 
REMARK    3  A    between atoms: N3_5  and  C2_7 
REMARK    4  A    between atoms: C4_9  and  N4_10 
REMARK    5  A    between atoms: C7_15  and  S1_16 
REMARK    6  A    between atoms: S1_16  and  N5_17 
REMARK    7  A    between atoms: C9_25  and  N7_26 
REMARK       I    between atoms: N7_26  and  C10_28 
REMARK       I    between atoms: C10_28  and  N8_29 
REMARK       I    between atoms: C10_28  and  N9_33 
REMARK    8  A    between atoms: C11_39  and  N11_40 
ROOT
HETATM    1  C8  UNL     1      11.113  22.902   1.854  1.00  0.00     0.729 A 
HETATM    2  N6  UNL     1      10.203  22.673   0.901  1.00  0.00    -0.020 N 
ATOM      3  H6  UNL     1      10.251  21.786   0.399  1.00  0.00     0.203 HD
HETATM    4  C9  UNL     1       9.221  23.543   0.559  1.00  0.00     0.710 A 
HETATM    5  N10 UNL     1       9.186  24.696   1.236  1.00  0.00    -0.022 N 
ATOM      6  H10 UNL     1       8.463  25.379   1.010  1.00  0.00     0.203 HD
HETATM    7  C11 UNL     1      10.084  24.986   2.216  1.00  0.00     0.705 A 
HETATM    8  N12 UNL     1      11.037  24.074   2.508  1.00  0.00    -0.020 N 
ATOM      9  H12 UNL     1      11.715  24.279   3.242  1.00  0.00     0.203 HD
ENDROOT
BRANCH   1  10
HETATM   10  N1  UNL     1      12.155  21.965   2.198  1.00  0.00    -0.113 N 
HETATM   11  C1  UNL     1      11.913  20.574   1.935  1.00  0.00     0.199 C 
BRANCH  10  12
HETATM   12  N2  UNL     1      13.286  22.447   2.758  1.00  0.00    -0.226 N 
HETATM   13  N3  UNL     1      13.800  22.509   3.841  1.00  0.00    -0.284 N 
ATOM     14  H3  UNL     1      14.704  22.982   3.811  1.00  0.00     0.188 HD
ATOM     15  H2  UNL     1      13.878  22.887   2.053  1.00  0.00     0.209 HD
BRANCH  13  16
HETATM   16  C2  UNL     1      13.468  22.094   5.128  1.00  0.00     0.075 A 
HETATM   17  C3  UNL     1      12.175  21.803   5.506  1.00  0.00     0.068 A 
HETATM   18  C4  UNL     1      11.848  21.393   6.787  1.00  0.00     0.105 A 
HETATM   19  C5  UNL     1      12.861  21.276   7.704  1.00  0.00     0.038 A 
HETATM   20  C6  UNL     1      14.181  21.554   7.383  1.00  0.00     0.030 A 
HETATM   21  C7  UNL     1      14.457  21.963   6.079  1.00  0.00     0.107 A 
BRANCH  18  22
HETATM   22  N4  UNL     1      10.493  21.096   7.149  1.00  0.00    -0.116 N 
HETATM   23  O1  UNL     1       9.572  21.318   6.365  1.00  0.00    -0.532 OA
HETATM   24  O2  UNL     1      10.229  20.559   8.379  1.00  0.00    -0.532 OA
ENDBRANCH  18  22
BRANCH  21  25
HETATM   25  S1  UNL     1      16.099  22.337   5.605  1.00  0.00     0.259 S 
HETATM   26  O3  UNL     1      16.185  23.771   5.179  1.00  0.00    -0.201 OA
HETATM   27  O4  UNL     1      16.592  21.392   4.529  1.00  0.00    -0.201 OA
BRANCH  25  28
HETATM   28  N5  UNL     1      17.140  22.118   6.966  1.00  0.00    -0.324 N 
ATOM     29  H52 UNL     1      16.831  22.108   7.939  1.00  0.00     0.169 HD
ATOM     30  H51 UNL     1      18.098  22.003   6.636  1.00  0.00     0.169 HD
ENDBRANCH  25  28
ENDBRANCH  21  25
ENDBRANCH  13  16
ENDBRANCH  10  12
ENDBRANCH   1  10
BRANCH   4  31
HETATM   31  N7  UNL     1       8.375  23.265  -0.365  1.00  0.00    -0.172 N 
HETATM   32  C10 UNL     1       6.996  23.667  -0.240  1.00  0.00     0.494 C 
HETATM   33  N8  UNL     1       6.305  23.412  -1.523  1.00  0.00    -0.032 N 
HETATM   34  N9  UNL     1       6.312  22.831   0.763  1.00  0.00    -0.032 N 
ATOM     35  H83 UNL     1       6.771  23.860  -2.312  1.00  0.00     0.278 HD
ATOM     36  H82 UNL     1       6.402  22.444  -1.832  1.00  0.00     0.278 HD
ATOM     37  H81 UNL     1       5.329  23.697  -1.435  1.00  0.00     0.278 HD
ATOM     38  H93 UNL     1       6.402  21.836   0.557  1.00  0.00     0.278 HD
ATOM     39  H92 UNL     1       6.795  22.842   1.662  1.00  0.00     0.278 HD
ATOM     40  H91 UNL     1       5.337  23.116   0.852  1.00  0.00     0.278 HD
ATOM     41  H7  UNL     1       8.681  22.755  -1.193  1.00  0.00     0.181 HD
ENDBRANCH   4  31
BRANCH   7  42
HETATM   42  N11 UNL     1       9.975  26.112   2.810  1.00  0.00    -0.234 N 
ATOM     43 2H11 UNL     1      10.304  26.993   2.415  1.00  0.00     0.174 HD
ATOM     44 1H11 UNL     1       9.535  26.124   3.729  1.00  0.00     0.174 HD
ENDBRANCH   7  42
TORSDOF 8
ENDMDL
