MODEL 1
REMARK VINA RESULT: -8.347132201      0.000      0.000
REMARK  11 active torsions:
REMARK  status: ('A' for Active; 'I' for Inactive)
REMARK    1  A    between atoms: N1_1  and  C1_4 
REMARK    2  A    between atoms: C3_8  and  C4_9 
REMARK    3  A    between atoms: C4_9  and  N3_10 
REMARK    4  A    between atoms: N3_10  and  N4_12 
REMARK    5  A    between atoms: C6_19  and  N7_20 
REMARK    6  A    between atoms: N7_20  and  C7_22 
REMARK    7  A    between atoms: C7_22  and  C8_23 
REMARK    8  A    between atoms: C8_23  and  N8_24 
REMARK    9  A    between atoms: C8_23  and  C9_28 
REMARK   10  A    between atoms: C9_28  and  S1_29 
REMARK   11  A    between atoms: S1_29  and  C10_30 
ROOT
HETATM    1  N7  UNL     1       8.616  22.795   0.545  1.00  0.00    -0.222 N 
ATOM      2  H7  UNL     1       8.158  22.996   1.434  1.00  0.00     0.177 HD
ENDROOT
BRANCH   1   3
HETATM    3  C6  UNL     1       7.877  22.316  -0.363  1.00  0.00     0.715 A 
HETATM    4  N6  UNL     1       7.034  23.185  -0.988  1.00  0.00    -0.068 N 
HETATM    5  C2  UNL     1       6.198  22.816  -1.969  1.00  0.00     0.173 A 
HETATM    6  N5  UNL     1       6.832  24.493  -0.816  1.00  0.00    -0.288 N 
HETATM    7  N2  UNL     1       6.178  21.510  -2.372  1.00  0.00    -0.173 N 
HETATM    8  C3  UNL     1       5.463  23.892  -2.422  1.00  0.00     0.045 A 
HETATM    9  C1  UNL     1       7.008  20.650  -1.758  1.00  0.00     0.692 A 
ATOM     10  H2  UNL     1       5.553  21.198  -3.116  1.00  0.00     0.186 HD
HETATM   11  N13 UNL     1       7.845  21.044  -0.770  1.00  0.00    -0.021 N 
ATOM     12  H13 UNL     1       8.460  20.359  -0.331  1.00  0.00     0.203 HD
HETATM   13  C5  UNL     1       5.894  24.955  -1.660  1.00  0.00     0.125 A 
ATOM     14  H5  UNL     1       7.325  25.068  -0.131  1.00  0.00     0.187 HD
BRANCH   9  15
HETATM   15  N1  UNL     1       7.022  19.412  -2.108  1.00  0.00    -0.234 N 
ATOM     16  H12 UNL     1       6.226  19.052  -2.636  1.00  0.00     0.174 HD
ATOM     17  H11 UNL     1       7.814  18.821  -1.855  1.00  0.00     0.174 HD
ENDBRANCH   9  15
BRANCH   8  18
HETATM   18  C4  UNL     1       4.548  23.898  -3.373  1.00  0.00     0.123 C 
BRANCH  18  19
HETATM   19  N3  UNL     1       3.955  25.101  -3.841  1.00  0.00    -0.317 N 
ATOM     20  H3  UNL     1       3.931  25.909  -3.219  1.00  0.00     0.185 HD
BRANCH  19  21
HETATM   21  N4  UNL     1       3.403  25.223  -5.121  1.00  0.00    -0.345 N 
ATOM     22  H42 UNL     1       3.223  24.365  -5.643  1.00  0.00     0.176 HD
ATOM     23  H41 UNL     1       3.178  26.126  -5.541  1.00  0.00     0.176 HD
ENDBRANCH  19  21
ENDBRANCH  18  19
ENDBRANCH   8  18
ENDBRANCH   1   3
BRANCH   1  24
HETATM   24  C7  UNL     1      10.005  23.090   0.483  1.00  0.00     0.171 C 
BRANCH  24  25
HETATM   25  C8  UNL     1      10.610  23.395   1.832  1.00  0.00     0.211 C 
BRANCH  25  26
HETATM   26  N8  UNL     1      10.958  24.821   1.812  1.00  0.00    -0.073 N 
ATOM     27  H83 UNL     1      10.529  25.333   1.041  1.00  0.00     0.274 HD
ATOM     28  H82 UNL     1      10.528  25.354   2.569  1.00  0.00     0.274 HD
ATOM     29  H81 UNL     1      11.976  24.865   1.812  1.00  0.00     0.274 HD
ENDBRANCH  25  26
BRANCH  25  30
HETATM   30  C9  UNL     1      11.898  22.649   2.062  1.00  0.00     0.115 C 
BRANCH  30  31
HETATM   31  S1  UNL     1      11.629  21.008   2.752  1.00  0.00    -0.108 SA
BRANCH  31  32
HETATM   32  C10 UNL     1      11.695  20.955   4.508  1.00  0.00     0.101 A 
HETATM   33  N9  UNL     1      10.728  21.513   5.239  1.00  0.00    -0.345 N 
HETATM   34  C11 UNL     1      10.721  21.505   6.574  1.00  0.00     0.183 A 
ATOM     35  H9  UNL     1       9.955  21.968   4.753  1.00  0.00     0.167 HD
HETATM   36  N10 UNL     1      11.738  20.907   7.208  1.00  0.00    -0.337 N 
HETATM   37  C12 UNL     1      12.765  20.315   6.563  1.00  0.00     0.137 A 
ATOM     38  H10 UNL     1      11.737  20.899   8.228  1.00  0.00     0.168 HD
HETATM   39  N11 UNL     1      13.881  19.661   6.920  1.00  0.00    -0.337 N 
HETATM   40  C14 UNL     1      12.740  20.341   5.171  1.00  0.00     0.111 A 
HETATM   41  C13 UNL     1      14.563  19.273   5.838  1.00  0.00     0.182 A 
ATOM     42  H11 UNL     1      14.168  19.485   7.882  1.00  0.00     0.168 HD
HETATM   43  N12 UNL     1      13.852  19.697   4.783  1.00  0.00    -0.347 N 
ATOM     44  H12 UNL     1      14.121  19.549   3.810  1.00  0.00     0.167 HD
ENDBRANCH  31  32
ENDBRANCH  30  31
ENDBRANCH  25  30
ENDBRANCH  24  25
ENDBRANCH   1  24
TORSDOF 11
ENDMDL
MODEL 2
REMARK VINA RESULT: -8.273784252      0.857      1.836
REMARK  11 active torsions:
REMARK  status: ('A' for Active; 'I' for Inactive)
REMARK    1  A    between atoms: N1_1  and  C1_4 
REMARK    2  A    between atoms: C3_8  and  C4_9 
REMARK    3  A    between atoms: C4_9  and  N3_10 
REMARK    4  A    between atoms: N3_10  and  N4_12 
REMARK    5  A    between atoms: C6_19  and  N7_20 
REMARK    6  A    between atoms: N7_20  and  C7_22 
REMARK    7  A    between atoms: C7_22  and  C8_23 
REMARK    8  A    between atoms: C8_23  and  N8_24 
REMARK    9  A    between atoms: C8_23  and  C9_28 
REMARK   10  A    between atoms: C9_28  and  S1_29 
REMARK   11  A    between atoms: S1_29  and  C10_30 
ROOT
HETATM    1  N7  UNL     1       8.179  23.297   0.651  1.00  0.00    -0.222 N 
ATOM      2  H7  UNL     1       7.683  23.369   1.540  1.00  0.00     0.177 HD
ENDROOT
BRANCH   1   3
HETATM    3  C6  UNL     1       7.560  22.709  -0.283  1.00  0.00     0.715 A 
HETATM    4  N6  UNL     1       6.750  23.481  -1.061  1.00  0.00    -0.068 N 
HETATM    5  C2  UNL     1       6.037  22.992  -2.086  1.00  0.00     0.173 A 
HETATM    6  N5  UNL     1       6.475  24.787  -1.022  1.00  0.00    -0.288 N 
HETATM    7  N2  UNL     1       6.116  21.659  -2.376  1.00  0.00    -0.173 N 
HETATM    8  C3  UNL     1       5.308  23.989  -2.700  1.00  0.00     0.045 A 
HETATM    9  C1  UNL     1       6.913  20.895  -1.611  1.00  0.00     0.692 A 
ATOM     10  H2  UNL     1       5.586  21.257  -3.150  1.00  0.00     0.186 HD
HETATM   11  N13 UNL     1       7.625  21.408  -0.582  1.00  0.00    -0.021 N 
ATOM     12  H13 UNL     1       8.219  20.794  -0.026  1.00  0.00     0.203 HD
HETATM   13  C5  UNL     1       5.611  25.131  -1.992  1.00  0.00     0.125 A 
ATOM     14  H5  UNL     1       6.869  25.439  -0.343  1.00  0.00     0.187 HD
BRANCH   9  15
HETATM   15  N1  UNL     1       7.016  19.635  -1.851  1.00  0.00    -0.234 N 
ATOM     16  H12 UNL     1       6.548  18.984  -1.220  1.00  0.00     0.174 HD
ATOM     17  H11 UNL     1       7.555  19.313  -2.655  1.00  0.00     0.174 HD
ENDBRANCH   9  15
BRANCH   8  18
HETATM   18  C4  UNL     1       4.498  23.872  -3.735  1.00  0.00     0.123 C 
BRANCH  18  19
HETATM   19  N3  UNL     1       3.828  24.991  -4.299  1.00  0.00    -0.317 N 
ATOM     20  H3  UNL     1       3.837  25.874  -3.789  1.00  0.00     0.185 HD
BRANCH  19  21
HETATM   21  N4  UNL     1       3.156  24.931  -5.525  1.00  0.00    -0.345 N 
ATOM     22  H42 UNL     1       3.700  24.680  -6.351  1.00  0.00     0.176 HD
ATOM     23  H41 UNL     1       2.159  25.125  -5.617  1.00  0.00     0.176 HD
ENDBRANCH  19  21
ENDBRANCH  18  19
ENDBRANCH   8  18
ENDBRANCH   1   3
BRANCH   1  24
HETATM   24  C7  UNL     1       9.479  23.870   0.618  1.00  0.00     0.171 C 
BRANCH  24  25
HETATM   25  C8  UNL     1      10.257  23.655   1.894  1.00  0.00     0.211 C 
BRANCH  25  26
HETATM   26  N8  UNL     1      10.641  24.991   2.369  1.00  0.00    -0.073 N 
ATOM     27  H83 UNL     1      11.607  25.044   2.693  1.00  0.00     0.274 HD
ATOM     28  H82 UNL     1      10.723  25.680   1.621  1.00  0.00     0.274 HD
ATOM     29  H81 UNL     1       9.959  25.246   3.083  1.00  0.00     0.274 HD
ENDBRANCH  25  26
BRANCH  25  30
HETATM   30  C9  UNL     1      11.541  22.904   1.660  1.00  0.00     0.115 C 
BRANCH  30  31
HETATM   31  S1  UNL     1      11.312  21.120   1.704  1.00  0.00    -0.108 SA
BRANCH  31  32
HETATM   32  C10 UNL     1      12.126  20.330   3.047  1.00  0.00     0.101 A 
HETATM   33  N9  UNL     1      13.010  19.357   2.825  1.00  0.00    -0.345 N 
HETATM   34  C11 UNL     1      13.661  18.720   3.801  1.00  0.00     0.183 A 
ATOM     35  H9  UNL     1      13.199  19.085   1.860  1.00  0.00     0.167 HD
HETATM   36  N10 UNL     1      13.409  19.078   5.068  1.00  0.00    -0.337 N 
HETATM   37  C12 UNL     1      12.533  20.049   5.400  1.00  0.00     0.137 A 
ATOM     38  H10 UNL     1      13.903  18.594   5.817  1.00  0.00     0.168 HD
HETATM   39  N11 UNL     1      12.093  20.604   6.539  1.00  0.00    -0.337 N 
HETATM   40  C14 UNL     1      11.872  20.693   4.356  1.00  0.00     0.111 A 
HETATM   41  C13 UNL     1      11.195  21.559   6.280  1.00  0.00     0.182 A 
ATOM     42  H11 UNL     1      12.401  20.334   7.473  1.00  0.00     0.168 HD
HETATM   43  N12 UNL     1      11.074  21.598   4.944  1.00  0.00    -0.347 N 
ATOM     44  H12 UNL     1      10.455  22.233   4.440  1.00  0.00     0.167 HD
ENDBRANCH  31  32
ENDBRANCH  30  31
ENDBRANCH  25  30
ENDBRANCH  24  25
ENDBRANCH   1  24
TORSDOF 11
ENDMDL
MODEL 3
REMARK VINA RESULT: -8.270715733      1.380      1.608
REMARK  11 active torsions:
REMARK  status: ('A' for Active; 'I' for Inactive)
REMARK    1  A    between atoms: N1_1  and  C1_4 
REMARK    2  A    between atoms: C3_8  and  C4_9 
REMARK    3  A    between atoms: C4_9  and  N3_10 
REMARK    4  A    between atoms: N3_10  and  N4_12 
REMARK    5  A    between atoms: C6_19  and  N7_20 
REMARK    6  A    between atoms: N7_20  and  C7_22 
REMARK    7  A    between atoms: C7_22  and  C8_23 
REMARK    8  A    between atoms: C8_23  and  N8_24 
REMARK    9  A    between atoms: C8_23  and  C9_28 
REMARK   10  A    between atoms: C9_28  and  S1_29 
REMARK   11  A    between atoms: S1_29  and  C10_30 
ROOT
HETATM    1  N7  UNL     1       8.257  23.449   0.224  1.00  0.00    -0.222 N 
ATOM      2  H7  UNL     1       9.171  23.755  -0.110  1.00  0.00     0.177 HD
ENDROOT
BRANCH   1   3
HETATM    3  C6  UNL     1       7.534  22.843  -0.619  1.00  0.00     0.715 A 
HETATM    4  N6  UNL     1       6.678  23.607  -1.354  1.00  0.00    -0.068 N 
HETATM    5  C2  UNL     1       5.857  23.098  -2.284  1.00  0.00     0.173 A 
HETATM    6  N5  UNL     1       6.447  24.922  -1.350  1.00  0.00    -0.288 N 
HETATM    7  N2  UNL     1       5.867  21.752  -2.517  1.00  0.00    -0.173 N 
HETATM    8  C3  UNL     1       5.103  24.092  -2.873  1.00  0.00     0.045 A 
HETATM    9  C1  UNL     1       6.710  20.995  -1.795  1.00  0.00     0.692 A 
ATOM     10  H2  UNL     1       5.254  21.335  -3.218  1.00  0.00     0.186 HD
HETATM   11  N13 UNL     1       7.531  21.528  -0.861  1.00  0.00    -0.021 N 
ATOM     12  H13 UNL     1       8.156  20.919  -0.335  1.00  0.00     0.203 HD
HETATM   13  C5  UNL     1       5.506  25.253  -2.251  1.00  0.00     0.125 A 
ATOM     14  H5  UNL     1       6.924  25.589  -0.742  1.00  0.00     0.187 HD
BRANCH   9  15
HETATM   15  N1  UNL     1       6.751  19.723  -1.984  1.00  0.00    -0.234 N 
ATOM     16  H12 UNL     1       5.943  19.167  -1.702  1.00  0.00     0.174 HD
ATOM     17  H11 UNL     1       7.578  19.298  -2.405  1.00  0.00     0.174 HD
ENDBRANCH   9  15
BRANCH   8  18
HETATM   18  C4  UNL     1       4.196  23.958  -3.821  1.00  0.00     0.123 C 
BRANCH  18  19
HETATM   19  N3  UNL     1       3.834  25.033  -4.677  1.00  0.00    -0.317 N 
ATOM     20  H3  UNL     1       4.133  25.976  -4.430  1.00  0.00     0.185 HD
BRANCH  19  21
HETATM   21  N4  UNL     1       3.083  24.851  -5.844  1.00  0.00    -0.345 N 
ATOM     22  H42 UNL     1       3.146  25.571  -6.564  1.00  0.00     0.176 HD
ATOM     23  H41 UNL     1       2.487  24.037  -5.995  1.00  0.00     0.176 HD
ENDBRANCH  19  21
ENDBRANCH  18  19
ENDBRANCH   8  18
ENDBRANCH   1   3
BRANCH   1  24
HETATM   24  C7  UNL     1       7.955  23.757   1.578  1.00  0.00     0.171 C 
BRANCH  24  25
HETATM   25  C8  UNL     1       9.178  24.083   2.401  1.00  0.00     0.211 C 
BRANCH  25  26
HETATM   26  N8  UNL     1       9.071  25.506   2.749  1.00  0.00    -0.073 N 
ATOM     27  H83 UNL     1       8.829  26.100   1.956  1.00  0.00     0.274 HD
ATOM     28  H82 UNL     1       8.255  25.723   3.322  1.00  0.00     0.274 HD
ATOM     29  H81 UNL     1       9.955  25.758   3.189  1.00  0.00     0.274 HD
ENDBRANCH  25  26
BRANCH  25  30
HETATM   30  C9  UNL     1      10.453  23.935   1.612  1.00  0.00     0.115 C 
BRANCH  30  31
HETATM   31  S1  UNL     1      11.152  22.282   1.739  1.00  0.00    -0.108 SA
BRANCH  31  32
HETATM   32  C10 UNL     1      11.972  21.969   3.262  1.00  0.00     0.101 A 
HETATM   33  N9  UNL     1      12.283  22.974   4.082  1.00  0.00    -0.345 N 
HETATM   34  C11 UNL     1      12.904  22.802   5.251  1.00  0.00     0.183 A 
ATOM     35  H9  UNL     1      12.035  23.923   3.801  1.00  0.00     0.167 HD
HETATM   36  N10 UNL     1      13.230  21.554   5.616  1.00  0.00    -0.337 N 
HETATM   37  C12 UNL     1      12.961  20.470   4.860  1.00  0.00     0.137 A 
ATOM     38  H10 UNL     1      13.705  21.418   6.508  1.00  0.00     0.168 HD
HETATM   39  N11 UNL     1      13.160  19.147   4.964  1.00  0.00    -0.337 N 
HETATM   40  C14 UNL     1      12.311  20.686   3.646  1.00  0.00     0.111 A 
HETATM   41  C13 UNL     1      12.676  18.514   3.890  1.00  0.00     0.182 A 
ATOM     42  H11 UNL     1      13.616  18.688   5.752  1.00  0.00     0.168 HD
HETATM   43  N12 UNL     1      12.164  19.470   3.100  1.00  0.00    -0.347 N 
ATOM     44  H12 UNL     1      11.720  19.294   2.198  1.00  0.00     0.167 HD
ENDBRANCH  31  32
ENDBRANCH  30  31
ENDBRANCH  25  30
ENDBRANCH  24  25
ENDBRANCH   1  24
TORSDOF 11
ENDMDL
MODEL 4
REMARK VINA RESULT: -8.221806597      1.816      9.680
REMARK  11 active torsions:
REMARK  status: ('A' for Active; 'I' for Inactive)
REMARK    1  A    between atoms: N1_1  and  C1_4 
REMARK    2  A    between atoms: C3_8  and  C4_9 
REMARK    3  A    between atoms: C4_9  and  N3_10 
REMARK    4  A    between atoms: N3_10  and  N4_12 
REMARK    5  A    between atoms: C6_19  and  N7_20 
REMARK    6  A    between atoms: N7_20  and  C7_22 
REMARK    7  A    between atoms: C7_22  and  C8_23 
REMARK    8  A    between atoms: C8_23  and  N8_24 
REMARK    9  A    between atoms: C8_23  and  C9_28 
REMARK   10  A    between atoms: C9_28  and  S1_29 
REMARK   11  A    between atoms: S1_29  and  C10_30 
ROOT
HETATM    1  N7  UNL     1      11.195  22.763   3.613  1.00  0.00    -0.222 N 
ATOM      2  H7  UNL     1      11.382  23.619   4.136  1.00  0.00     0.177 HD
ENDROOT
BRANCH   1   3
HETATM    3  C6  UNL     1      11.721  21.707   4.072  1.00  0.00     0.715 A 
HETATM    4  N6  UNL     1      11.982  21.687   5.410  1.00  0.00    -0.068 N 
HETATM    5  C2  UNL     1      12.534  20.634   6.031  1.00  0.00     0.173 A 
HETATM    6  N5  UNL     1      11.784  22.603   6.360  1.00  0.00    -0.288 N 
HETATM    7  N2  UNL     1      12.856  19.523   5.303  1.00  0.00    -0.173 N 
HETATM    8  C3  UNL     1      12.686  20.882   7.379  1.00  0.00     0.045 A 
HETATM    9  C1  UNL     1      12.599  19.541   3.984  1.00  0.00     0.692 A 
ATOM     10  H2  UNL     1      13.277  18.707   5.746  1.00  0.00     0.186 HD
HETATM   11  N13 UNL     1      12.041  20.613   3.376  1.00  0.00    -0.021 N 
ATOM     12  H13 UNL     1      11.862  20.585   2.373  1.00  0.00     0.203 HD
HETATM   13  C5  UNL     1      12.195  22.156   7.559  1.00  0.00     0.125 A 
ATOM     14  H5  UNL     1      11.374  23.523   6.198  1.00  0.00     0.187 HD
BRANCH   9  15
HETATM   15  N1  UNL     1      12.886  18.515   3.262  1.00  0.00    -0.234 N 
ATOM     16  H12 UNL     1      13.853  18.190   3.249  1.00  0.00     0.174 HD
ATOM     17  H11 UNL     1      12.154  18.052   2.723  1.00  0.00     0.174 HD
ENDBRANCH   9  15
BRANCH   8  18
HETATM   18  C4  UNL     1      13.193  20.076   8.293  1.00  0.00     0.123 C 
BRANCH  18  19
HETATM   19  N3  UNL     1      12.372  19.338   9.186  1.00  0.00    -0.317 N 
ATOM     20  H3  UNL     1      12.759  19.055  10.086  1.00  0.00     0.185 HD
BRANCH  19  21
HETATM   21  N4  UNL     1      11.053  18.982   8.882  1.00  0.00    -0.345 N 
ATOM     22  H42 UNL     1      10.718  18.077   9.215  1.00  0.00     0.176 HD
ATOM     23  H41 UNL     1      10.427  19.586   8.349  1.00  0.00     0.176 HD
ENDBRANCH  19  21
ENDBRANCH  18  19
ENDBRANCH   8  18
ENDBRANCH   1   3
BRANCH   1  24
HETATM   24  C7  UNL     1      10.378  22.906   2.460  1.00  0.00     0.171 C 
BRANCH  24  25
HETATM   25  C8  UNL     1      10.636  24.186   1.702  1.00  0.00     0.211 C 
BRANCH  25  26
HETATM   26  N8  UNL     1      10.649  25.260   2.704  1.00  0.00    -0.073 N 
ATOM     27  H83 UNL     1      10.032  25.082   3.497  1.00  0.00     0.274 HD
ATOM     28  H82 UNL     1      11.520  25.311   3.233  1.00  0.00     0.274 HD
ATOM     29  H81 UNL     1      10.427  26.119   2.202  1.00  0.00     0.274 HD
ENDBRANCH  25  26
BRANCH  25  30
HETATM   30  C9  UNL     1       9.524  24.516   0.742  1.00  0.00     0.115 C 
BRANCH  30  31
HETATM   31  S1  UNL     1       8.098  23.436   0.945  1.00  0.00    -0.108 SA
BRANCH  31  32
HETATM   32  C10 UNL     1       7.069  23.340  -0.478  1.00  0.00     0.101 A 
HETATM   33  N9  UNL     1       6.459  24.430  -0.946  1.00  0.00    -0.345 N 
HETATM   34  C11 UNL     1       5.667  24.422  -2.021  1.00  0.00     0.183 A 
ATOM     35  H9  UNL     1       6.605  25.314  -0.459  1.00  0.00     0.167 HD
HETATM   36  N10 UNL     1       5.477  23.258  -2.657  1.00  0.00    -0.337 N 
HETATM   37  C12 UNL     1       6.047  22.100  -2.265  1.00  0.00     0.137 A 
ATOM     38  H10 UNL     1       4.872  23.247  -3.478  1.00  0.00     0.168 HD
HETATM   39  N11 UNL     1       6.040  20.828  -2.690  1.00  0.00    -0.337 N 
HETATM   40  C14 UNL     1       6.868  22.145  -1.140  1.00  0.00     0.111 A 
HETATM   41  C13 UNL     1       6.806  20.066  -1.903  1.00  0.00     0.182 A 
ATOM     42  H11 UNL     1       5.522  20.489  -3.501  1.00  0.00     0.168 HD
HETATM   43  N12 UNL     1       7.301  20.887  -0.965  1.00  0.00    -0.347 N 
ATOM     44  H12 UNL     1       7.926  20.593  -0.215  1.00  0.00     0.167 HD
ENDBRANCH  31  32
ENDBRANCH  30  31
ENDBRANCH  25  30
ENDBRANCH  24  25
ENDBRANCH   1  24
TORSDOF 11
ENDMDL
MODEL 5
REMARK VINA RESULT: -8.220992877      1.870      9.214
REMARK  11 active torsions:
REMARK  status: ('A' for Active; 'I' for Inactive)
REMARK    1  A    between atoms: N1_1  and  C1_4 
REMARK    2  A    between atoms: C3_8  and  C4_9 
REMARK    3  A    between atoms: C4_9  and  N3_10 
REMARK    4  A    between atoms: N3_10  and  N4_12 
REMARK    5  A    between atoms: C6_19  and  N7_20 
REMARK    6  A    between atoms: N7_20  and  C7_22 
REMARK    7  A    between atoms: C7_22  and  C8_23 
REMARK    8  A    between atoms: C8_23  and  N8_24 
REMARK    9  A    between atoms: C8_23  and  C9_28 
REMARK   10  A    between atoms: C9_28  and  S1_29 
REMARK   11  A    between atoms: S1_29  and  C10_30 
ROOT
HETATM    1  N7  UNL     1      11.275  23.692   2.853  1.00  0.00    -0.222 N 
ATOM      2  H7  UNL     1      11.252  24.330   3.649  1.00  0.00     0.177 HD
ENDROOT
BRANCH   1   3
HETATM    3  C6  UNL     1      11.557  22.487   3.119  1.00  0.00     0.715 A 
HETATM    4  N6  UNL     1      12.291  22.264   4.245  1.00  0.00    -0.068 N 
HETATM    5  C2  UNL     1      12.659  21.039   4.648  1.00  0.00     0.173 A 
HETATM    6  N5  UNL     1      12.790  23.107   5.152  1.00  0.00    -0.288 N 
HETATM    7  N2  UNL     1      12.288  19.954   3.906  1.00  0.00    -0.173 N 
HETATM    8  C3  UNL     1      13.393  21.104   5.815  1.00  0.00     0.045 A 
HETATM    9  C1  UNL     1      11.564  20.170   2.795  1.00  0.00     0.692 A 
ATOM     10  H2  UNL     1      12.552  19.009   4.187  1.00  0.00     0.186 HD
HETATM   11  N13 UNL     1      11.202  21.414   2.406  1.00  0.00    -0.021 N 
ATOM     12  H13 UNL     1      10.652  21.534   1.556  1.00  0.00     0.203 HD
HETATM   13  C5  UNL     1      13.459  22.447   6.112  1.00  0.00     0.125 A 
ATOM     14  H5  UNL     1      12.678  24.121   5.120  1.00  0.00     0.187 HD
BRANCH   9  15
HETATM   15  N1  UNL     1      11.193  19.174   2.068  1.00  0.00    -0.234 N 
ATOM     16  H12 UNL     1      10.850  18.336   2.539  1.00  0.00     0.174 HD
ATOM     17  H11 UNL     1      11.248  19.239   1.052  1.00  0.00     0.174 HD
ENDBRANCH   9  15
BRANCH   8  18
HETATM   18  C4  UNL     1      13.916  20.100   6.493  1.00  0.00     0.123 C 
BRANCH  18  19
HETATM   19  N3  UNL     1      13.413  19.704   7.761  1.00  0.00    -0.317 N 
ATOM     20  H3  UNL     1      14.075  19.411   8.479  1.00  0.00     0.185 HD
BRANCH  19  21
HETATM   21  N4  UNL     1      12.047  19.697   8.065  1.00  0.00    -0.345 N 
ATOM     22  H42 UNL     1      11.433  20.279   7.495  1.00  0.00     0.176 HD
ATOM     23  H41 UNL     1      11.653  19.140   8.823  1.00  0.00     0.176 HD
ENDBRANCH  19  21
ENDBRANCH  18  19
ENDBRANCH   8  18
ENDBRANCH   1   3
BRANCH   1  24
HETATM   24  C7  UNL     1      10.987  24.267   1.587  1.00  0.00     0.171 C 
BRANCH  24  25
HETATM   25  C8  UNL     1       9.846  25.254   1.627  1.00  0.00     0.211 C 
BRANCH  25  26
HETATM   26  N8  UNL     1       9.969  25.971   2.904  1.00  0.00    -0.073 N 
ATOM     27  H83 UNL     1       9.203  25.783   3.550  1.00  0.00     0.274 HD
ATOM     28  H82 UNL     1      10.722  25.618   3.496  1.00  0.00     0.274 HD
ATOM     29  H81 UNL     1      10.068  26.958   2.667  1.00  0.00     0.274 HD
ENDBRANCH  25  26
BRANCH  25  30
HETATM   30  C9  UNL     1       8.502  24.574   1.653  1.00  0.00     0.115 C 
BRANCH  30  31
HETATM   31  S1  UNL     1       8.498  23.026   0.736  1.00  0.00    -0.108 SA
BRANCH  31  32
HETATM   32  C10 UNL     1       7.310  22.968  -0.559  1.00  0.00     0.101 A 
HETATM   33  N9  UNL     1       6.629  24.062  -0.902  1.00  0.00    -0.345 N 
HETATM   34  C11 UNL     1       5.715  24.082  -1.875  1.00  0.00     0.183 A 
ATOM     35  H9  UNL     1       6.815  24.927  -0.395  1.00  0.00     0.167 HD
HETATM   36  N10 UNL     1       5.472  22.943  -2.538  1.00  0.00    -0.337 N 
HETATM   37  C12 UNL     1       6.106  21.783  -2.269  1.00  0.00     0.137 A 
ATOM     38  H10 UNL     1       4.775  22.954  -3.282  1.00  0.00     0.168 HD
HETATM   39  N11 UNL     1       6.072  20.531  -2.749  1.00  0.00    -0.337 N 
HETATM   40  C14 UNL     1       7.053  21.798  -1.248  1.00  0.00     0.111 A 
HETATM   41  C13 UNL     1       6.940  19.753  -2.094  1.00  0.00     0.182 A 
ATOM     42  H11 UNL     1       5.468  20.216  -3.508  1.00  0.00     0.168 HD
HETATM   43  N12 UNL     1       7.527  20.544  -1.183  1.00  0.00    -0.347 N 
ATOM     44  H12 UNL     1       8.242  20.233  -0.526  1.00  0.00     0.167 HD
ENDBRANCH  31  32
ENDBRANCH  30  31
ENDBRANCH  25  30
ENDBRANCH  24  25
ENDBRANCH   1  24
TORSDOF 11
ENDMDL
