MODEL 1
REMARK VINA RESULT: -9.193772039      0.000      0.000
REMARK  8 active torsions:
REMARK  status: ('A' for Active; 'I' for Inactive)
REMARK    1  A    between atoms: N2_5  and  C4_6 
REMARK    2  A    between atoms: C6_18  and  C7_19 
REMARK       I    between atoms: C7_19  and  N7_21 
REMARK    3  A    between atoms: N7_21  and  C8_23 
REMARK    4  A    between atoms: C8_23  and  C9_24 
REMARK    5  A    between atoms: C9_24  and  C10_25 
REMARK    6  A    between atoms: C10_25  and  N8_26 
REMARK    7  A    between atoms: C12_31  and  N11_32 
REMARK    8  A    between atoms: C13_37  and  N13_38 
ROOT
HETATM    1  N1  UNL     1      13.186  22.651   7.330  1.00  0.00    -0.191 NA
HETATM    2  C1  UNL     1      13.205  21.838   6.502  1.00  0.00     0.103 C 
HETATM    3  C2  UNL     1      13.205  20.839   5.470  1.00  0.00     0.095 A 
HETATM    4  C3  UNL     1      13.971  19.695   5.362  1.00  0.00     0.143 A 
HETATM    5  N2  UNL     1      13.665  19.029   4.244  1.00  0.00    -0.244 N 
HETATM    6  N6  UNL     1      12.720  19.730   3.643  1.00  0.00    -0.286 N 
ATOM      7  H6  UNL     1      12.283  19.467   2.760  1.00  0.00     0.188 HD
HETATM    8  C6  UNL     1      12.405  20.840   4.349  1.00  0.00     0.138 A 
ENDROOT
BRANCH   8   9
HETATM    9  C7  UNL     1      11.392  21.821   3.943  1.00  0.00     0.271 C 
HETATM   10  O2  UNL     1      10.212  21.572   4.286  1.00  0.00    -0.266 OA
HETATM   11  N7  UNL     1      11.702  22.980   3.215  1.00  0.00    -0.356 N 
ATOM     12  H7  UNL     1      12.684  23.116   2.975  1.00  0.00     0.162 HD
BRANCH  11  13
HETATM   13  C8  UNL     1      10.794  23.990   2.772  1.00  0.00     0.124 C 
BRANCH  13  14
HETATM   14  C9  UNL     1      10.561  23.923   1.303  1.00  0.00     0.041 C 
BRANCH  14  15
HETATM   15  C10 UNL     1       9.719  22.706   0.910  1.00  0.00     0.150 C 
BRANCH  15  16
HETATM   16  N8  UNL     1       8.557  23.211   0.204  1.00  0.00    -0.258 N 
HETATM   17  N9  UNL     1       8.051  24.437   0.243  1.00  0.00    -0.018 NA
HETATM   18  N10 UNL     1       6.980  24.518  -0.541  1.00  0.00    -0.277 N 
HETATM   19  C11 UNL     1       6.778  23.322  -1.108  1.00  0.00     0.136 A 
ATOM     20  H10 UNL     1       6.408  25.350  -0.686  1.00  0.00     0.184 HD
HETATM   21  C12 UNL     1       5.827  22.843  -1.995  1.00  0.00     0.146 A 
HETATM   22  C14 UNL     1       7.785  22.485  -0.634  1.00  0.00     0.168 A 
HETATM   23  N12 UNL     1       5.890  21.560  -2.390  1.00  0.00    -0.175 N 
HETATM   24  C13 UNL     1       6.858  20.743  -1.938  1.00  0.00     0.679 A 
ATOM     25  H12 UNL     1       5.193  21.200  -3.042  1.00  0.00     0.186 HD
HETATM   26  N14 UNL     1       7.787  21.212  -1.070  1.00  0.00    -0.173 N 
ATOM     27  H14 UNL     1       8.513  20.578  -0.737  1.00  0.00     0.186 HD
BRANCH  21  28
HETATM   28  N11 UNL     1       4.881  23.609  -2.448  1.00  0.00    -0.383 N 
ATOM     29 2H11 UNL     1       5.066  24.600  -2.605  1.00  0.00     0.157 HD
ATOM     30 1H11 UNL     1       3.952  23.240  -2.651  1.00  0.00     0.157 HD
ENDBRANCH  21  28
BRANCH  24  31
HETATM   31  N13 UNL     1       6.891  19.511  -2.339  1.00  0.00    -0.234 N 
ATOM     32 2H13 UNL     1       7.121  19.285  -3.307  1.00  0.00     0.174 HD
ATOM     33 1H13 UNL     1       6.684  18.763  -1.677  1.00  0.00     0.174 HD
ENDBRANCH  24  31
ENDBRANCH  15  16
ENDBRANCH  14  15
ENDBRANCH  13  14
ENDBRANCH  11  13
ENDBRANCH   8   9
BRANCH   5  34
HETATM   34  C4  UNL     1      14.240  17.801   3.782  1.00  0.00     0.194 A 
HETATM   35  N3  UNL     1      13.958  16.545   4.183  1.00  0.00    -0.220 N 
HETATM   36  O1  UNL     1      14.697  15.705   3.521  1.00  0.00    -0.153 OA
ATOM     37  H3  UNL     1      13.272  16.294   4.894  1.00  0.00     0.198 HD
HETATM   38  N4  UNL     1      15.473  16.325   2.684  1.00  0.00    -0.222 N 
HETATM   39  C5  UNL     1      15.216  17.658   2.816  1.00  0.00     0.169 A 
ATOM     40  H4  UNL     1      16.147  15.898   2.048  1.00  0.00     0.198 HD
HETATM   41  N5  UNL     1      15.774  18.629   2.165  1.00  0.00    -0.381 N 
ATOM     42  H52 UNL     1      15.581  19.626   2.265  1.00  0.00     0.157 HD
ATOM     43  H51 UNL     1      16.495  18.523   1.452  1.00  0.00     0.157 HD
ENDBRANCH   5  34
TORSDOF 8
ENDMDL
MODEL 2
REMARK VINA RESULT: -9.150083892      2.788      3.721
REMARK  8 active torsions:
REMARK  status: ('A' for Active; 'I' for Inactive)
REMARK    1  A    between atoms: N2_5  and  C4_6 
REMARK    2  A    between atoms: C6_18  and  C7_19 
REMARK       I    between atoms: C7_19  and  N7_21 
REMARK    3  A    between atoms: N7_21  and  C8_23 
REMARK    4  A    between atoms: C8_23  and  C9_24 
REMARK    5  A    between atoms: C9_24  and  C10_25 
REMARK    6  A    between atoms: C10_25  and  N8_26 
REMARK    7  A    between atoms: C12_31  and  N11_32 
REMARK    8  A    between atoms: C13_37  and  N13_38 
ROOT
HETATM    1  N1  UNL     1      15.428  22.644   4.149  1.00  0.00    -0.191 NA
HETATM    2  C1  UNL     1      14.428  22.291   4.622  1.00  0.00     0.103 C 
HETATM    3  C2  UNL     1      13.178  21.868   5.189  1.00  0.00     0.095 A 
HETATM    4  C3  UNL     1      12.921  21.334   6.437  1.00  0.00     0.143 A 
HETATM    5  N2  UNL     1      11.618  21.072   6.576  1.00  0.00    -0.244 N 
HETATM    6  N6  UNL     1      11.045  21.432   5.441  1.00  0.00    -0.286 N 
ATOM      7  H6  UNL     1      10.047  21.350   5.250  1.00  0.00     0.188 HD
HETATM    8  C6  UNL     1      11.952  21.922   4.565  1.00  0.00     0.138 A 
ENDROOT
BRANCH   8   9
HETATM    9  C7  UNL     1      11.627  22.405   3.218  1.00  0.00     0.271 C 
HETATM   10  O2  UNL     1      11.652  21.549   2.301  1.00  0.00    -0.266 OA
HETATM   11  N7  UNL     1      11.301  23.743   2.946  1.00  0.00    -0.356 N 
ATOM     12  H7  UNL     1      11.298  24.380   3.743  1.00  0.00     0.162 HD
BRANCH  11  13
HETATM   13  C8  UNL     1      10.974  24.311   1.677  1.00  0.00     0.124 C 
BRANCH  13  14
HETATM   14  C9  UNL     1       9.511  24.551   1.536  1.00  0.00     0.041 C 
BRANCH  14  15
HETATM   15  C10 UNL     1       8.746  23.262   1.222  1.00  0.00     0.150 C 
BRANCH  15  16
HETATM   16  N8  UNL     1       7.784  23.588   0.186  1.00  0.00    -0.258 N 
HETATM   17  N9  UNL     1       7.264  24.776  -0.096  1.00  0.00    -0.018 NA
HETATM   18  N10 UNL     1       6.415  24.676  -1.115  1.00  0.00    -0.277 N 
HETATM   19  C11 UNL     1       6.377  23.398  -1.511  1.00  0.00     0.136 A 
ATOM     20  H10 UNL     1       5.884  25.444  -1.525  1.00  0.00     0.184 HD
HETATM   21  C12 UNL     1       5.679  22.738  -2.509  1.00  0.00     0.146 A 
HETATM   22  C14 UNL     1       7.251  22.700  -0.681  1.00  0.00     0.168 A 
HETATM   23  N12 UNL     1       5.856  21.414  -2.664  1.00  0.00    -0.175 N 
HETATM   24  C13 UNL     1       6.697  20.731  -1.867  1.00  0.00     0.679 A 
ATOM     25  H12 UNL     1       5.345  20.920  -3.396  1.00  0.00     0.186 HD
HETATM   26  N14 UNL     1       7.379  21.377  -0.892  1.00  0.00    -0.173 N 
ATOM     27  H14 UNL     1       8.012  20.843  -0.296  1.00  0.00     0.186 HD
BRANCH  21  28
HETATM   28  N11 UNL     1       4.860  23.372  -3.293  1.00  0.00    -0.383 N 
ATOM     29 2H11 UNL     1       5.051  23.416  -4.293  1.00  0.00     0.157 HD
ATOM     30 1H11 UNL     1       4.024  23.829  -2.927  1.00  0.00     0.157 HD
ENDBRANCH  21  28
BRANCH  24  31
HETATM   31  N13 UNL     1       6.846  19.455  -2.043  1.00  0.00    -0.234 N 
ATOM     32 2H13 UNL     1       6.703  19.036  -2.962  1.00  0.00     0.174 HD
ATOM     33 1H13 UNL     1       7.109  18.867  -1.252  1.00  0.00     0.174 HD
ENDBRANCH  24  31
ENDBRANCH  15  16
ENDBRANCH  14  15
ENDBRANCH  13  14
ENDBRANCH  11  13
ENDBRANCH   8   9
BRANCH   5  34
HETATM   34  C4  UNL     1      10.964  20.514   7.722  1.00  0.00     0.194 A 
HETATM   35  N3  UNL     1       9.670  20.631   8.082  1.00  0.00    -0.220 N 
HETATM   36  O1  UNL     1       9.470  19.978   9.187  1.00  0.00    -0.153 OA
ATOM     37  H3  UNL     1       8.960  21.150   7.567  1.00  0.00     0.198 HD
HETATM   38  N4  UNL     1      10.566  19.418   9.605  1.00  0.00    -0.222 N 
HETATM   39  C5  UNL     1      11.539  19.733   8.704  1.00  0.00     0.169 A 
ATOM     40  H4  UNL     1      10.677  18.852  10.446  1.00  0.00     0.198 HD
HETATM   41  N5  UNL     1      12.784  19.375   8.742  1.00  0.00    -0.381 N 
ATOM     42  H52 UNL     1      13.512  19.611   8.068  1.00  0.00     0.157 HD
ATOM     43  H51 UNL     1      13.209  18.798   9.468  1.00  0.00     0.157 HD
ENDBRANCH   5  34
TORSDOF 8
ENDMDL
MODEL 3
REMARK VINA RESULT: -8.800545174      3.137     10.232
REMARK  8 active torsions:
REMARK  status: ('A' for Active; 'I' for Inactive)
REMARK    1  A    between atoms: N2_5  and  C4_6 
REMARK    2  A    between atoms: C6_18  and  C7_19 
REMARK       I    between atoms: C7_19  and  N7_21 
REMARK    3  A    between atoms: N7_21  and  C8_23 
REMARK    4  A    between atoms: C8_23  and  C9_24 
REMARK    5  A    between atoms: C9_24  and  C10_25 
REMARK    6  A    between atoms: C10_25  and  N8_26 
REMARK    7  A    between atoms: C12_31  and  N11_32 
REMARK    8  A    between atoms: C13_37  and  N13_38 
ROOT
HETATM    1  N1  UNL     1       7.322  19.596  -1.393  1.00  0.00    -0.191 NA
HETATM    2  C1  UNL     1       6.873  20.645  -1.601  1.00  0.00     0.103 C 
HETATM    3  C2  UNL     1       6.316  21.949  -1.834  1.00  0.00     0.095 A 
HETATM    4  C3  UNL     1       5.666  22.434  -2.952  1.00  0.00     0.143 A 
HETATM    5  N2  UNL     1       5.299  23.706  -2.767  1.00  0.00    -0.244 N 
HETATM    6  N6  UNL     1       5.704  24.034  -1.552  1.00  0.00    -0.286 N 
ATOM      7  H6  UNL     1       5.564  24.951  -1.128  1.00  0.00     0.188 HD
HETATM    8  C6  UNL     1       6.328  23.000  -0.944  1.00  0.00     0.138 A 
ENDROOT
BRANCH   8   9
HETATM    9  C7  UNL     1       6.890  23.050   0.411  1.00  0.00     0.271 C 
HETATM   10  O2  UNL     1       6.185  22.553   1.321  1.00  0.00    -0.266 OA
HETATM   11  N7  UNL     1       8.142  23.617   0.696  1.00  0.00    -0.356 N 
ATOM     12  H7  UNL     1       8.658  24.000  -0.097  1.00  0.00     0.162 HD
BRANCH  11  13
HETATM   13  C8  UNL     1       8.772  23.717   1.974  1.00  0.00     0.124 C 
BRANCH  13  14
HETATM   14  C9  UNL     1      10.231  23.988   1.854  1.00  0.00     0.041 C 
BRANCH  14  15
HETATM   15  C10 UNL     1      10.974  22.838   1.168  1.00  0.00     0.150 C 
BRANCH  15  16
HETATM   16  N8  UNL     1      11.245  21.846   2.192  1.00  0.00    -0.258 N 
HETATM   17  N9  UNL     1      10.981  20.546   2.155  1.00  0.00    -0.018 NA
HETATM   18  N10 UNL     1      11.377  19.964   3.284  1.00  0.00    -0.277 N 
HETATM   19  C11 UNL     1      11.913  20.900   4.078  1.00  0.00     0.136 A 
ATOM     20  H10 UNL     1      11.288  18.973   3.507  1.00  0.00     0.184 HD
HETATM   21  C12 UNL     1      12.475  20.857   5.344  1.00  0.00     0.146 A 
HETATM   22  C14 UNL     1      11.830  22.103   3.382  1.00  0.00     0.168 A 
HETATM   23  N12 UNL     1      12.938  21.995   5.891  1.00  0.00    -0.175 N 
HETATM   24  C13 UNL     1      12.862  23.162   5.227  1.00  0.00     0.679 A 
ATOM     25  H12 UNL     1      13.352  21.972   6.823  1.00  0.00     0.186 HD
HETATM   26  N14 UNL     1      12.312  23.203   3.990  1.00  0.00    -0.173 N 
ATOM     27  H14 UNL     1      12.262  24.097   3.502  1.00  0.00     0.186 HD
BRANCH  21  28
HETATM   28  N11 UNL     1      12.560  19.744   6.007  1.00  0.00    -0.383 N 
ATOM     29 2H11 UNL     1      11.817  19.050   5.924  1.00  0.00     0.157 HD
ATOM     30 1H11 UNL     1      13.359  19.547   6.610  1.00  0.00     0.157 HD
ENDBRANCH  21  28
BRANCH  24  31
HETATM   31  N13 UNL     1      13.318  24.241   5.783  1.00  0.00    -0.234 N 
ATOM     32 2H13 UNL     1      13.708  24.216   6.726  1.00  0.00     0.174 HD
ATOM     33 1H13 UNL     1      13.284  25.122   5.270  1.00  0.00     0.174 HD
ENDBRANCH  24  31
ENDBRANCH  15  16
ENDBRANCH  14  15
ENDBRANCH  13  14
ENDBRANCH  11  13
ENDBRANCH   8   9
BRANCH   5  34
HETATM   34  C4  UNL     1       4.606  24.552  -3.692  1.00  0.00     0.194 A 
HETATM   35  N3  UNL     1       3.834  24.190  -4.736  1.00  0.00    -0.220 N 
HETATM   36  O1  UNL     1       3.386  25.254  -5.331  1.00  0.00    -0.153 OA
ATOM     37  H3  UNL     1       3.633  23.230  -5.014  1.00  0.00     0.198 HD
HETATM   38  N4  UNL     1       3.814  26.332  -4.745  1.00  0.00    -0.222 N 
HETATM   39  C5  UNL     1       4.593  25.932  -3.699  1.00  0.00     0.169 A 
ATOM     40  H4  UNL     1       3.608  27.294  -5.015  1.00  0.00     0.198 HD
HETATM   41  N5  UNL     1       5.215  26.692  -2.854  1.00  0.00    -0.381 N 
ATOM     42  H52 UNL     1       5.797  26.392  -2.072  1.00  0.00     0.157 HD
ATOM     43  H51 UNL     1       5.205  27.712  -2.860  1.00  0.00     0.157 HD
ENDBRANCH   5  34
TORSDOF 8
ENDMDL
MODEL 4
REMARK VINA RESULT: -8.774549268      2.450      3.729
REMARK  8 active torsions:
REMARK  status: ('A' for Active; 'I' for Inactive)
REMARK    1  A    between atoms: N2_5  and  C4_6 
REMARK    2  A    between atoms: C6_18  and  C7_19 
REMARK       I    between atoms: C7_19  and  N7_21 
REMARK    3  A    between atoms: N7_21  and  C8_23 
REMARK    4  A    between atoms: C8_23  and  C9_24 
REMARK    5  A    between atoms: C9_24  and  C10_25 
REMARK    6  A    between atoms: C10_25  and  N8_26 
REMARK    7  A    between atoms: C12_31  and  N11_32 
REMARK    8  A    between atoms: C13_37  and  N13_38 
ROOT
HETATM    1  N1  UNL     1      11.322  18.834   2.076  1.00  0.00    -0.191 NA
HETATM    2  C1  UNL     1      11.701  19.487   2.958  1.00  0.00     0.103 C 
HETATM    3  C2  UNL     1      12.176  20.312   4.033  1.00  0.00     0.095 A 
HETATM    4  C3  UNL     1      12.564  19.949   5.308  1.00  0.00     0.143 A 
HETATM    5  N2  UNL     1      12.943  21.023   6.007  1.00  0.00    -0.244 N 
HETATM    6  N6  UNL     1      12.803  22.059   5.199  1.00  0.00    -0.286 N 
ATOM      7  H6  UNL     1      13.017  23.022   5.457  1.00  0.00     0.188 HD
HETATM    8  C6  UNL     1      12.339  21.679   3.986  1.00  0.00     0.138 A 
ENDROOT
BRANCH   8   9
HETATM    9  C7  UNL     1      12.080  22.598   2.872  1.00  0.00     0.271 C 
HETATM   10  O2  UNL     1      12.669  22.343   1.795  1.00  0.00    -0.266 OA
HETATM   11  N7  UNL     1      11.225  23.706   2.982  1.00  0.00    -0.356 N 
ATOM     12  H7  UNL     1      10.779  23.848   3.888  1.00  0.00     0.162 HD
BRANCH  11  13
HETATM   13  C8  UNL     1      10.910  24.657   1.962  1.00  0.00     0.124 C 
BRANCH  13  14
HETATM   14  C9  UNL     1       9.452  24.692   1.666  1.00  0.00     0.041 C 
BRANCH  14  15
HETATM   15  C10 UNL     1       8.934  23.339   1.170  1.00  0.00     0.150 C 
BRANCH  15  16
HETATM   16  N8  UNL     1       7.918  23.620   0.173  1.00  0.00    -0.258 N 
HETATM   17  N9  UNL     1       7.343  24.784  -0.097  1.00  0.00    -0.018 NA
HETATM   18  N10 UNL     1       6.457  24.644  -1.079  1.00  0.00    -0.277 N 
HETATM   19  C11 UNL     1       6.451  23.361  -1.463  1.00  0.00     0.136 A 
ATOM     20  H10 UNL     1       5.881  25.388  -1.473  1.00  0.00     0.184 HD
HETATM   21  C12 UNL     1       5.737  22.666  -2.427  1.00  0.00     0.146 A 
HETATM   22  C14 UNL     1       7.384  22.705  -0.665  1.00  0.00     0.168 A 
HETATM   23  N12 UNL     1       5.958  21.349  -2.579  1.00  0.00    -0.175 N 
HETATM   24  C13 UNL     1       6.856  20.705  -1.813  1.00  0.00     0.679 A 
ATOM     25  H12 UNL     1       5.436  20.830  -3.285  1.00  0.00     0.186 HD
HETATM   26  N14 UNL     1       7.554  21.385  -0.871  1.00  0.00    -0.173 N 
ATOM     27  H14 UNL     1       8.230  20.881  -0.299  1.00  0.00     0.186 HD
BRANCH  21  28
HETATM   28  N11 UNL     1       4.864  23.263  -3.180  1.00  0.00    -0.383 N 
ATOM     29 2H11 UNL     1       4.701  24.263  -3.068  1.00  0.00     0.157 HD
ATOM     30 1H11 UNL     1       4.334  22.750  -3.885  1.00  0.00     0.157 HD
ENDBRANCH  21  28
BRANCH  24  31
HETATM   31  N13 UNL     1       7.046  19.434  -1.985  1.00  0.00    -0.234 N 
ATOM     32 2H13 UNL     1       7.227  19.057  -2.915  1.00  0.00     0.174 HD
ATOM     33 1H13 UNL     1       7.012  18.809  -1.180  1.00  0.00     0.174 HD
ENDBRANCH  24  31
ENDBRANCH  15  16
ENDBRANCH  14  15
ENDBRANCH  13  14
ENDBRANCH  11  13
ENDBRANCH   8   9
BRANCH   5  34
HETATM   34  C4  UNL     1      13.409  21.055   7.362  1.00  0.00     0.194 A 
HETATM   35  N3  UNL     1      14.627  21.411   7.815  1.00  0.00    -0.220 N 
HETATM   36  O1  UNL     1      14.653  21.305   9.110  1.00  0.00    -0.153 OA
ATOM     37  H3  UNL     1      15.407  21.716   7.233  1.00  0.00     0.198 HD
HETATM   38  N4  UNL     1      13.509  20.892   9.568  1.00  0.00    -0.222 N 
HETATM   39  C5  UNL     1      12.690  20.722   8.491  1.00  0.00     0.169 A 
ATOM     40  H4  UNL     1      13.269  20.727  10.545  1.00  0.00     0.198 HD
HETATM   41  N5  UNL     1      11.458  20.320   8.503  1.00  0.00    -0.381 N 
ATOM     42  H52 UNL     1      10.846  20.193   7.698  1.00  0.00     0.157 HD
ATOM     43  H51 UNL     1      10.927  20.074   9.338  1.00  0.00     0.157 HD
ENDBRANCH   5  34
TORSDOF 8
ENDMDL
MODEL 5
REMARK VINA RESULT: -8.769611581      2.273      3.900
REMARK  8 active torsions:
REMARK  status: ('A' for Active; 'I' for Inactive)
REMARK    1  A    between atoms: N2_5  and  C4_6 
REMARK    2  A    between atoms: C6_18  and  C7_19 
REMARK       I    between atoms: C7_19  and  N7_21 
REMARK    3  A    between atoms: N7_21  and  C8_23 
REMARK    4  A    between atoms: C8_23  and  C9_24 
REMARK    5  A    between atoms: C9_24  and  C10_25 
REMARK    6  A    between atoms: C10_25  and  N8_26 
REMARK    7  A    between atoms: C12_31  and  N11_32 
REMARK    8  A    between atoms: C13_37  and  N13_38 
ROOT
HETATM    1  N1  UNL     1      14.619  19.908   2.918  1.00  0.00    -0.191 NA
HETATM    2  C1  UNL     1      14.073  20.087   3.927  1.00  0.00     0.103 C 
HETATM    3  C2  UNL     1      13.381  20.325   5.163  1.00  0.00     0.095 A 
HETATM    4  C3  UNL     1      13.818  20.133   6.459  1.00  0.00     0.143 A 
HETATM    5  N2  UNL     1      12.866  20.477   7.331  1.00  0.00    -0.244 N 
HETATM    6  N6  UNL     1      11.834  20.883   6.611  1.00  0.00    -0.286 N 
ATOM      7  H6  UNL     1      10.952  21.210   7.004  1.00  0.00     0.188 HD
HETATM    8  C6  UNL     1      12.098  20.809   5.286  1.00  0.00     0.138 A 
ENDROOT
BRANCH   8   9
HETATM    9  C7  UNL     1      11.154  21.189   4.230  1.00  0.00     0.271 C 
HETATM   10  O2  UNL     1      10.587  20.246   3.628  1.00  0.00    -0.266 OA
HETATM   11  N7  UNL     1      10.883  22.525   3.895  1.00  0.00    -0.356 N 
ATOM     12  H7  UNL     1      11.379  23.237   4.430  1.00  0.00     0.162 HD
BRANCH  11  13
HETATM   13  C8  UNL     1       9.987  22.997   2.886  1.00  0.00     0.124 C 
BRANCH  13  14
HETATM   14  C9  UNL     1      10.715  23.558   1.715  1.00  0.00     0.041 C 
BRANCH  14  15
HETATM   15  C10 UNL     1      10.404  22.791   0.426  1.00  0.00     0.150 C 
BRANCH  15  16
HETATM   16  N8  UNL     1       9.112  23.261  -0.039  1.00  0.00    -0.258 N 
HETATM   17  N9  UNL     1       8.603  24.481   0.070  1.00  0.00    -0.018 NA
HETATM   18  N10 UNL     1       7.392  24.525  -0.477  1.00  0.00    -0.277 N 
HETATM   19  C11 UNL     1       7.099  23.309  -0.956  1.00  0.00     0.136 A 
ATOM     20  H10 UNL     1       6.788  25.346  -0.524  1.00  0.00     0.184 HD
HETATM   21  C12 UNL     1       5.994  22.792  -1.613  1.00  0.00     0.146 A 
HETATM   22  C14 UNL     1       8.197  22.499  -0.677  1.00  0.00     0.168 A 
HETATM   23  N12 UNL     1       5.997  21.498  -1.977  1.00  0.00    -0.175 N 
HETATM   24  C13 UNL     1       7.052  20.707  -1.712  1.00  0.00     0.679 A 
ATOM     25  H12 UNL     1       5.187  21.110  -2.460  1.00  0.00     0.186 HD
HETATM   26  N14 UNL     1       8.132  21.214  -1.069  1.00  0.00    -0.173 N 
ATOM     27  H14 UNL     1       8.922  20.599  -0.876  1.00  0.00     0.186 HD
BRANCH  21  28
HETATM   28  N11 UNL     1       4.962  23.533  -1.881  1.00  0.00    -0.383 N 
ATOM     29 2H11 UNL     1       4.432  23.954  -1.119  1.00  0.00     0.157 HD
ATOM     30 1H11 UNL     1       4.668  23.704  -2.843  1.00  0.00     0.157 HD
ENDBRANCH  21  28
BRANCH  24  31
HETATM   31  N13 UNL     1       7.023  19.463  -2.076  1.00  0.00    -0.234 N 
ATOM     32 2H13 UNL     1       7.738  19.087  -2.699  1.00  0.00     0.174 HD
ATOM     33 1H13 UNL     1       6.277  18.858  -1.735  1.00  0.00     0.174 HD
ENDBRANCH  24  31
ENDBRANCH  15  16
ENDBRANCH  14  15
ENDBRANCH  13  14
ENDBRANCH  11  13
ENDBRANCH   8   9
BRANCH   5  34
HETATM   34  C4  UNL     1      12.937  20.421   8.761  1.00  0.00     0.194 A 
HETATM   35  N3  UNL     1      13.774  21.089   9.580  1.00  0.00    -0.220 N 
HETATM   36  O1  UNL     1      13.522  20.763  10.812  1.00  0.00    -0.153 OA
ATOM     37  H3  UNL     1      14.492  21.748   9.280  1.00  0.00     0.198 HD
HETATM   38  N4  UNL     1      12.551  19.901  10.878  1.00  0.00    -0.222 N 
HETATM   39  C5  UNL     1      12.151  19.656   9.598  1.00  0.00     0.169 A 
ATOM     40  H4  UNL     1      12.163  19.486  11.726  1.00  0.00     0.198 HD
HETATM   41  N5  UNL     1      11.207  18.856   9.215  1.00  0.00    -0.381 N 
ATOM     42  H52 UNL     1      10.907  18.674   8.257  1.00  0.00     0.157 HD
ATOM     43  H51 UNL     1      10.625  18.291   9.834  1.00  0.00     0.157 HD
ENDBRANCH   5  34
TORSDOF 8
ENDMDL
