MODEL 1
REMARK VINA RESULT: -6.747611223      0.000      0.000
REMARK  2 active torsions:
REMARK  status: ('A' for Active; 'I' for Inactive)
REMARK    1  A    between atoms: N1_1  and  N2_4 
REMARK    2  A    between atoms: N2_4  and  C1_5 
ROOT
HETATM    1  C1  UNL     1       8.261  -7.167   9.767  1.00  0.00     0.233 C 
HETATM    2  C2  UNL     1       9.764  -7.113   9.744  1.00  0.00     0.051 C 
HETATM    3  C3  UNL     1      10.379  -7.719  10.981  1.00  0.00     0.004 C 
HETATM    4  C4  UNL     1      10.510  -9.229  10.855  1.00  0.00     0.000 C 
HETATM    5  C5  UNL     1       9.536  -9.953  11.753  1.00  0.00     0.000 C 
HETATM    6  C6  UNL     1       8.658 -10.921  10.982  1.00  0.00     0.000 C 
HETATM    7  C7  UNL     1       7.370 -11.223  11.677  1.00  0.00     0.000 C 
HETATM    8  C8  UNL     1       6.199 -10.446  11.178  1.00  0.00     0.000 C 
HETATM    9  C9  UNL     1       5.778  -9.361  12.124  1.00  0.00     0.000 C 
HETATM   10  C10 UNL     1       4.854  -8.365  11.493  1.00  0.00     0.002 C 
HETATM   11  C11 UNL     1       5.492  -7.544  10.417  1.00  0.00     0.026 C 
HETATM   12  C12 UNL     1       6.412  -6.491  10.968  1.00  0.00     0.170 C 
HETATM   13  O1  UNL     1       7.732  -6.847  10.990  1.00  0.00    -0.368 OA
ENDROOT
BRANCH   1  14
HETATM   14  N2  UNL     1       7.740  -6.346   8.692  1.00  0.00    -0.116 NA
BRANCH  14  15
HETATM   15  N1  UNL     1       8.704  -5.906   7.810  1.00  0.00    -0.346 N 
ATOM     16  H12 UNL     1       9.005  -6.463   7.010  1.00  0.00     0.172 HD
ATOM     17  H11 UNL     1       9.079  -4.985   8.036  1.00  0.00     0.172 HD
ENDBRANCH  14  15
ENDBRANCH   1  14
TORSDOF 2
ENDMDL
MODEL 2
REMARK VINA RESULT: -6.702559797      2.760      4.065
REMARK  2 active torsions:
REMARK  status: ('A' for Active; 'I' for Inactive)
REMARK    1  A    between atoms: N1_1  and  N2_4 
REMARK    2  A    between atoms: N2_4  and  C1_5 
ROOT
HETATM    1  C1  UNL     1       9.974  -9.013  11.951  1.00  0.00     0.233 C 
HETATM    2  C2  UNL     1      11.197  -8.231  11.554  1.00  0.00     0.051 C 
HETATM    3  C3  UNL     1      11.259  -7.978  10.068  1.00  0.00     0.004 C 
HETATM    4  C4  UNL     1      10.446  -6.753   9.679  1.00  0.00     0.000 C 
HETATM    5  C5  UNL     1       9.194  -7.129   8.922  1.00  0.00     0.000 C 
HETATM    6  C6  UNL     1       7.943  -6.572   9.575  1.00  0.00     0.000 C 
HETATM    7  C7  UNL     1       6.709  -7.339   9.225  1.00  0.00     0.000 C 
HETATM    8  C8  UNL     1       6.279  -8.328  10.255  1.00  0.00     0.000 C 
HETATM    9  C9  UNL     1       6.567  -9.744   9.855  1.00  0.00     0.000 C 
HETATM   10  C10 UNL     1       6.472 -10.703  11.001  1.00  0.00     0.002 C 
HETATM   11  C11 UNL     1       7.525 -10.505  12.045  1.00  0.00     0.026 C 
HETATM   12  C12 UNL     1       8.871 -11.009  11.606  1.00  0.00     0.170 C 
HETATM   13  O1  UNL     1       9.697 -10.046  11.095  1.00  0.00    -0.368 OA
ENDROOT
BRANCH   1  14
HETATM   14  N2  UNL     1      10.110  -9.440  13.329  1.00  0.00    -0.116 NA
BRANCH  14  15
HETATM   15  N1  UNL     1       9.602  -8.541  14.243  1.00  0.00    -0.346 N 
ATOM     16  H12 UNL     1       9.051  -8.837  15.050  1.00  0.00     0.172 HD
ATOM     17  H11 UNL     1       9.828  -7.568  14.033  1.00  0.00     0.172 HD
ENDBRANCH  14  15
ENDBRANCH   1  14
TORSDOF 2
ENDMDL
MODEL 3
REMARK VINA RESULT: -6.676018716      2.363      3.967
REMARK  2 active torsions:
REMARK  status: ('A' for Active; 'I' for Inactive)
REMARK    1  A    between atoms: N1_1  and  N2_4 
REMARK    2  A    between atoms: N2_4  and  C1_5 
ROOT
HETATM    1  C1  UNL     1      10.112  -8.213  11.322  1.00  0.00     0.233 C 
HETATM    2  C2  UNL     1      10.288  -7.036  10.402  1.00  0.00     0.051 C 
HETATM    3  C3  UNL     1       9.422  -7.137   9.170  1.00  0.00     0.004 C 
HETATM    4  C4  UNL     1       8.016  -6.619   9.435  1.00  0.00     0.000 C 
HETATM    5  C5  UNL     1       7.003  -7.739   9.466  1.00  0.00     0.000 C 
HETATM    6  C6  UNL     1       6.212  -7.758  10.760  1.00  0.00     0.000 C 
HETATM    7  C7  UNL     1       5.634  -9.100  11.073  1.00  0.00     0.000 C 
HETATM    8  C8  UNL     1       6.423  -9.902  12.053  1.00  0.00     0.000 C 
HETATM    9  C9  UNL     1       7.177 -11.027  11.408  1.00  0.00     0.000 C 
HETATM   10  C10 UNL     1       8.230 -11.607  12.300  1.00  0.00     0.002 C 
HETATM   11  C11 UNL     1       9.357 -10.670  12.598  1.00  0.00     0.026 C 
HETATM   12  C12 UNL     1      10.293 -10.509  11.432  1.00  0.00     0.170 C 
HETATM   13  O1  UNL     1      10.049  -9.409  10.658  1.00  0.00    -0.368 OA
ENDROOT
BRANCH   1  14
HETATM   14  N2  UNL     1      11.147  -8.182  12.336  1.00  0.00    -0.116 NA
BRANCH  14  15
HETATM   15  N1  UNL     1      10.841  -7.385  13.419  1.00  0.00    -0.346 N 
ATOM     16  H12 UNL     1       9.944  -7.444  13.902  1.00  0.00     0.172 HD
ATOM     17  H11 UNL     1      11.589  -6.743  13.683  1.00  0.00     0.172 HD
ENDBRANCH  14  15
ENDBRANCH   1  14
TORSDOF 2
ENDMDL
MODEL 4
REMARK VINA RESULT: -6.631838175      2.322      4.085
REMARK  2 active torsions:
REMARK  status: ('A' for Active; 'I' for Inactive)
REMARK    1  A    between atoms: N1_1  and  N2_4 
REMARK    2  A    between atoms: N2_4  and  C1_5 
ROOT
HETATM    1  C1  UNL     1       6.184  -9.408  11.286  1.00  0.00     0.233 C 
HETATM    2  C2  UNL     1       6.176 -10.797  11.864  1.00  0.00     0.051 C 
HETATM    3  C3  UNL     1       7.337 -11.627  11.378  1.00  0.00     0.004 C 
HETATM    4  C4  UNL     1       8.587 -11.375  12.207  1.00  0.00     0.000 C 
HETATM    5  C5  UNL     1       9.630 -10.608  11.429  1.00  0.00     0.000 C 
HETATM    6  C6  UNL     1      10.056  -9.339  12.143  1.00  0.00     0.000 C 
HETATM    7  C7  UNL     1      10.620  -8.309  11.219  1.00  0.00     0.000 C 
HETATM    8  C8  UNL     1       9.660  -7.241  10.818  1.00  0.00     0.000 C 
HETATM    9  C9  UNL     1       9.177  -7.396   9.406  1.00  0.00     0.000 C 
HETATM   10  C10 UNL     1       7.969  -6.562   9.111  1.00  0.00     0.002 C 
HETATM   11  C11 UNL     1       6.743  -6.984   9.857  1.00  0.00     0.026 C 
HETATM   12  C12 UNL     1       6.135  -8.239   9.298  1.00  0.00     0.170 C 
HETATM   13  O1  UNL     1       6.498  -9.384   9.953  1.00  0.00    -0.368 OA
ENDROOT
BRANCH   1  14
HETATM   14  N2  UNL     1       4.920  -8.762  11.583  1.00  0.00    -0.116 NA
BRANCH  14  15
HETATM   15  N1  UNL     1       4.901  -8.108  12.796  1.00  0.00    -0.346 N 
ATOM     16  H12 UNL     1       4.434  -8.496  13.616  1.00  0.00     0.172 HD
ATOM     17  H11 UNL     1       5.393  -7.214  12.790  1.00  0.00     0.172 HD
ENDBRANCH  14  15
ENDBRANCH   1  14
TORSDOF 2
ENDMDL
MODEL 5
REMARK VINA RESULT: -6.587965195      2.094      3.647
REMARK  2 active torsions:
REMARK  status: ('A' for Active; 'I' for Inactive)
REMARK    1  A    between atoms: N1_1  and  N2_4 
REMARK    2  A    between atoms: N2_4  and  C1_5 
ROOT
HETATM    1  C1  UNL     1       6.461  -8.819   9.812  1.00  0.00     0.233 C 
HETATM    2  C2  UNL     1       6.450  -7.583   8.955  1.00  0.00     0.051 C 
HETATM    3  C3  UNL     1       7.342  -6.497   9.503  1.00  0.00     0.004 C 
HETATM    4  C4  UNL     1       8.786  -6.690   9.067  1.00  0.00     0.000 C 
HETATM    5  C5  UNL     1       9.666  -7.117  10.218  1.00  0.00     0.000 C 
HETATM    6  C6  UNL     1      10.404  -8.409   9.924  1.00  0.00     0.000 C 
HETATM    7  C7  UNL     1      10.817  -9.142  11.159  1.00  0.00     0.000 C 
HETATM    8  C8  UNL     1       9.911 -10.259  11.551  1.00  0.00     0.000 C 
HETATM    9  C9  UNL     1       9.059  -9.926  12.739  1.00  0.00     0.000 C 
HETATM   10  C10 UNL     1       7.917 -10.877  12.921  1.00  0.00     0.002 C 
HETATM   11  C11 UNL     1       6.892 -10.809  11.834  1.00  0.00     0.026 C 
HETATM   12  C12 UNL     1       6.021  -9.589  11.942  1.00  0.00     0.170 C 
HETATM   13  O1  UNL     1       6.413  -8.542  11.153  1.00  0.00    -0.368 OA
ENDROOT
BRANCH   1  14
HETATM   14  N2  UNL     1       5.401  -9.708   9.379  1.00  0.00    -0.116 NA
BRANCH  14  15
HETATM   15  N1  UNL     1       4.504  -9.122   8.510  1.00  0.00    -0.346 N 
ATOM     16  H12 UNL     1       3.959  -8.298   8.765  1.00  0.00     0.172 HD
ATOM     17  H11 UNL     1       4.444  -9.588   7.605  1.00  0.00     0.172 HD
ENDBRANCH  14  15
ENDBRANCH   1  14
TORSDOF 2
ENDMDL
