MODEL 1
REMARK VINA RESULT: -7.750430051      0.000      0.000
REMARK  4 active torsions:
REMARK  status: ('A' for Active; 'I' for Inactive)
REMARK    1  A    between atoms: C8_9  and  O2_10 
REMARK    2  A    between atoms: C8_9  and  C9_12 
REMARK    3  A    between atoms: C9_12  and  C10_14 
REMARK    4  A    between atoms: C10_14  and  O4_15 
ROOT
HETATM    1  C1  UNL     1       2.015 -26.270  25.751  1.00  0.00     0.043 C 
HETATM    2  C2  UNL     1       2.133 -24.909  25.096  1.00  0.00    -0.087 C 
HETATM    3  C3  UNL     1       2.178 -23.916  25.955  1.00  0.00    -0.024 C 
HETATM    4  C4  UNL     1       2.295 -22.471  25.569  1.00  0.00     0.030 C 
HETATM    5  C5  UNL     1       3.666 -22.040  25.767  1.00  0.00     0.042 C 
HETATM    6  C6  UNL     1       4.452 -21.439  24.653  1.00  0.00     0.072 C 
HETATM    7  C7  UNL     1       3.659 -20.331  24.008  1.00  0.00     0.047 C 
HETATM    8  O1  UNL     1       5.600 -21.040  25.268  1.00  0.00    -0.337 OA
HETATM    9  C8  UNL     1       6.162 -19.846  25.127  1.00  0.00     0.232 C 
HETATM   10  C11 UNL     1       7.030 -19.906  23.879  1.00  0.00     0.122 C 
HETATM   11  C12 UNL     1       7.292 -21.257  23.413  1.00  0.00     0.027 C 
HETATM   12  C13 UNL     1       8.539 -21.472  23.035  1.00  0.00     0.113 C 
HETATM   13 CL1  UNL     1       8.955 -23.080  22.455  1.00  0.00    -0.070 Cl
HETATM   14 CL2  UNL     1       9.784 -20.274  23.077  1.00  0.00    -0.070 Cl
HETATM   15  C14 UNL     1       6.345 -22.356  23.324  1.00  0.00     0.165 C 
HETATM   16  O5  UNL     1       6.880 -23.440  23.006  1.00  0.00    -0.292 OA
HETATM   17  C15 UNL     1       4.881 -22.365  23.552  1.00  0.00     0.095 C 
HETATM   18  C16 UNL     1       4.440 -23.796  23.684  1.00  0.00     0.016 C 
HETATM   19  C17 UNL     1       3.136 -24.034  22.937  1.00  0.00     0.005 C 
HETATM   20  C18 UNL     1       2.176 -24.896  23.644  1.00  0.00     0.033 C 
ENDROOT
BRANCH   9  21
HETATM   21  O2  UNL     1       5.405 -18.729  25.048  1.00  0.00    -0.359 OA
ATOM     22  H2  UNL     1       5.588 -17.978  25.599  1.00  0.00     0.213 HD
ENDBRANCH   9  21
BRANCH   9  23
HETATM   23  C9  UNL     1       7.091 -19.665  26.272  1.00  0.00     0.211 C 
HETATM   24  O3  UNL     1       7.275 -20.653  26.976  1.00  0.00    -0.290 OA
BRANCH  23  25
HETATM   25  C10 UNL     1       7.789 -18.417  26.618  1.00  0.00     0.248 C 
BRANCH  25  26
HETATM   26  O4  UNL     1       9.113 -18.398  26.209  1.00  0.00    -0.393 OA
ATOM     27  H4  UNL     1       9.270 -18.900  25.418  1.00  0.00     0.209 HD
ENDBRANCH  25  26
ENDBRANCH  23  25
ENDBRANCH   9  23
TORSDOF 4
ENDMDL
MODEL 2
REMARK VINA RESULT: -7.173721438      2.935      5.605
REMARK  4 active torsions:
REMARK  status: ('A' for Active; 'I' for Inactive)
REMARK    1  A    between atoms: C8_9  and  O2_10 
REMARK    2  A    between atoms: C8_9  and  C9_12 
REMARK    3  A    between atoms: C9_12  and  C10_14 
REMARK    4  A    between atoms: C10_14  and  O4_15 
ROOT
HETATM    1  C1  UNL     1       1.348 -16.197  19.936  1.00  0.00     0.043 C 
HETATM    2  C2  UNL     1       1.209 -17.021  21.200  1.00  0.00    -0.087 C 
HETATM    3  C3  UNL     1       1.059 -18.307  20.974  1.00  0.00    -0.024 C 
HETATM    4  C4  UNL     1       0.901 -19.340  22.050  1.00  0.00     0.030 C 
HETATM    5  C5  UNL     1       2.164 -20.033  22.227  1.00  0.00     0.042 C 
HETATM    6  C6  UNL     1       2.827 -20.091  23.561  1.00  0.00     0.072 C 
HETATM    7  C7  UNL     1       1.840 -20.557  24.601  1.00  0.00     0.047 C 
HETATM    8  O1  UNL     1       3.874 -20.935  23.345  1.00  0.00    -0.337 OA
HETATM    9  C8  UNL     1       4.200 -21.958  24.125  1.00  0.00     0.232 C 
HETATM   10  C11 UNL     1       5.069 -21.406  25.244  1.00  0.00     0.122 C 
HETATM   11  C12 UNL     1       5.587 -20.075  24.981  1.00  0.00     0.027 C 
HETATM   12  C13 UNL     1       6.854 -19.906  25.312  1.00  0.00     0.113 C 
HETATM   13 CL1  UNL     1       7.571 -18.324  25.030  1.00  0.00    -0.070 Cl
HETATM   14 CL2  UNL     1       7.847 -21.140  26.002  1.00  0.00    -0.070 Cl
HETATM   15  C14 UNL     1       4.867 -18.949  24.409  1.00  0.00     0.165 C 
HETATM   16  O5  UNL     1       5.600 -17.962  24.181  1.00  0.00    -0.292 OA
HETATM   17  C15 UNL     1       3.430 -18.816  24.073  1.00  0.00     0.095 C 
HETATM   18  C16 UNL     1       3.269 -17.609  23.191  1.00  0.00     0.016 C 
HETATM   19  C17 UNL     1       2.038 -16.807  23.587  1.00  0.00     0.005 C 
HETATM   20  C18 UNL     1       1.256 -16.289  22.454  1.00  0.00     0.033 C 
ENDROOT
BRANCH   9  21
HETATM   21  O2  UNL     1       3.244 -22.729  24.689  1.00  0.00    -0.359 OA
ATOM     22  H2  UNL     1       3.407 -23.185  25.506  1.00  0.00     0.213 HD
ENDBRANCH   9  21
BRANCH   9  23
HETATM   23  C9  UNL     1       5.070 -22.855  23.323  1.00  0.00     0.211 C 
HETATM   24  O3  UNL     1       4.571 -23.922  22.979  1.00  0.00    -0.290 OA
BRANCH  23  25
HETATM   25  C10 UNL     1       6.455 -22.567  22.921  1.00  0.00     0.248 C 
BRANCH  25  26
HETATM   26  O4  UNL     1       6.569 -21.455  22.101  1.00  0.00    -0.393 OA
ATOM     27  H4  UNL     1       7.390 -21.421  21.625  1.00  0.00     0.209 HD
ENDBRANCH  25  26
ENDBRANCH  23  25
ENDBRANCH   9  23
TORSDOF 4
ENDMDL
MODEL 3
REMARK VINA RESULT: -7.049284279      3.015      5.836
REMARK  4 active torsions:
REMARK  status: ('A' for Active; 'I' for Inactive)
REMARK    1  A    between atoms: C8_9  and  O2_10 
REMARK    2  A    between atoms: C8_9  and  C9_12 
REMARK    3  A    between atoms: C9_12  and  C10_14 
REMARK    4  A    between atoms: C10_14  and  O4_15 
ROOT
HETATM    1  C1  UNL     1       1.351 -15.842  20.008  1.00  0.00     0.043 C 
HETATM    2  C2  UNL     1       1.227 -16.681  21.264  1.00  0.00    -0.087 C 
HETATM    3  C3  UNL     1       1.063 -17.962  21.024  1.00  0.00    -0.024 C 
HETATM    4  C4  UNL     1       0.914 -19.008  22.089  1.00  0.00     0.030 C 
HETATM    5  C5  UNL     1       2.174 -19.712  22.236  1.00  0.00     0.042 C 
HETATM    6  C6  UNL     1       2.860 -19.793  23.557  1.00  0.00     0.072 C 
HETATM    7  C7  UNL     1       1.887 -20.264  24.609  1.00  0.00     0.047 C 
HETATM    8  O1  UNL     1       3.896 -20.642  23.313  1.00  0.00    -0.337 OA
HETATM    9  C8  UNL     1       4.226 -21.678  24.074  1.00  0.00     0.232 C 
HETATM   10  C11 UNL     1       5.119 -21.147  25.185  1.00  0.00     0.122 C 
HETATM   11  C12 UNL     1       5.643 -19.817  24.930  1.00  0.00     0.027 C 
HETATM   12  C13 UNL     1       6.917 -19.662  25.241  1.00  0.00     0.113 C 
HETATM   13 CL1  UNL     1       7.642 -18.082  24.967  1.00  0.00    -0.070 Cl
HETATM   14 CL2  UNL     1       7.912 -20.913  25.899  1.00  0.00    -0.070 Cl
HETATM   15  C14 UNL     1       4.923 -18.678  24.385  1.00  0.00     0.165 C 
HETATM   16  O5  UNL     1       5.660 -17.695  24.157  1.00  0.00    -0.292 OA
HETATM   17  C15 UNL     1       3.482 -18.530  24.075  1.00  0.00     0.095 C 
HETATM   18  C16 UNL     1       3.315 -17.310  23.211  1.00  0.00     0.016 C 
HETATM   19  C17 UNL     1       2.098 -16.504  23.638  1.00  0.00     0.005 C 
HETATM   20  C18 UNL     1       1.301 -15.965  22.526  1.00  0.00     0.033 C 
ENDROOT
BRANCH   9  21
HETATM   21  O2  UNL     1       3.274 -22.449  24.645  1.00  0.00    -0.359 OA
ATOM     22  H2  UNL     1       3.275 -22.608  25.581  1.00  0.00     0.213 HD
ENDBRANCH   9  21
BRANCH   9  23
HETATM   23  C9  UNL     1       5.076 -22.572  23.247  1.00  0.00     0.211 C 
HETATM   24  O3  UNL     1       5.891 -22.016  22.518  1.00  0.00    -0.290 OA
BRANCH  23  25
HETATM   25  C10 UNL     1       5.013 -24.042  23.236  1.00  0.00     0.248 C 
BRANCH  25  26
HETATM   26  O4  UNL     1       5.248 -24.611  24.478  1.00  0.00    -0.393 OA
ATOM     27  H4  UNL     1       5.618 -25.484  24.427  1.00  0.00     0.209 HD
ENDBRANCH  25  26
ENDBRANCH  23  25
ENDBRANCH   9  23
TORSDOF 4
ENDMDL
MODEL 4
REMARK VINA RESULT: -6.980619736      2.788      5.284
REMARK  4 active torsions:
REMARK  status: ('A' for Active; 'I' for Inactive)
REMARK    1  A    between atoms: C8_9  and  O2_10 
REMARK    2  A    between atoms: C8_9  and  C9_12 
REMARK    3  A    between atoms: C9_12  and  C10_14 
REMARK    4  A    between atoms: C10_14  and  O4_15 
ROOT
HETATM    1  C1  UNL     1       0.591 -17.481  19.684  1.00  0.00     0.043 C 
HETATM    2  C2  UNL     1       0.639 -18.334  20.935  1.00  0.00    -0.087 C 
HETATM    3  C3  UNL     1       0.834 -19.611  20.691  1.00  0.00    -0.024 C 
HETATM    4  C4  UNL     1       0.923 -20.668  21.751  1.00  0.00     0.030 C 
HETATM    5  C5  UNL     1       2.317 -21.013  21.957  1.00  0.00     0.042 C 
HETATM    6  C6  UNL     1       2.940 -20.921  23.308  1.00  0.00     0.072 C 
HETATM    7  C7  UNL     1       2.083 -21.644  24.316  1.00  0.00     0.047 C 
HETATM    8  O1  UNL     1       4.175 -21.460  23.113  1.00  0.00    -0.337 OA
HETATM    9  C8  UNL     1       4.736 -22.377  23.892  1.00  0.00     0.232 C 
HETATM   10  C11 UNL     1       5.405 -21.638  25.040  1.00  0.00     0.122 C 
HETATM   11  C12 UNL     1       5.565 -20.214  24.806  1.00  0.00     0.027 C 
HETATM   12  C13 UNL     1       6.736 -19.727  25.174  1.00  0.00     0.113 C 
HETATM   13 CL1  UNL     1       7.025 -18.009  24.930  1.00  0.00    -0.070 Cl
HETATM   14 CL2  UNL     1       7.999 -20.673  25.879  1.00  0.00    -0.070 Cl
HETATM   15  C14 UNL     1       4.592 -19.303  24.226  1.00  0.00     0.165 C 
HETATM   16  O5  UNL     1       5.049 -18.156  24.029  1.00  0.00    -0.292 OA
HETATM   17  C15 UNL     1       3.179 -19.542  23.850  1.00  0.00     0.095 C 
HETATM   18  C16 UNL     1       2.731 -18.403  22.976  1.00  0.00     0.016 C 
HETATM   19  C17 UNL     1       1.325 -17.954  23.346  1.00  0.00     0.005 C 
HETATM   20  C18 UNL     1       0.463 -17.637  22.197  1.00  0.00     0.033 C 
ENDROOT
BRANCH   9  21
HETATM   21  O2  UNL     1       4.000 -23.379  24.420  1.00  0.00    -0.359 OA
ATOM     22  H2  UNL     1       4.117 -23.643  25.325  1.00  0.00     0.213 HD
ENDBRANCH   9  21
BRANCH   9  23
HETATM   23  C9  UNL     1       5.829 -23.004  23.106  1.00  0.00     0.211 C 
HETATM   24  O3  UNL     1       5.820 -24.229  23.053  1.00  0.00    -0.290 OA
BRANCH  23  25
HETATM   25  C10 UNL     1       6.899 -22.280  22.402  1.00  0.00     0.248 C 
BRANCH  25  26
HETATM   26  O4  UNL     1       7.980 -23.083  22.071  1.00  0.00    -0.393 OA
ATOM     27  H4  UNL     1       8.542 -23.281  22.811  1.00  0.00     0.209 HD
ENDBRANCH  25  26
ENDBRANCH  23  25
ENDBRANCH   9  23
TORSDOF 4
ENDMDL
MODEL 5
REMARK VINA RESULT: -6.740036451      2.948      6.586
REMARK  4 active torsions:
REMARK  status: ('A' for Active; 'I' for Inactive)
REMARK    1  A    between atoms: C8_9  and  O2_10 
REMARK    2  A    between atoms: C8_9  and  C9_12 
REMARK    3  A    between atoms: C9_12  and  C10_14 
REMARK    4  A    between atoms: C10_14  and  O4_15 
ROOT
HETATM    1  C1  UNL     1      12.669 -18.916  21.497  1.00  0.00     0.043 C 
HETATM    2  C2  UNL     1      11.902 -19.063  22.795  1.00  0.00    -0.087 C 
HETATM    3  C3  UNL     1      11.306 -17.956  23.180  1.00  0.00    -0.024 C 
HETATM    4  C4  UNL     1      10.483 -17.831  24.428  1.00  0.00     0.030 C 
HETATM    5  C5  UNL     1       9.077 -17.867  24.071  1.00  0.00     0.042 C 
HETATM    6  C6  UNL     1       8.155 -18.868  24.677  1.00  0.00     0.072 C 
HETATM    7  C7  UNL     1       8.298 -18.851  26.177  1.00  0.00     0.047 C 
HETATM    8  O1  UNL     1       6.935 -18.481  24.212  1.00  0.00    -0.337 OA
HETATM    9  C8  UNL     1       5.846 -18.342  24.959  1.00  0.00     0.232 C 
HETATM   10  C11 UNL     1       5.202 -19.715  25.069  1.00  0.00     0.122 C 
HETATM   11  C12 UNL     1       5.698 -20.674  24.097  1.00  0.00     0.027 C 
HETATM   12  C13 UNL     1       4.762 -21.420  23.539  1.00  0.00     0.113 C 
HETATM   13 CL1  UNL     1       5.265 -22.612  22.347  1.00  0.00    -0.070 Cl
HETATM   14 CL2  UNL     1       3.078 -21.295  23.907  1.00  0.00    -0.070 Cl
HETATM   15  C14 UNL     1       7.078 -20.885  23.695  1.00  0.00     0.165 C 
HETATM   16  O5  UNL     1       7.196 -21.690  22.747  1.00  0.00    -0.292 OA
HETATM   17  C15 UNL     1       8.323 -20.294  24.239  1.00  0.00     0.095 C 
HETATM   18  C16 UNL     1       9.431 -20.556  23.257  1.00  0.00     0.016 C 
HETATM   19  C17 UNL     1      10.709 -20.964  23.974  1.00  0.00     0.005 C 
HETATM   20  C18 UNL     1      11.936 -20.374  23.419  1.00  0.00     0.033 C 
ENDROOT
BRANCH   9  21
HETATM   21  O2  UNL     1       5.924 -17.823  26.205  1.00  0.00    -0.359 OA
ATOM     22  H2  UNL     1       5.999 -16.885  26.336  1.00  0.00     0.213 HD
ENDBRANCH   9  21
BRANCH   9  23
HETATM   23  C9  UNL     1       4.898 -17.496  24.191  1.00  0.00     0.211 C 
HETATM   24  O3  UNL     1       5.379 -16.857  23.261  1.00  0.00    -0.290 OA
BRANCH  23  25
HETATM   25  C10 UNL     1       3.456 -17.370  24.456  1.00  0.00     0.248 C 
BRANCH  25  26
HETATM   26  O4  UNL     1       3.161 -16.472  25.470  1.00  0.00    -0.393 OA
ATOM     27  H4  UNL     1       2.823 -16.888  26.254  1.00  0.00     0.209 HD
ENDBRANCH  25  26
ENDBRANCH  23  25
ENDBRANCH   9  23
TORSDOF 4
ENDMDL
