MODEL 1
REMARK VINA RESULT: -7.002467373      0.000      0.000
REMARK  2 active torsions:
REMARK  status: ('A' for Active; 'I' for Inactive)
REMARK    1  A    between atoms: C14_18  and  C15_19 
REMARK    2  A    between atoms: C17_23  and  O2_24 
ROOT
HETATM    1  C1  UNL     1       6.755 -22.372  22.053  1.00  0.00     0.145 C 
HETATM    2  N1  UNL     1       5.615 -22.075  22.768  1.00  0.00    -0.189 NA
HETATM    3  O1  UNL     1       5.606 -21.539  23.914  1.00  0.00    -0.289 OA
HETATM    4  C2  UNL     1       4.589 -21.679  24.755  1.00  0.00     0.117 C 
HETATM    5  C3  UNL     1       4.048 -22.358  25.898  1.00  0.00     0.052 C 
HETATM    6  C4  UNL     1       4.952 -20.459  25.418  1.00  0.00     0.045 C 
HETATM    7  C5  UNL     1       6.311 -20.783  26.032  1.00  0.00     0.067 C 
HETATM    8  C6  UNL     1       7.359 -19.749  25.606  1.00  0.00     0.013 C 
HETATM    9  C7  UNL     1       6.844 -18.411  26.063  1.00  0.00     0.001 C 
HETATM   10  C8  UNL     1       5.532 -18.086  25.416  1.00  0.00     0.009 C 
HETATM   11  C9  UNL     1       5.056 -19.201  24.512  1.00  0.00     0.025 C 
HETATM   12  C10 UNL     1       3.796 -18.964  23.821  1.00  0.00    -0.045 C 
HETATM   13  C11 UNL     1       3.092 -19.824  23.078  1.00  0.00    -0.067 C 
HETATM   14  C12 UNL     1       1.823 -19.397  22.459  1.00  0.00     0.078 C 
HETATM   15  C13 UNL     1       1.195 -18.194  22.998  1.00  0.00     0.060 C 
HETATM   16  N2  UNL     1       1.872 -17.549  24.046  1.00  0.00    -0.389 N 
ATOM     17  H2  UNL     1       1.368 -17.100  24.810  1.00  0.00     0.159 HD
HETATM   18  C14 UNL     1       3.306 -17.551  23.993  1.00  0.00     0.176 C 
HETATM   19  C16 UNL     1       3.401 -21.242  22.680  1.00  0.00     0.078 C 
HETATM   20  C17 UNL     1       3.740 -22.201  23.733  1.00  0.00     0.116 C 
HETATM   21  C18 UNL     1       4.832 -23.228  23.260  1.00  0.00     0.146 C 
HETATM   22  C19 UNL     1       5.669 -23.879  24.242  1.00  0.00     0.002 C 
HETATM   23  C20 UNL     1       6.861 -23.379  24.943  1.00  0.00     0.048 C 
HETATM   24  C21 UNL     1       6.874 -22.167  25.782  1.00  0.00     0.153 C 
HETATM   25  O3  UNL     1       7.691 -22.313  26.680  1.00  0.00    -0.293 OA
ENDROOT
BRANCH  18  26
HETATM   26  C15 UNL     1       3.758 -16.609  22.918  1.00  0.00     0.379 C 
HETATM   27  F1  UNL     1       3.101 -15.429  22.818  1.00  0.00    -0.212 F 
HETATM   28  F2  UNL     1       5.111 -16.261  23.118  1.00  0.00    -0.212 F 
ENDBRANCH  18  26
BRANCH  20  29
HETATM   29  O2  UNL     1       2.672 -23.038  24.047  1.00  0.00    -0.384 OA
ATOM     30  H2  UNL     1       2.415 -23.742  23.463  1.00  0.00     0.210 HD
ENDBRANCH  20  29
TORSDOF 2
ENDMDL
MODEL 2
REMARK VINA RESULT: -6.902421418      2.992      5.187
REMARK  2 active torsions:
REMARK  status: ('A' for Active; 'I' for Inactive)
REMARK    1  A    between atoms: C14_18  and  C15_19 
REMARK    2  A    between atoms: C17_23  and  O2_24 
ROOT
HETATM    1  C1  UNL     1       6.840 -22.679  27.002  1.00  0.00     0.145 C 
HETATM    2  N1  UNL     1       7.265 -22.400  25.721  1.00  0.00    -0.189 NA
HETATM    3  O1  UNL     1       6.729 -21.546  24.958  1.00  0.00    -0.289 OA
HETATM    4  C2  UNL     1       6.834 -21.609  23.636  1.00  0.00     0.117 C 
HETATM    5  C3  UNL     1       6.231 -21.990  22.390  1.00  0.00     0.052 C 
HETATM    6  C4  UNL     1       6.597 -20.198  23.535  1.00  0.00     0.045 C 
HETATM    7  C5  UNL     1       5.162 -20.046  24.033  1.00  0.00     0.067 C 
HETATM    8  C6  UNL     1       5.088 -19.014  25.165  1.00  0.00     0.013 C 
HETATM    9  C7  UNL     1       5.622 -17.726  24.600  1.00  0.00     0.001 C 
HETATM   10  C8  UNL     1       7.046 -17.878  24.157  1.00  0.00     0.009 C 
HETATM   11  C9  UNL     1       7.553 -19.289  24.357  1.00  0.00     0.025 C 
HETATM   12  C10 UNL     1       8.938 -19.527  23.975  1.00  0.00    -0.045 C 
HETATM   13  C11 UNL     1       9.587 -20.695  23.924  1.00  0.00    -0.067 C 
HETATM   14  C12 UNL     1      11.000 -20.735  23.501  1.00  0.00     0.078 C 
HETATM   15  C13 UNL     1      11.510 -19.569  22.786  1.00  0.00     0.060 C 
HETATM   16  N2  UNL     1      10.608 -18.512  22.585  1.00  0.00    -0.389 N 
ATOM     17  H2  UNL     1      10.623 -17.952  21.732  1.00  0.00     0.159 HD
HETATM   18  C14 UNL     1       9.664 -18.253  23.634  1.00  0.00     0.176 C 
HETATM   19  C16 UNL     1       9.127 -22.078  24.294  1.00  0.00     0.078 C 
HETATM   20  C17 UNL     1       7.882 -22.578  23.709  1.00  0.00     0.116 C 
HETATM   21  C18 UNL     1       7.075 -23.470  24.720  1.00  0.00     0.146 C 
HETATM   22  C19 UNL     1       5.645 -23.608  24.563  1.00  0.00     0.002 C 
HETATM   23  C20 UNL     1       4.561 -22.695  24.956  1.00  0.00     0.048 C 
HETATM   24  C21 UNL     1       4.447 -21.303  24.483  1.00  0.00     0.153 C 
HETATM   25  O3  UNL     1       3.263 -21.001  24.415  1.00  0.00    -0.293 OA
ENDROOT
BRANCH  18  26
HETATM   26  C15 UNL     1      10.377 -17.625  24.793  1.00  0.00     0.379 C 
HETATM   27  F1  UNL     1      10.439 -16.272  24.816  1.00  0.00    -0.212 F 
HETATM   28  F2  UNL     1       9.747 -17.986  26.003  1.00  0.00    -0.212 F 
ENDBRANCH  18  26
BRANCH  20  29
HETATM   29  O2  UNL     1       8.111 -23.464  22.659  1.00  0.00    -0.384 OA
ATOM     30  H2  UNL     1       8.422 -24.346  22.824  1.00  0.00     0.210 HD
ENDBRANCH  20  29
TORSDOF 2
ENDMDL
MODEL 3
REMARK VINA RESULT: -6.593169969      2.587      4.732
REMARK  2 active torsions:
REMARK  status: ('A' for Active; 'I' for Inactive)
REMARK    1  A    between atoms: C14_18  and  C15_19 
REMARK    2  A    between atoms: C17_23  and  O2_24 
ROOT
HETATM    1  C1  UNL     1       3.867 -22.387  27.047  1.00  0.00     0.145 C 
HETATM    2  N1  UNL     1       4.526 -22.318  25.839  1.00  0.00    -0.189 NA
HETATM    3  O1  UNL     1       4.358 -21.403  24.982  1.00  0.00    -0.289 OA
HETATM    4  C2  UNL     1       4.624 -21.579  23.693  1.00  0.00     0.117 C 
HETATM    5  C3  UNL     1       4.117 -21.863  22.380  1.00  0.00     0.052 C 
HETATM    6  C4  UNL     1       4.803 -20.166  23.522  1.00  0.00     0.045 C 
HETATM    7  C5  UNL     1       3.412 -19.600  23.794  1.00  0.00     0.067 C 
HETATM    8  C6  UNL     1       3.470 -18.515  24.875  1.00  0.00     0.013 C 
HETATM    9  C7  UNL     1       4.412 -17.459  24.365  1.00  0.00     0.001 C 
HETATM   10  C8  UNL     1       5.785 -18.018  24.147  1.00  0.00     0.009 C 
HETATM   11  C9  UNL     1       5.849 -19.497  24.456  1.00  0.00     0.025 C 
HETATM   12  C10 UNL     1       7.153 -20.125  24.294  1.00  0.00    -0.045 C 
HETATM   13  C11 UNL     1       7.455 -21.425  24.370  1.00  0.00    -0.067 C 
HETATM   14  C12 UNL     1       8.846 -21.873  24.167  1.00  0.00     0.078 C 
HETATM   15  C13 UNL     1       9.753 -20.938  23.508  1.00  0.00     0.060 C 
HETATM   16  N2  UNL     1       9.214 -19.691  23.147  1.00  0.00    -0.389 N 
ATOM     17  H2  UNL     1       9.502 -19.214  22.293  1.00  0.00     0.159 HD
HETATM   18  C14 UNL     1       8.244 -19.120  24.035  1.00  0.00     0.176 C 
HETATM   19  C16 UNL     1       6.583 -22.605  24.702  1.00  0.00     0.078 C 
HETATM   20  C17 UNL     1       5.342 -22.787  23.948  1.00  0.00     0.116 C 
HETATM   21  C18 UNL     1       4.188 -23.360  24.847  1.00  0.00     0.146 C 
HETATM   22  C19 UNL     1       2.811 -23.117  24.480  1.00  0.00     0.002 C 
HETATM   23  C20 UNL     1       1.980 -21.921  24.681  1.00  0.00     0.048 C 
HETATM   24  C21 UNL     1       2.321 -20.584  24.162  1.00  0.00     0.153 C 
HETATM   25  O3  UNL     1       1.289 -19.980  23.909  1.00  0.00    -0.293 OA
ENDROOT
BRANCH  18  26
HETATM   26  C15 UNL     1       8.936 -18.632  25.272  1.00  0.00     0.379 C 
HETATM   27  F1  UNL     1       9.284 -17.324  25.306  1.00  0.00    -0.212 F 
HETATM   28  F2  UNL     1       8.106 -18.822  26.397  1.00  0.00    -0.212 F 
ENDBRANCH  18  26
BRANCH  20  29
HETATM   29  O2  UNL     1       5.460 -23.769  22.968  1.00  0.00    -0.384 OA
ATOM     30  H2  UNL     1       6.020 -24.525  23.099  1.00  0.00     0.210 HD
ENDBRANCH  20  29
TORSDOF 2
ENDMDL
MODEL 4
REMARK VINA RESULT: -6.489612852      1.098      1.348
REMARK  2 active torsions:
REMARK  status: ('A' for Active; 'I' for Inactive)
REMARK    1  A    between atoms: C14_18  and  C15_19 
REMARK    2  A    between atoms: C17_23  and  O2_24 
ROOT
HETATM    1  C1  UNL     1       6.673 -22.310  22.182  1.00  0.00     0.145 C 
HETATM    2  N1  UNL     1       5.427 -22.211  22.761  1.00  0.00    -0.189 NA
HETATM    3  O1  UNL     1       5.167 -21.523  23.790  1.00  0.00    -0.289 OA
HETATM    4  C2  UNL     1       4.133 -21.787  24.580  1.00  0.00     0.117 C 
HETATM    5  C3  UNL     1       3.659 -22.396  25.791  1.00  0.00     0.052 C 
HETATM    6  C4  UNL     1       4.114 -20.427  25.034  1.00  0.00     0.045 C 
HETATM    7  C5  UNL     1       5.439 -20.286  25.778  1.00  0.00     0.067 C 
HETATM    8  C6  UNL     1       6.240 -19.095  25.239  1.00  0.00     0.013 C 
HETATM    9  C7  UNL     1       5.368 -17.882  25.418  1.00  0.00     0.001 C 
HETATM   10  C8  UNL     1       4.091 -18.015  24.644  1.00  0.00     0.009 C 
HETATM   11  C9  UNL     1       4.000 -19.343  23.926  1.00  0.00     0.025 C 
HETATM   12  C10 UNL     1       2.800 -19.554  23.128  1.00  0.00    -0.045 C 
HETATM   13  C11 UNL     1       2.410 -20.673  22.509  1.00  0.00    -0.067 C 
HETATM   14  C12 UNL     1       1.147 -20.693  21.748  1.00  0.00     0.078 C 
HETATM   15  C13 UNL     1       0.190 -19.626  22.024  1.00  0.00     0.060 C 
HETATM   16  N2  UNL     1       0.575 -18.670  22.979  1.00  0.00    -0.389 N 
ATOM     17  H2  UNL     1      -0.101 -18.253  23.618  1.00  0.00     0.159 HD
HETATM   18  C14 UNL     1       1.962 -18.308  23.015  1.00  0.00     0.176 C 
HETATM   19  C16 UNL     1       3.097 -22.006  22.391  1.00  0.00     0.078 C 
HETATM   20  C17 UNL     1       3.550 -22.667  23.617  1.00  0.00     0.116 C 
HETATM   21  C18 UNL     1       4.903 -23.436  23.403  1.00  0.00     0.146 C 
HETATM   22  C19 UNL     1       5.768 -23.683  24.534  1.00  0.00     0.002 C 
HETATM   23  C20 UNL     1       6.720 -22.787  25.206  1.00  0.00     0.048 C 
HETATM   24  C21 UNL     1       6.348 -21.497  25.814  1.00  0.00     0.153 C 
HETATM   25  O3  UNL     1       7.077 -21.283  26.773  1.00  0.00    -0.293 OA
ENDROOT
BRANCH  18  26
HETATM   26  C15 UNL     1       2.280 -17.462  21.819  1.00  0.00     0.379 C 
HETATM   27  F1  UNL     1       1.231 -16.940  21.139  1.00  0.00    -0.212 F 
HETATM   28  F2  UNL     1       3.058 -16.350  22.205  1.00  0.00    -0.212 F 
ENDBRANCH  18  26
BRANCH  20  29
HETATM   29  O2  UNL     1       2.693 -23.692  24.010  1.00  0.00    -0.384 OA
ATOM     30  H2  UNL     1       2.261 -23.669  24.856  1.00  0.00     0.210 HD
ENDBRANCH  20  29
TORSDOF 2
ENDMDL
MODEL 5
REMARK VINA RESULT: -6.237212256      2.416      3.828
REMARK  2 active torsions:
REMARK  status: ('A' for Active; 'I' for Inactive)
REMARK    1  A    between atoms: C14_18  and  C15_19 
REMARK    2  A    between atoms: C17_23  and  O2_24 
ROOT
HETATM    1  C1  UNL     1       8.127 -21.332  22.180  1.00  0.00     0.145 C 
HETATM    2  N1  UNL     1       7.438 -21.538  23.355  1.00  0.00    -0.189 NA
HETATM    3  O1  UNL     1       6.939 -20.618  24.066  1.00  0.00    -0.289 OA
HETATM    4  C2  UNL     1       6.701 -20.772  25.363  1.00  0.00     0.117 C 
HETATM    5  C3  UNL     1       7.141 -20.541  26.710  1.00  0.00     0.052 C 
HETATM    6  C4  UNL     1       5.700 -19.745  25.314  1.00  0.00     0.045 C 
HETATM    7  C5  UNL     1       6.499 -18.490  24.978  1.00  0.00     0.067 C 
HETATM    8  C6  UNL     1       5.916 -17.791  23.744  1.00  0.00     0.013 C 
HETATM    9  C7  UNL     1       4.485 -17.469  24.075  1.00  0.00     0.001 C 
HETATM   10  C8  UNL     1       3.701 -18.715  24.358  1.00  0.00     0.009 C 
HETATM   11  C9  UNL     1       4.563 -19.956  24.276  1.00  0.00     0.025 C 
HETATM   12  C10 UNL     1       3.881 -21.221  24.515  1.00  0.00    -0.045 C 
HETATM   13  C11 UNL     1       4.423 -22.437  24.634  1.00  0.00    -0.067 C 
HETATM   14  C12 UNL     1       3.561 -23.607  24.884  1.00  0.00     0.078 C 
HETATM   15  C13 UNL     1       2.214 -23.343  25.382  1.00  0.00     0.060 C 
HETATM   16  N2  UNL     1       1.864 -21.994  25.556  1.00  0.00    -0.389 N 
ATOM     17  H2  UNL     1       1.263 -21.694  26.325  1.00  0.00     0.159 HD
HETATM   18  C14 UNL     1       2.387 -21.057  24.605  1.00  0.00     0.176 C 
HETATM   19  C16 UNL     1       5.854 -22.879  24.496  1.00  0.00     0.078 C 
HETATM   20  C17 UNL     1       6.875 -22.187  25.285  1.00  0.00     0.116 C 
HETATM   21  C18 UNL     1       8.227 -22.044  24.498  1.00  0.00     0.146 C 
HETATM   22  C19 UNL     1       9.142 -20.979  24.842  1.00  0.00     0.002 C 
HETATM   23  C20 UNL     1       9.113 -19.556  24.472  1.00  0.00     0.048 C 
HETATM   24  C21 UNL     1       7.992 -18.649  24.777  1.00  0.00     0.153 C 
HETATM   25  O3  UNL     1       8.428 -17.520  24.949  1.00  0.00    -0.293 OA
ENDROOT
BRANCH  18  26
HETATM   26  C15 UNL     1       1.671 -21.231  23.299  1.00  0.00     0.379 C 
HETATM   27  F1  UNL     1       1.173 -20.114  22.718  1.00  0.00    -0.212 F 
HETATM   28  F2  UNL     1       2.544 -21.788  22.340  1.00  0.00    -0.212 F 
ENDBRANCH  18  26
BRANCH  20  29
HETATM   29  O2  UNL     1       7.266 -22.922  26.402  1.00  0.00    -0.384 OA
ATOM     30  H2  UNL     1       6.989 -22.669  27.275  1.00  0.00     0.210 HD
ENDBRANCH  20  29
TORSDOF 2
ENDMDL
