MODEL 1
REMARK VINA RESULT: -5.862787139      0.000      0.000
REMARK  3 active torsions:
REMARK  status: ('A' for Active; 'I' for Inactive)
REMARK    1  A    between atoms: C3_3  and  O1_4 
REMARK    2  A    between atoms: C6_10  and  C7_11 
REMARK    3  A    between atoms: C7_11  and  O4_12 
ROOT
HETATM    1  C1  UNL     1       2.015 -16.157  18.655  1.00  0.00     0.014 C 
HETATM    2  C2  UNL     1       0.650 -16.031  19.347  1.00  0.00     0.031 C 
HETATM    3  C3  UNL     1       0.616 -14.660  19.957  1.00  0.00     0.132 C 
HETATM    4  C4  UNL     1      -0.657 -14.338  20.675  1.00  0.00     0.143 C 
HETATM    5  C5  UNL     1      -0.906 -15.187  21.868  1.00  0.00     0.261 C 
HETATM    6  O2  UNL     1      -2.097 -15.061  22.284  1.00  0.00    -0.265 OA
HETATM    7  O3  UNL     1       0.080 -15.949  22.354  1.00  0.00    -0.314 OA
HETATM    8  C6  UNL     1       1.037 -15.923  23.319  1.00  0.00     0.155 C 
HETATM    9  C8  UNL     1       2.417 -16.394  22.918  1.00  0.00     0.035 C 
HETATM   10  C9  UNL     1       2.755 -17.763  23.457  1.00  0.00     0.010 C 
HETATM   11  C10 UNL     1       1.642 -18.709  23.047  1.00  0.00     0.078 C 
HETATM   12  C11 UNL     1       2.171 -20.021  22.614  1.00  0.00     0.127 C 
HETATM   13  O5  UNL     1       2.884 -20.616  23.428  1.00  0.00    -0.298 OA
HETATM   14  C12 UNL     1       1.917 -20.656  21.318  1.00  0.00     0.078 C 
HETATM   15  C13 UNL     1       0.515 -20.481  20.803  1.00  0.00     0.007 C 
HETATM   16  C14 UNL     1       0.505 -20.950  19.353  1.00  0.00     0.000 C 
HETATM   17  C15 UNL     1      -0.494 -20.060  18.607  1.00  0.00     0.002 C 
HETATM   18  C16 UNL     1       0.147 -18.719  18.329  1.00  0.00     0.022 C 
HETATM   19  C17 UNL     1      -0.908 -17.669  18.240  1.00  0.00     0.101 C 
HETATM   20 CL1  UNL     1      -2.206 -17.955  19.418  1.00  0.00    -0.123 Cl
HETATM   21  C18 UNL     1      -0.387 -16.262  18.296  1.00  0.00     0.107 C 
HETATM   22 CL2  UNL     1       0.289 -15.900  16.668  1.00  0.00    -0.123 Cl
ENDROOT
BRANCH   8  23
HETATM   23  C7  UNL     1       1.213 -14.633  24.082  1.00  0.00     0.196 C 
BRANCH  23  24
HETATM   24  O4  UNL     1       2.240 -14.648  24.995  1.00  0.00    -0.398 OA
ATOM     25  H4  UNL     1       2.400 -13.814  25.421  1.00  0.00     0.209 HD
ENDBRANCH  23  24
ENDBRANCH   8  23
BRANCH   3  26
HETATM   26  O1  UNL     1       0.752 -13.749  18.882  1.00  0.00    -0.395 OA
ATOM     27  H1  UNL     1       1.651 -13.443  18.908  1.00  0.00     0.210 HD
ENDBRANCH   3  26
TORSDOF 3
ENDMDL
MODEL 2
REMARK VINA RESULT: -5.724121705      2.279      4.879
REMARK  3 active torsions:
REMARK  status: ('A' for Active; 'I' for Inactive)
REMARK    1  A    between atoms: C3_3  and  O1_4 
REMARK    2  A    between atoms: C6_10  and  C7_11 
REMARK    3  A    between atoms: C7_11  and  O4_12 
ROOT
HETATM    1  C1  UNL     1      -2.053 -16.014  21.426  1.00  0.00     0.014 C 
HETATM    2  C2  UNL     1      -1.050 -17.174  21.361  1.00  0.00     0.031 C 
HETATM    3  C3  UNL     1      -0.501 -17.329  22.749  1.00  0.00     0.132 C 
HETATM    4  C4  UNL     1       0.498 -18.433  22.897  1.00  0.00     0.143 C 
HETATM    5  C5  UNL     1       1.745 -18.224  22.117  1.00  0.00     0.261 C 
HETATM    6  O2  UNL     1       2.438 -19.285  22.061  1.00  0.00    -0.265 OA
HETATM    7  O3  UNL     1       1.999 -17.023  21.587  1.00  0.00    -0.314 OA
HETATM    8  C6  UNL     1       2.696 -15.889  21.863  1.00  0.00     0.155 C 
HETATM    9  C8  UNL     1       1.984 -14.578  21.615  1.00  0.00     0.035 C 
HETATM   10  C9  UNL     1       2.471 -13.864  20.378  1.00  0.00     0.010 C 
HETATM   11  C10 UNL     1       2.383 -14.837  19.218  1.00  0.00     0.078 C 
HETATM   12  C11 UNL     1       1.880 -14.182  17.990  1.00  0.00     0.127 C 
HETATM   13  O5  UNL     1       2.513 -13.196  17.602  1.00  0.00    -0.298 OA
HETATM   14  C12 UNL     1       0.710 -14.606  17.216  1.00  0.00     0.078 C 
HETATM   15  C13 UNL     1       0.553 -16.096  17.094  1.00  0.00     0.007 C 
HETATM   16  C14 UNL     1      -0.832 -16.357  16.514  1.00  0.00     0.000 C 
HETATM   17  C15 UNL     1      -1.339 -17.657  17.146  1.00  0.00     0.002 C 
HETATM   18  C16 UNL     1      -1.815 -17.372  18.553  1.00  0.00     0.022 C 
HETATM   19  C17 UNL     1      -1.678 -18.602  19.386  1.00  0.00     0.101 C 
HETATM   20 CL1  UNL     1      -0.207 -19.504  18.969  1.00  0.00    -0.123 Cl
HETATM   21  C18 UNL     1      -1.804 -18.364  20.863  1.00  0.00     0.107 C 
HETATM   22 CL2  UNL     1      -3.560 -18.176  21.206  1.00  0.00    -0.123 Cl
ENDROOT
BRANCH   8  23
HETATM   23  C7  UNL     1       3.345 -15.791  23.222  1.00  0.00     0.196 C 
BRANCH  23  24
HETATM   24  O4  UNL     1       4.460 -14.989  23.263  1.00  0.00    -0.398 OA
ATOM     25  H4  UNL     1       4.695 -14.602  22.428  1.00  0.00     0.209 HD
ENDBRANCH  23  24
ENDBRANCH   8  23
BRANCH   3  26
HETATM   26  O1  UNL     1      -1.607 -17.629  23.579  1.00  0.00    -0.395 OA
ATOM     27  H1  UNL     1      -1.270 -18.170  24.283  1.00  0.00     0.210 HD
ENDBRANCH   3  26
TORSDOF 3
ENDMDL
MODEL 3
REMARK VINA RESULT: -5.487564052      2.696      5.170
REMARK  3 active torsions:
REMARK  status: ('A' for Active; 'I' for Inactive)
REMARK    1  A    between atoms: C3_3  and  O1_4 
REMARK    2  A    between atoms: C6_10  and  C7_11 
REMARK    3  A    between atoms: C7_11  and  O4_12 
ROOT
HETATM    1  C1  UNL     1      -0.682 -15.512  22.174  1.00  0.00     0.014 C 
HETATM    2  C2  UNL     1       0.729 -15.198  21.657  1.00  0.00     0.031 C 
HETATM    3  C3  UNL     1       0.565 -14.119  20.627  1.00  0.00     0.132 C 
HETATM    4  C4  UNL     1       1.847 -13.660  20.006  1.00  0.00     0.143 C 
HETATM    5  C5  UNL     1       2.542 -14.708  19.215  1.00  0.00     0.261 C 
HETATM    6  O2  UNL     1       3.729 -14.364  18.933  1.00  0.00    -0.265 OA
HETATM    7  O3  UNL     1       1.893 -15.834  18.898  1.00  0.00    -0.314 OA
HETATM    8  C6  UNL     1       1.187 -16.375  17.870  1.00  0.00     0.155 C 
HETATM    9  C8  UNL     1      -0.093 -17.094  18.231  1.00  0.00     0.035 C 
HETATM   10  C9  UNL     1       0.029 -18.596  18.152  1.00  0.00     0.010 C 
HETATM   11  C10 UNL     1       1.220 -19.008  18.995  1.00  0.00     0.078 C 
HETATM   12  C11 UNL     1       0.940 -20.231  19.779  1.00  0.00     0.127 C 
HETATM   13  O5  UNL     1       0.581 -21.221  19.134  1.00  0.00    -0.298 OA
HETATM   14  C12 UNL     1       1.054 -20.355  21.235  1.00  0.00     0.078 C 
HETATM   15  C13 UNL     1       2.230 -19.632  21.830  1.00  0.00     0.007 C 
HETATM   16  C14 UNL     1       2.040 -19.631  23.343  1.00  0.00     0.000 C 
HETATM   17  C15 UNL     1       2.615 -18.308  23.860  1.00  0.00     0.002 C 
HETATM   18  C16 UNL     1       1.628 -17.197  23.583  1.00  0.00     0.022 C 
HETATM   19  C17 UNL     1       2.358 -15.904  23.441  1.00  0.00     0.101 C 
HETATM   20 CL1  UNL     1       3.908 -16.125  22.603  1.00  0.00    -0.123 Cl
HETATM   21  C18 UNL     1       1.540 -14.795  22.845  1.00  0.00     0.107 C 
HETATM   22 CL2  UNL     1       0.465 -14.188  24.154  1.00  0.00    -0.123 Cl
ENDROOT
BRANCH   8  23
HETATM   23  C7  UNL     1       0.876 -15.476  16.697  1.00  0.00     0.196 C 
BRANCH  23  24
HETATM   24  O4  UNL     1      -0.168 -14.608  16.909  1.00  0.00    -0.398 OA
ATOM     25  H4  UNL     1      -0.969 -15.024  17.206  1.00  0.00     0.209 HD
ENDBRANCH  23  24
ENDBRANCH   8  23
BRANCH   3  26
HETATM   26  O1  UNL     1      -0.011 -13.016  21.301  1.00  0.00    -0.395 OA
ATOM     27  H1  UNL     1       0.398 -12.988  22.158  1.00  0.00     0.210 HD
ENDBRANCH   3  26
TORSDOF 3
ENDMDL
MODEL 4
REMARK VINA RESULT: -5.416311666      2.462      5.123
REMARK  3 active torsions:
REMARK  status: ('A' for Active; 'I' for Inactive)
REMARK    1  A    between atoms: C3_3  and  O1_4 
REMARK    2  A    between atoms: C6_10  and  C7_11 
REMARK    3  A    between atoms: C7_11  and  O4_12 
ROOT
HETATM    1  C1  UNL     1      -1.397 -16.227  22.501  1.00  0.00     0.014 C 
HETATM    2  C2  UNL     1      -0.397 -15.902  21.382  1.00  0.00     0.031 C 
HETATM    3  C3  UNL     1      -1.172 -15.970  20.098  1.00  0.00     0.132 C 
HETATM    4  C4  UNL     1      -0.365 -15.667  18.875  1.00  0.00     0.143 C 
HETATM    5  C5  UNL     1       0.716 -16.651  18.608  1.00  0.00     0.261 C 
HETATM    6  O2  UNL     1       1.526 -16.222  17.733  1.00  0.00    -0.265 OA
HETATM    7  O3  UNL     1       0.729 -17.813  19.271  1.00  0.00    -0.314 OA
HETATM    8  C6  UNL     1       0.338 -19.106  19.115  1.00  0.00     0.155 C 
HETATM    9  C8  UNL     1      -0.351 -19.753  20.295  1.00  0.00     0.035 C 
HETATM   10  C9  UNL     1       0.530 -20.734  21.030  1.00  0.00     0.010 C 
HETATM   11  C10 UNL     1       1.818 -20.018  21.389  1.00  0.00     0.078 C 
HETATM   12  C11 UNL     1       2.273 -20.362  22.755  1.00  0.00     0.127 C 
HETATM   13  O5  UNL     1       2.437 -21.564  22.987  1.00  0.00    -0.298 OA
HETATM   14  C12 UNL     1       2.537 -19.404  23.832  1.00  0.00     0.078 C 
HETATM   15  C13 UNL     1       3.203 -18.133  23.383  1.00  0.00     0.007 C 
HETATM   16  C14 UNL     1       3.148 -17.158  24.555  1.00  0.00     0.000 C 
HETATM   17  C15 UNL     1       2.984 -15.757  23.956  1.00  0.00     0.002 C 
HETATM   18  C16 UNL     1       1.546 -15.564  23.532  1.00  0.00     0.022 C 
HETATM   19  C17 UNL     1       1.483 -14.583  22.411  1.00  0.00     0.101 C 
HETATM   20 CL1  UNL     1       2.857 -14.777  21.303  1.00  0.00    -0.123 Cl
HETATM   21  C18 UNL     1       0.167 -14.553  21.688  1.00  0.00     0.107 C 
HETATM   22 CL2  UNL     1      -0.970 -13.627  22.730  1.00  0.00    -0.123 Cl
ENDROOT
BRANCH   8  23
HETATM   23  C7  UNL     1      -0.479 -19.436  17.889  1.00  0.00     0.196 C 
BRANCH  23  24
HETATM   24  O4  UNL     1      -1.747 -19.890  18.157  1.00  0.00    -0.398 OA
ATOM     25  H4  UNL     1      -1.789 -20.566  18.823  1.00  0.00     0.209 HD
ENDBRANCH  23  24
ENDBRANCH   8  23
BRANCH   3  26
HETATM   26  O1  UNL     1      -2.189 -14.991  20.201  1.00  0.00    -0.395 OA
ATOM     27  H1  UNL     1      -2.587 -15.113  21.056  1.00  0.00     0.210 HD
ENDBRANCH   3  26
TORSDOF 3
ENDMDL
MODEL 5
REMARK VINA RESULT: -5.190425294      3.116      5.921
REMARK  3 active torsions:
REMARK  status: ('A' for Active; 'I' for Inactive)
REMARK    1  A    between atoms: C3_3  and  O1_4 
REMARK    2  A    between atoms: C6_10  and  C7_11 
REMARK    3  A    between atoms: C7_11  and  O4_12 
ROOT
HETATM    1  C1  UNL     1      -0.988 -14.006  19.399  1.00  0.00     0.014 C 
HETATM    2  C2  UNL     1       0.042 -15.083  19.769  1.00  0.00     0.031 C 
HETATM    3  C3  UNL     1       0.361 -15.811  18.495  1.00  0.00     0.132 C 
HETATM    4  C4  UNL     1       1.370 -16.905  18.647  1.00  0.00     0.143 C 
HETATM    5  C5  UNL     1       0.917 -18.026  19.511  1.00  0.00     0.261 C 
HETATM    6  O2  UNL     1       1.881 -18.789  19.821  1.00  0.00    -0.265 OA
HETATM    7  O3  UNL     1      -0.373 -18.115  19.853  1.00  0.00    -0.314 OA
HETATM    8  C6  UNL     1      -1.512 -18.748  19.466  1.00  0.00     0.155 C 
HETATM    9  C8  UNL     1      -2.768 -17.908  19.409  1.00  0.00     0.035 C 
HETATM   10  C9  UNL     1      -3.715 -18.180  20.552  1.00  0.00     0.010 C 
HETATM   11  C10 UNL     1      -2.935 -18.028  21.844  1.00  0.00     0.078 C 
HETATM   12  C11 UNL     1      -3.724 -17.326  22.881  1.00  0.00     0.127 C 
HETATM   13  O5  UNL     1      -4.818 -17.825  23.163  1.00  0.00    -0.298 OA
HETATM   14  C12 UNL     1      -3.315 -16.107  23.584  1.00  0.00     0.078 C 
HETATM   15  C13 UNL     1      -1.855 -16.056  23.940  1.00  0.00     0.007 C 
HETATM   16  C14 UNL     1      -1.554 -14.634  24.402  1.00  0.00     0.000 C 
HETATM   17  C15 UNL     1      -0.125 -14.315  23.948  1.00  0.00     0.002 C 
HETATM   18  C16 UNL     1      -0.134 -13.995  22.470  1.00  0.00     0.022 C 
HETATM   19  C17 UNL     1       1.193 -14.332  21.878  1.00  0.00     0.101 C 
HETATM   20 CL1  UNL     1       1.866 -15.809  22.599  1.00  0.00    -0.123 Cl
HETATM   21  C18 UNL     1       1.207 -14.372  20.377  1.00  0.00     0.107 C 
HETATM   22 CL2  UNL     1       1.251 -12.662  19.819  1.00  0.00    -0.123 Cl
ENDROOT
BRANCH   8  23
HETATM   23  C7  UNL     1      -1.456 -19.550  18.189  1.00  0.00     0.196 C 
BRANCH  23  24
HETATM   24  O4  UNL     1      -2.683 -19.948  17.714  1.00  0.00    -0.398 OA
ATOM     25  H4  UNL     1      -2.780 -20.888  17.619  1.00  0.00     0.209 HD
ENDBRANCH  23  24
ENDBRANCH   8  23
BRANCH   3  26
HETATM   26  O1  UNL     1       0.898 -14.842  17.613  1.00  0.00    -0.395 OA
ATOM     27  H1  UNL     1       1.584 -14.397  18.097  1.00  0.00     0.210 HD
ENDBRANCH   3  26
TORSDOF 3
ENDMDL
