MODEL 1
REMARK VINA RESULT: -6.561417814      0.000      0.000
REMARK  6 active torsions:
REMARK  status: ('A' for Active; 'I' for Inactive)
REMARK    1  A    between atoms: C2_2  and  O2_4 
REMARK    2  A    between atoms: O2_4  and  C3_5 
REMARK    3  A    between atoms: C7_10  and  N1_11 
REMARK    4  A    between atoms: N1_11  and  N2_13 
REMARK    5  A    between atoms: N2_13  and  N3_14 
REMARK    6  A    between atoms: C14_25  and  O3_26 
ROOT
HETATM    1  C3  UNL     1       5.211 -19.841  25.040  1.00  0.00     0.141 C 
HETATM    2  C4  UNL     1       3.877 -20.513  25.299  1.00  0.00     0.070 C 
HETATM    3  C5  UNL     1       3.714 -21.840  24.699  1.00  0.00    -0.043 C 
HETATM    4  C6  UNL     1       2.719 -22.579  25.172  1.00  0.00     0.047 C 
HETATM    5 CL1  UNL     1       1.681 -21.969  26.438  1.00  0.00    -0.086 Cl
HETATM    6  C7  UNL     1       2.488 -23.984  24.638  1.00  0.00     0.222 C 
HETATM    7  C8  UNL     1       3.856 -24.570  24.394  1.00  0.00     0.145 C 
HETATM    8  F1  UNL     1       4.018 -25.871  24.696  1.00  0.00    -0.206 F 
HETATM    9  C9  UNL     1       4.840 -23.805  23.898  1.00  0.00     0.074 C 
HETATM   10  N4  UNL     1       6.066 -24.519  23.733  1.00  0.00    -0.103 NA
HETATM   11  C10 UNL     1       4.544 -22.433  23.596  1.00  0.00     0.028 C 
HETATM   12  C11 UNL     1       3.633 -22.429  22.352  1.00  0.00     0.027 C 
HETATM   13  C12 UNL     1       5.626 -21.475  23.322  1.00  0.00     0.014 C 
HETATM   14  C13 UNL     1       6.751 -21.768  22.461  1.00  0.00     0.039 C 
HETATM   15  C14 UNL     1       7.796 -20.738  22.948  1.00  0.00     0.126 C 
HETATM   16  C15 UNL     1       7.555 -20.638  24.439  1.00  0.00    -0.015 C 
HETATM   17  C16 UNL     1       8.359 -21.804  25.048  1.00  0.00     0.018 C 
HETATM   18  C17 UNL     1       8.105 -19.405  25.055  1.00  0.00     0.018 C 
HETATM   19  C18 UNL     1       6.132 -20.938  24.647  1.00  0.00     0.031 C 
ENDROOT
BRANCH   6  20
HETATM   20  N1  UNL     1       1.800 -24.757  25.651  1.00  0.00    -0.236 N 
ATOM     21  H1  UNL     1       1.660 -24.371  26.584  1.00  0.00     0.198 HD
BRANCH  20  22
HETATM   22  N2  UNL     1       1.388 -25.874  25.381  1.00  0.00    -0.247 NA
BRANCH  22  23
HETATM   23  N3  UNL     1       1.314 -27.030  24.973  1.00  0.00    -0.261 N 
ATOM     24  H32 UNL     1       0.789 -26.792  24.131  1.00  0.00     0.193 HD
ATOM     25  H31 UNL     1       1.410 -28.042  24.891  1.00  0.00     0.193 HD
ENDBRANCH  22  23
ENDBRANCH  20  22
ENDBRANCH   6  20
BRANCH   1  26
HETATM   26  O2  UNL     1       4.946 -18.915  23.975  1.00  0.00    -0.316 OA
BRANCH  26  27
HETATM   27  C2  UNL     1       3.997 -17.945  24.135  1.00  0.00     0.255 C 
HETATM   28  C1  UNL     1       2.774 -17.857  23.270  1.00  0.00     0.126 C 
HETATM   29  O1  UNL     1       4.128 -17.081  25.033  1.00  0.00    -0.266 OA
ENDBRANCH  26  27
ENDBRANCH   1  26
BRANCH  15  30
HETATM   30  O3  UNL     1       9.046 -21.248  22.630  1.00  0.00    -0.395 OA
ATOM     31  H3  UNL     1       8.927 -21.828  21.886  1.00  0.00     0.210 HD
ENDBRANCH  15  30
TORSDOF 6
ENDMDL
MODEL 2
REMARK VINA RESULT: -6.384832072      6.127      8.327
REMARK  6 active torsions:
REMARK  status: ('A' for Active; 'I' for Inactive)
REMARK    1  A    between atoms: C2_2  and  O2_4 
REMARK    2  A    between atoms: O2_4  and  C3_5 
REMARK    3  A    between atoms: C7_10  and  N1_11 
REMARK    4  A    between atoms: N1_11  and  N2_13 
REMARK    5  A    between atoms: N2_13  and  N3_14 
REMARK    6  A    between atoms: C14_25  and  O3_26 
ROOT
HETATM    1  C3  UNL     1       1.983 -18.447  22.174  1.00  0.00     0.141 C 
HETATM    2  C4  UNL     1       1.186 -19.376  21.280  1.00  0.00     0.070 C 
HETATM    3  C5  UNL     1      -0.073 -18.828  20.767  1.00  0.00    -0.043 C 
HETATM    4  C6  UNL     1      -0.616 -19.468  19.740  1.00  0.00     0.047 C 
HETATM    5 CL1  UNL     1       0.155 -20.883  19.066  1.00  0.00    -0.086 Cl
HETATM    6  C7  UNL     1      -1.904 -18.958  19.115  1.00  0.00     0.222 C 
HETATM    7  C8  UNL     1      -1.820 -17.453  19.147  1.00  0.00     0.145 C 
HETATM    8  F1  UNL     1      -2.305 -16.798  18.076  1.00  0.00    -0.206 F 
HETATM    9  C9  UNL     1      -1.282 -16.829  20.205  1.00  0.00     0.074 C 
HETATM   10  N4  UNL     1      -1.280 -15.407  20.068  1.00  0.00    -0.103 NA
HETATM   11  C10 UNL     1      -0.813 -17.633  21.299  1.00  0.00     0.028 C 
HETATM   12  C11 UNL     1      -2.057 -18.205  22.007  1.00  0.00     0.027 C 
HETATM   13  C12 UNL     1       0.032 -17.049  22.351  1.00  0.00     0.014 C 
HETATM   14  C13 UNL     1      -0.239 -15.771  22.972  1.00  0.00     0.039 C 
HETATM   15  C14 UNL     1       1.153 -15.391  23.530  1.00  0.00     0.126 C 
HETATM   16  C15 UNL     1       2.125 -15.924  22.500  1.00  0.00    -0.015 C 
HETATM   17  C16 UNL     1       2.208 -14.820  21.427  1.00  0.00     0.018 C 
HETATM   18  C17 UNL     1       3.508 -16.094  23.011  1.00  0.00     0.018 C 
HETATM   19  C18 UNL     1       1.473 -17.084  21.878  1.00  0.00     0.031 C 
ENDROOT
BRANCH   6  20
HETATM   20  N1  UNL     1      -1.965 -19.414  17.741  1.00  0.00    -0.236 N 
ATOM     21  H1  UNL     1      -1.125 -19.411  17.163  1.00  0.00     0.198 HD
BRANCH  20  22
HETATM   22  N2  UNL     1      -3.027 -19.802  17.281  1.00  0.00    -0.247 NA
BRANCH  22  23
HETATM   23  N3  UNL     1      -4.193 -20.172  17.171  1.00  0.00    -0.261 N 
ATOM     24  H32 UNL     1      -4.356 -20.243  18.176  1.00  0.00     0.193 HD
ATOM     25  H31 UNL     1      -5.094 -20.452  16.784  1.00  0.00     0.193 HD
ENDBRANCH  22  23
ENDBRANCH  20  22
ENDBRANCH   6  20
BRANCH   1  26
HETATM   26  O2  UNL     1       1.683 -18.887  23.508  1.00  0.00    -0.316 OA
BRANCH  26  27
HETATM   27  C2  UNL     1       2.330 -19.970  24.031  1.00  0.00     0.255 C 
HETATM   28  C1  UNL     1       3.792 -20.227  23.806  1.00  0.00     0.126 C 
HETATM   29  O1  UNL     1       1.704 -20.799  24.731  1.00  0.00    -0.266 OA
ENDBRANCH  26  27
ENDBRANCH   1  26
BRANCH  15  30
HETATM   30  O3  UNL     1       1.180 -14.010  23.644  1.00  0.00    -0.395 OA
ATOM     31  H3  UNL     1       2.094 -13.754  23.697  1.00  0.00     0.210 HD
ENDBRANCH  15  30
TORSDOF 6
ENDMDL
MODEL 3
REMARK VINA RESULT: -6.273657833      3.997      5.291
REMARK  6 active torsions:
REMARK  status: ('A' for Active; 'I' for Inactive)
REMARK    1  A    between atoms: C2_2  and  O2_4 
REMARK    2  A    between atoms: O2_4  and  C3_5 
REMARK    3  A    between atoms: C7_10  and  N1_11 
REMARK    4  A    between atoms: N1_11  and  N2_13 
REMARK    5  A    between atoms: N2_13  and  N3_14 
REMARK    6  A    between atoms: C14_25  and  O3_26 
ROOT
HETATM    1  C3  UNL     1       4.493 -23.289  23.146  1.00  0.00     0.141 C 
HETATM    2  C4  UNL     1       3.143 -22.678  22.827  1.00  0.00     0.070 C 
HETATM    3  C5  UNL     1       2.926 -21.325  23.346  1.00  0.00    -0.043 C 
HETATM    4  C6  UNL     1       1.917 -20.647  22.815  1.00  0.00     0.047 C 
HETATM    5 CL1  UNL     1       0.922 -21.363  21.570  1.00  0.00    -0.086 Cl
HETATM    6  C7  UNL     1       1.631 -19.223  23.263  1.00  0.00     0.222 C 
HETATM    7  C8  UNL     1       2.975 -18.578  23.495  1.00  0.00     0.145 C 
HETATM    8  F1  UNL     1       3.100 -17.292  23.121  1.00  0.00    -0.206 F 
HETATM    9  C9  UNL     1       3.974 -19.281  24.050  1.00  0.00     0.074 C 
HETATM   10  N4  UNL     1       5.173 -18.518  24.194  1.00  0.00    -0.103 NA
HETATM   11  C10 UNL     1       3.717 -20.642  24.427  1.00  0.00     0.028 C 
HETATM   12  C11 UNL     1       2.784 -20.605  25.654  1.00  0.00     0.027 C 
HETATM   13  C12 UNL     1       4.824 -21.546  24.773  1.00  0.00     0.014 C 
HETATM   14  C13 UNL     1       5.923 -21.167  25.634  1.00  0.00     0.039 C 
HETATM   15  C14 UNL     1       7.010 -22.188  25.225  1.00  0.00     0.126 C 
HETATM   16  C15 UNL     1       6.798 -22.381  23.738  1.00  0.00    -0.015 C 
HETATM   17  C16 UNL     1       7.576 -21.226  23.076  1.00  0.00     0.018 C 
HETATM   18  C17 UNL     1       7.399 -23.629  23.204  1.00  0.00     0.018 C 
HETATM   19  C18 UNL     1       5.371 -22.141  23.490  1.00  0.00     0.031 C 
ENDROOT
BRANCH   6  20
HETATM   20  N1  UNL     1       0.937 -18.532  22.196  1.00  0.00    -0.236 N 
ATOM     21  H1  UNL     1       1.441 -18.248  21.357  1.00  0.00     0.198 HD
BRANCH  20  22
HETATM   22  N2  UNL     1      -0.255 -18.293  22.308  1.00  0.00    -0.247 NA
BRANCH  22  23
HETATM   23  N3  UNL     1      -1.468 -18.418  22.453  1.00  0.00    -0.261 N 
ATOM     24  H32 UNL     1      -1.612 -18.904  21.567  1.00  0.00     0.193 HD
ATOM     25  H31 UNL     1      -2.413 -18.377  22.835  1.00  0.00     0.193 HD
ENDBRANCH  22  23
ENDBRANCH  20  22
ENDBRANCH   6  20
BRANCH   1  26
HETATM   26  O2  UNL     1       4.239 -24.160  24.258  1.00  0.00    -0.316 OA
BRANCH  26  27
HETATM   27  C2  UNL     1       3.003 -24.723  24.416  1.00  0.00     0.255 C 
HETATM   28  C1  UNL     1       2.051 -24.298  25.496  1.00  0.00     0.126 C 
HETATM   29  O1  UNL     1       2.623 -25.631  23.641  1.00  0.00    -0.266 OA
ENDBRANCH  26  27
ENDBRANCH   1  26
BRANCH  15  30
HETATM   30  O3  UNL     1       8.236 -21.619  25.533  1.00  0.00    -0.395 OA
ATOM     31  H3  UNL     1       8.904 -22.239  25.266  1.00  0.00     0.210 HD
ENDBRANCH  15  30
TORSDOF 6
ENDMDL
MODEL 4
REMARK VINA RESULT: -6.035938629      5.794      7.729
REMARK  6 active torsions:
REMARK  status: ('A' for Active; 'I' for Inactive)
REMARK    1  A    between atoms: C2_2  and  O2_4 
REMARK    2  A    between atoms: O2_4  and  C3_5 
REMARK    3  A    between atoms: C7_10  and  N1_11 
REMARK    4  A    between atoms: N1_11  and  N2_13 
REMARK    5  A    between atoms: N2_13  and  N3_14 
REMARK    6  A    between atoms: C14_25  and  O3_26 
ROOT
HETATM    1  C3  UNL     1       2.360 -19.333  22.833  1.00  0.00     0.141 C 
HETATM    2  C4  UNL     1       1.557 -19.937  21.698  1.00  0.00     0.070 C 
HETATM    3  C5  UNL     1       0.694 -19.002  20.971  1.00  0.00    -0.043 C 
HETATM    4  C6  UNL     1       0.247 -19.412  19.791  1.00  0.00     0.047 C 
HETATM    5 CL1  UNL     1       0.682 -20.987  19.174  1.00  0.00    -0.086 Cl
HETATM    6  C7  UNL     1      -0.628 -18.502  18.945  1.00  0.00     0.222 C 
HETATM    7  C8  UNL     1      -0.092 -17.105  19.140  1.00  0.00     0.145 C 
HETATM    8  F1  UNL     1      -0.076 -16.308  18.056  1.00  0.00    -0.206 F 
HETATM    9  C9  UNL     1       0.337 -16.709  20.348  1.00  0.00     0.074 C 
HETATM   10  N4  UNL     1       0.812 -15.362  20.351  1.00  0.00    -0.103 NA
HETATM   11  C10 UNL     1       0.253 -17.642  21.436  1.00  0.00     0.028 C 
HETATM   12  C11 UNL     1      -1.239 -17.795  21.788  1.00  0.00     0.027 C 
HETATM   13  C12 UNL     1       0.955 -17.383  22.702  1.00  0.00     0.014 C 
HETATM   14  C13 UNL     1       0.950 -16.098  23.367  1.00  0.00     0.039 C 
HETATM   15  C14 UNL     1       2.211 -16.200  24.257  1.00  0.00     0.126 C 
HETATM   16  C15 UNL     1       3.191 -16.999  23.424  1.00  0.00    -0.015 C 
HETATM   17  C16 UNL     1       3.870 -15.960  22.509  1.00  0.00     0.018 C 
HETATM   18  C17 UNL     1       4.285 -17.616  24.214  1.00  0.00     0.018 C 
HETATM   19  C18 UNL     1       2.384 -17.873  22.563  1.00  0.00     0.031 C 
ENDROOT
BRANCH   6  20
HETATM   20  N1  UNL     1      -0.490 -18.887  17.556  1.00  0.00    -0.236 N 
ATOM     21  H1  UNL     1       0.436 -18.973  17.137  1.00  0.00     0.198 HD
BRANCH  20  22
HETATM   22  N2  UNL     1      -1.488 -19.108  16.889  1.00  0.00    -0.247 NA
BRANCH  22  23
HETATM   23  N3  UNL     1      -2.655 -19.183  16.514  1.00  0.00    -0.261 N 
ATOM     24  H32 UNL     1      -3.038 -18.691  17.321  1.00  0.00     0.193 HD
ATOM     25  H31 UNL     1      -3.492 -19.389  15.968  1.00  0.00     0.193 HD
ENDBRANCH  22  23
ENDBRANCH  20  22
ENDBRANCH   6  20
BRANCH   1  26
HETATM   26  O2  UNL     1       1.623 -19.678  24.016  1.00  0.00    -0.316 OA
BRANCH  26  27
HETATM   27  C2  UNL     1       1.997 -20.760  24.762  1.00  0.00     0.255 C 
HETATM   28  C1  UNL     1       3.249 -21.541  24.486  1.00  0.00     0.126 C 
HETATM   29  O1  UNL     1       1.286 -21.138  25.722  1.00  0.00    -0.266 OA
ENDBRANCH  26  27
ENDBRANCH   1  26
BRANCH  15  30
HETATM   30  O3  UNL     1       2.635 -14.904  24.506  1.00  0.00    -0.395 OA
ATOM     31  H3  UNL     1       3.289 -14.953  25.194  1.00  0.00     0.210 HD
ENDBRANCH  15  30
TORSDOF 6
ENDMDL
MODEL 5
REMARK VINA RESULT: -5.947841308      4.200      5.618
REMARK  6 active torsions:
REMARK  status: ('A' for Active; 'I' for Inactive)
REMARK    1  A    between atoms: C2_2  and  O2_4 
REMARK    2  A    between atoms: O2_4  and  C3_5 
REMARK    3  A    between atoms: C7_10  and  N1_11 
REMARK    4  A    between atoms: N1_11  and  N2_13 
REMARK    5  A    between atoms: N2_13  and  N3_14 
REMARK    6  A    between atoms: C14_25  and  O3_26 
ROOT
HETATM    1  C3  UNL     1       4.900 -22.911  23.390  1.00  0.00     0.141 C 
HETATM    2  C4  UNL     1       3.765 -21.912  23.498  1.00  0.00     0.070 C 
HETATM    3  C5  UNL     1       4.137 -20.592  24.016  1.00  0.00    -0.043 C 
HETATM    4  C6  UNL     1       3.263 -19.615  23.813  1.00  0.00     0.047 C 
HETATM    5 CL1  UNL     1       1.762 -19.924  22.974  1.00  0.00    -0.086 Cl
HETATM    6  C7  UNL     1       3.571 -18.202  24.282  1.00  0.00     0.222 C 
HETATM    7  C8  UNL     1       5.048 -17.996  24.053  1.00  0.00     0.145 C 
HETATM    8  F1  UNL     1       5.427 -16.781  23.616  1.00  0.00    -0.206 F 
HETATM    9  C9  UNL     1       5.912 -18.996  24.282  1.00  0.00     0.074 C 
HETATM   10  N4  UNL     1       7.266 -18.629  24.011  1.00  0.00    -0.103 NA
HETATM   11  C10 UNL     1       5.392 -20.244  24.765  1.00  0.00     0.028 C 
HETATM   12  C11 UNL     1       4.947 -20.016  26.223  1.00  0.00     0.027 C 
HETATM   13  C12 UNL     1       6.229 -21.453  24.770  1.00  0.00     0.014 C 
HETATM   14  C13 UNL     1       7.602 -21.471  25.222  1.00  0.00     0.039 C 
HETATM   15  C14 UNL     1       8.149 -22.736  24.521  1.00  0.00     0.126 C 
HETATM   16  C15 UNL     1       7.435 -22.760  23.186  1.00  0.00    -0.015 C 
HETATM   17  C16 UNL     1       8.273 -21.843  22.274  1.00  0.00     0.018 C 
HETATM   18  C17 UNL     1       7.436 -24.091  22.530  1.00  0.00     0.018 C 
HETATM   19  C18 UNL     1       6.142 -22.097  23.399  1.00  0.00     0.031 C 
ENDROOT
BRANCH   6  20
HETATM   20  N1  UNL     1       2.817 -17.269  23.470  1.00  0.00    -0.236 N 
ATOM     21  H1  UNL     1       2.615 -17.486  22.495  1.00  0.00     0.198 HD
BRANCH  20  22
HETATM   22  N2  UNL     1       2.425 -16.223  23.960  1.00  0.00    -0.247 NA
BRANCH  22  23
HETATM   23  N3  UNL     1       2.346 -15.047  24.308  1.00  0.00    -0.261 N 
ATOM     24  H32 UNL     1       2.737 -14.674  23.443  1.00  0.00     0.193 HD
ATOM     25  H31 UNL     1       2.166 -14.201  24.849  1.00  0.00     0.193 HD
ENDBRANCH  22  23
ENDBRANCH  20  22
ENDBRANCH   6  20
BRANCH   1  26
HETATM   26  O2  UNL     1       4.759 -23.741  24.553  1.00  0.00    -0.316 OA
BRANCH  26  27
HETATM   27  C2  UNL     1       3.570 -24.366  24.806  1.00  0.00     0.255 C 
HETATM   28  C1  UNL     1       2.575 -23.842  25.800  1.00  0.00     0.126 C 
HETATM   29  O1  UNL     1       3.272 -25.419  24.196  1.00  0.00    -0.266 OA
ENDBRANCH  26  27
ENDBRANCH   1  26
BRANCH  15  30
HETATM   30  O3  UNL     1       9.521 -22.573  24.404  1.00  0.00    -0.395 OA
ATOM     31  H3  UNL     1       9.906 -22.866  25.222  1.00  0.00     0.210 HD
ENDBRANCH  15  30
TORSDOF 6
ENDMDL
