MODEL 1
REMARK VINA RESULT: -6.299331457      0.000      0.000
REMARK  5 active torsions:
REMARK  status: ('A' for Active; 'I' for Inactive)
REMARK    1  A    between atoms: S1_2  and  C2_3 
REMARK    2  A    between atoms: C4_7  and  C5_8 
REMARK    3  A    between atoms: C5_8  and  N3_13 
REMARK    4  A    between atoms: N2_9  and  O1_11 
REMARK    5  A    between atoms: N3_13  and  C6_15 
ROOT
HETATM    1  C5  UNL     1       5.469 -19.498  24.223  1.00  0.00     0.159 C 
HETATM    2  N2  UNL     1       4.473 -18.662  24.115  1.00  0.00    -0.251 N 
ATOM      3  H2  UNL     1       3.611 -18.986  23.679  1.00  0.00     0.196 HD
ENDROOT
BRANCH   1   4
HETATM    4  C4  UNL     1       6.690 -18.995  24.854  1.00  0.00     0.139 A 
HETATM    5  C3  UNL     1       7.064 -19.090  26.170  1.00  0.00     0.132 A 
HETATM    6  N1  UNL     1       8.256 -18.495  26.319  1.00  0.00    -0.338 N 
HETATM    7  C2  UNL     1       8.600 -18.041  25.097  1.00  0.00     0.187 A 
ATOM      8  H1  UNL     1       8.794 -18.403  27.181  1.00  0.00     0.168 HD
HETATM    9  O3  UNL     1       7.652 -18.350  24.243  1.00  0.00    -0.282 OA
BRANCH   7  10
HETATM   10  S1  UNL     1      10.122 -17.164  24.770  1.00  0.00    -0.091 SA
HETATM   11  C1  UNL     1      11.211 -18.061  23.665  1.00  0.00     0.099 C 
ENDBRANCH   7  10
ENDBRANCH   1   4
BRANCH   1  12
HETATM   12  N3  UNL     1       5.367 -20.826  23.749  1.00  0.00    -0.345 N 
ATOM     13  H3  UNL     1       5.349 -21.007  22.745  1.00  0.00     0.163 HD
BRANCH  12  14
HETATM   14  C6  UNL     1       5.291 -21.926  24.681  1.00  0.00     0.233 C 
HETATM   15  C7  UNL     1       5.529 -23.222  23.961  1.00  0.00     0.130 C 
HETATM   16  S2  UNL     1       3.821 -23.903  23.935  1.00  0.00    -0.128 SA
HETATM   17  C8  UNL     1       3.116 -22.505  24.897  1.00  0.00     0.104 C 
HETATM   18  C9  UNL     1       2.190 -23.114  25.939  1.00  0.00     0.058 C 
HETATM   19  C10 UNL     1       2.319 -21.673  23.976  1.00  0.00     0.058 C 
HETATM   20  O2  UNL     1       4.207 -21.969  25.456  1.00  0.00    -0.345 OA
ENDBRANCH  12  14
ENDBRANCH   1  12
BRANCH   2  21
HETATM   21  O1  UNL     1       4.533 -17.387  24.555  1.00  0.00    -0.288 OA
ATOM     22  H1  UNL     1       3.846 -16.986  25.073  1.00  0.00     0.244 HD
ENDBRANCH   2  21
TORSDOF 5
ENDMDL
MODEL 2
REMARK VINA RESULT: -6.281752495      2.105      2.744
REMARK  5 active torsions:
REMARK  status: ('A' for Active; 'I' for Inactive)
REMARK    1  A    between atoms: S1_2  and  C2_3 
REMARK    2  A    between atoms: C4_7  and  C5_8 
REMARK    3  A    between atoms: C5_8  and  N3_13 
REMARK    4  A    between atoms: N2_9  and  O1_11 
REMARK    5  A    between atoms: N3_13  and  C6_15 
ROOT
HETATM    1  C5  UNL     1       6.916 -22.127  23.054  1.00  0.00     0.159 C 
HETATM    2  N2  UNL     1       7.556 -22.968  22.288  1.00  0.00    -0.251 N 
ATOM      3  H2  UNL     1       7.026 -23.708  21.829  1.00  0.00     0.196 HD
ENDROOT
BRANCH   1   4
HETATM    4  C4  UNL     1       7.711 -21.079  23.696  1.00  0.00     0.139 A 
HETATM    5  C3  UNL     1       7.675 -20.671  25.005  1.00  0.00     0.132 A 
HETATM    6  N1  UNL     1       8.567 -19.683  25.168  1.00  0.00    -0.338 N 
HETATM    7  C2  UNL     1       9.139 -19.496  23.961  1.00  0.00     0.187 A 
ATOM      8  H1  UNL     1       8.771 -19.176  26.029  1.00  0.00     0.168 HD
HETATM    9  O3  UNL     1       8.613 -20.338  23.102  1.00  0.00    -0.282 OA
BRANCH   7  10
HETATM   10  S1  UNL     1      10.407 -18.274  23.657  1.00  0.00    -0.091 SA
HETATM   11  C1  UNL     1      10.359 -16.923  24.835  1.00  0.00     0.099 C 
ENDBRANCH   7  10
ENDBRANCH   1   4
BRANCH   1  12
HETATM   12  N3  UNL     1       5.520 -22.231  23.251  1.00  0.00    -0.345 N 
ATOM     13  H3  UNL     1       4.879 -21.854  22.553  1.00  0.00     0.163 HD
BRANCH  12  14
HETATM   14  C6  UNL     1       4.999 -22.868  24.437  1.00  0.00     0.233 C 
HETATM   15  C7  UNL     1       4.538 -24.258  24.109  1.00  0.00     0.130 C 
HETATM   16  S2  UNL     1       2.715 -24.022  24.157  1.00  0.00    -0.128 SA
HETATM   17  C8  UNL     1       2.834 -22.258  24.661  1.00  0.00     0.104 C 
HETATM   18  C9  UNL     1       1.810 -22.050  25.766  1.00  0.00     0.058 C 
HETATM   19  C10 UNL     1       2.462 -21.426  23.502  1.00  0.00     0.058 C 
HETATM   20  O2  UNL     1       4.087 -22.181  25.124  1.00  0.00    -0.345 OA
ENDBRANCH  12  14
ENDBRANCH   1  12
BRANCH   2  21
HETATM   21  O1  UNL     1       8.887 -22.901  22.076  1.00  0.00    -0.288 OA
ATOM     22  H1  UNL     1       9.298 -23.195  21.271  1.00  0.00     0.244 HD
ENDBRANCH   2  21
TORSDOF 5
ENDMDL
MODEL 3
REMARK VINA RESULT: -6.243452362      3.435      4.852
REMARK  5 active torsions:
REMARK  status: ('A' for Active; 'I' for Inactive)
REMARK    1  A    between atoms: S1_2  and  C2_3 
REMARK    2  A    between atoms: C4_7  and  C5_8 
REMARK    3  A    between atoms: C5_8  and  N3_13 
REMARK    4  A    between atoms: N2_9  and  O1_11 
REMARK    5  A    between atoms: N3_13  and  C6_15 
ROOT
HETATM    1  C5  UNL     1       9.960 -20.935  22.842  1.00  0.00     0.159 C 
HETATM    2  N2  UNL     1      10.580 -22.071  22.686  1.00  0.00    -0.251 N 
ATOM      3  H2  UNL     1      10.024 -22.921  22.588  1.00  0.00     0.196 HD
ENDROOT
BRANCH   1   4
HETATM    4  C4  UNL     1      10.793 -19.739  22.979  1.00  0.00     0.139 A 
HETATM    5  C3  UNL     1      10.526 -18.598  23.692  1.00  0.00     0.132 A 
HETATM    6  N1  UNL     1      11.556 -17.753  23.545  1.00  0.00    -0.338 N 
HETATM    7  C2  UNL     1      12.441 -18.382  22.746  1.00  0.00     0.187 A 
ATOM      8  H1  UNL     1      11.651 -16.824  23.955  1.00  0.00     0.168 HD
HETATM    9  O3  UNL     1      11.964 -19.561  22.422  1.00  0.00    -0.282 OA
BRANCH   7  10
HETATM   10  S1  UNL     1      13.998 -17.658  22.248  1.00  0.00    -0.091 SA
HETATM   11  C1  UNL     1      14.148 -15.940  22.738  1.00  0.00     0.099 C 
ENDBRANCH   7  10
ENDBRANCH   1   4
BRANCH   1  12
HETATM   12  N3  UNL     1       8.548 -20.868  22.878  1.00  0.00    -0.345 N 
ATOM     13  H3  UNL     1       8.056 -20.195  22.290  1.00  0.00     0.163 HD
BRANCH  12  14
HETATM   14  C6  UNL     1       7.801 -21.749  23.744  1.00  0.00     0.233 C 
HETATM   15  C7  UNL     1       6.380 -21.846  23.269  1.00  0.00     0.130 C 
HETATM   16  S2  UNL     1       5.533 -20.839  24.553  1.00  0.00    -0.128 SA
HETATM   17  C8  UNL     1       7.074 -20.539  25.509  1.00  0.00     0.104 C 
HETATM   18  C9  UNL     1       6.726 -20.745  26.976  1.00  0.00     0.058 C 
HETATM   19  C10 UNL     1       7.472 -19.133  25.306  1.00  0.00     0.058 C 
HETATM   20  O2  UNL     1       7.882 -21.502  25.051  1.00  0.00    -0.345 OA
ENDBRANCH  12  14
ENDBRANCH   1  12
BRANCH   2  21
HETATM   21  O1  UNL     1      11.925 -22.175  22.647  1.00  0.00    -0.288 OA
ATOM     22  H1  UNL     1      12.422 -22.170  21.836  1.00  0.00     0.244 HD
ENDBRANCH   2  21
TORSDOF 5
ENDMDL
MODEL 4
REMARK VINA RESULT: -6.195238510      2.825      6.439
REMARK  5 active torsions:
REMARK  status: ('A' for Active; 'I' for Inactive)
REMARK    1  A    between atoms: S1_2  and  C2_3 
REMARK    2  A    between atoms: C4_7  and  C5_8 
REMARK    3  A    between atoms: C5_8  and  N3_13 
REMARK    4  A    between atoms: N2_9  and  O1_11 
REMARK    5  A    between atoms: N3_13  and  C6_15 
ROOT
HETATM    1  C5  UNL     1       7.190 -22.497  22.812  1.00  0.00     0.159 C 
HETATM    2  N2  UNL     1       7.865 -23.482  22.287  1.00  0.00    -0.251 N 
ATOM      3  H2  UNL     1       8.864 -23.357  22.125  1.00  0.00     0.196 HD
ENDROOT
BRANCH   1   4
HETATM    4  C4  UNL     1       5.759 -22.715  23.029  1.00  0.00     0.139 A 
HETATM    5  C3  UNL     1       4.734 -21.814  22.890  1.00  0.00     0.132 A 
HETATM    6  N1  UNL     1       3.582 -22.431  23.189  1.00  0.00    -0.338 N 
HETATM    7  C2  UNL     1       3.910 -23.699  23.507  1.00  0.00     0.187 A 
ATOM      8  H1  UNL     1       2.647 -22.023  23.177  1.00  0.00     0.168 HD
HETATM    9  O3  UNL     1       5.211 -23.843  23.405  1.00  0.00    -0.282 OA
BRANCH   7  10
HETATM   10  S1  UNL     1       2.707 -24.932  23.984  1.00  0.00    -0.091 SA
HETATM   11  C1  UNL     1       1.696 -24.410  25.368  1.00  0.00     0.099 C 
ENDBRANCH   7  10
ENDBRANCH   1   4
BRANCH   1  12
HETATM   12  N3  UNL     1       7.818 -21.277  23.152  1.00  0.00    -0.345 N 
ATOM     13  H3  UNL     1       7.801 -20.496  22.495  1.00  0.00     0.163 HD
BRANCH  12  14
HETATM   14  C6  UNL     1       8.482 -21.131  24.426  1.00  0.00     0.233 C 
HETATM   15  C7  UNL     1       7.790 -21.970  25.461  1.00  0.00     0.130 C 
HETATM   16  S2  UNL     1       6.936 -20.662  26.430  1.00  0.00    -0.128 SA
HETATM   17  C8  UNL     1       7.651 -19.289  25.438  1.00  0.00     0.104 C 
HETATM   18  C9  UNL     1       8.099 -18.223  26.427  1.00  0.00     0.058 C 
HETATM   19  C10 UNL     1       6.580 -18.733  24.589  1.00  0.00     0.058 C 
HETATM   20  O2  UNL     1       8.692 -19.883  24.843  1.00  0.00    -0.345 OA
ENDBRANCH  12  14
ENDBRANCH   1  12
BRANCH   2  21
HETATM   21  O1  UNL     1       7.300 -24.661  21.949  1.00  0.00    -0.288 OA
ATOM     22  H1  UNL     1       6.885 -24.814  21.109  1.00  0.00     0.244 HD
ENDBRANCH   2  21
TORSDOF 5
ENDMDL
MODEL 5
REMARK VINA RESULT: -6.166279768      2.522      6.567
REMARK  5 active torsions:
REMARK  status: ('A' for Active; 'I' for Inactive)
REMARK    1  A    between atoms: S1_2  and  C2_3 
REMARK    2  A    between atoms: C4_7  and  C5_8 
REMARK    3  A    between atoms: C5_8  and  N3_13 
REMARK    4  A    between atoms: N2_9  and  O1_11 
REMARK    5  A    between atoms: N3_13  and  C6_15 
ROOT
HETATM    1  C5  UNL     1       7.468 -22.890  22.981  1.00  0.00     0.159 C 
HETATM    2  N2  UNL     1       8.079 -23.720  22.181  1.00  0.00    -0.251 N 
ATOM      3  H2  UNL     1       9.088 -23.630  22.066  1.00  0.00     0.196 HD
ENDROOT
BRANCH   1   4
HETATM    4  C4  UNL     1       6.019 -23.050  23.120  1.00  0.00     0.139 A 
HETATM    5  C3  UNL     1       5.032 -22.161  22.779  1.00  0.00     0.132 A 
HETATM    6  N1  UNL     1       3.845 -22.708  23.075  1.00  0.00    -0.338 N 
HETATM    7  C2  UNL     1       4.114 -23.922  23.594  1.00  0.00     0.187 A 
ATOM      8  H1  UNL     1       2.925 -22.290  22.937  1.00  0.00     0.168 HD
HETATM    9  O3  UNL     1       5.414 -24.103  23.610  1.00  0.00    -0.282 OA
BRANCH   7  10
HETATM   10  S1  UNL     1       2.847 -25.053  24.150  1.00  0.00    -0.091 SA
HETATM   11  C1  UNL     1       1.740 -24.312  25.349  1.00  0.00     0.099 C 
ENDBRANCH   7  10
ENDBRANCH   1   4
BRANCH   1  12
HETATM   12  N3  UNL     1       8.177 -21.884  23.678  1.00  0.00    -0.345 N 
ATOM     13  H3  UNL     1       8.801 -22.140  24.443  1.00  0.00     0.163 HD
BRANCH  12  14
HETATM   14  C6  UNL     1       8.021 -20.497  23.308  1.00  0.00     0.233 C 
HETATM   15  C7  UNL     1       9.311 -19.762  23.534  1.00  0.00     0.130 C 
HETATM   16  S2  UNL     1       8.880 -18.793  25.035  1.00  0.00    -0.128 SA
HETATM   17  C8  UNL     1       7.146 -19.399  25.079  1.00  0.00     0.104 C 
HETATM   18  C9  UNL     1       6.266 -18.190  25.358  1.00  0.00     0.058 C 
HETATM   19  C10 UNL     1       7.022 -20.348  26.202  1.00  0.00     0.058 C 
HETATM   20  O2  UNL     1       6.976 -19.860  23.834  1.00  0.00    -0.345 OA
ENDBRANCH  12  14
ENDBRANCH   1  12
BRANCH   2  21
HETATM   21  O1  UNL     1       7.436 -24.691  21.500  1.00  0.00    -0.288 OA
ATOM     22  H1  UNL     1       6.719 -25.194  21.868  1.00  0.00     0.244 HD
ENDBRANCH   2  21
TORSDOF 5
ENDMDL
