MODEL 1
REMARK VINA RESULT: -7.443798286      0.000      0.000
REMARK  3 active torsions:
REMARK  status: ('A' for Active; 'I' for Inactive)
REMARK    1  A    between atoms: C2_3  and  N2_4 
REMARK    2  A    between atoms: C3_6  and  C4_7 
REMARK    3  A    between atoms: C4_7  and  N3_8 
ROOT
HETATM    1  N2  UNL     1       4.909 -20.625  24.035  1.00  0.00    -0.359 N 
ATOM      2  H2  UNL     1       4.235 -20.020  23.566  1.00  0.00     0.165 HD
HETATM    3  C3  UNL     1       4.555 -21.739  24.532  1.00  0.00     0.110 C 
ENDROOT
BRANCH   1   4
HETATM    4  C2  UNL     1       6.298 -20.241  24.154  1.00  0.00     0.099 A 
HETATM    5  C1  UNL     1       6.826 -19.190  24.849  1.00  0.00     0.087 A 
HETATM    6  N1  UNL     1       5.934 -18.303  25.587  1.00  0.00    -0.099 NA
HETATM    7  C9  UNL     1       8.160 -19.034  24.811  1.00  0.00    -0.018 A 
HETATM    8  C8  UNL     1       8.876 -19.943  24.078  1.00  0.00    -0.007 A 
HETATM    9  C10 UNL     1       9.034 -17.977  25.472  1.00  0.00     0.042 C 
HETATM   10  S1  UNL     1       7.670 -20.980  23.469  1.00  0.00    -0.074 SA
HETATM   11  C13 UNL     1      10.384 -19.851  23.974  1.00  0.00     0.047 C 
HETATM   12  C12 UNL     1      10.852 -18.451  23.810  1.00  0.00     0.005 C 
HETATM   13  C11 UNL     1       9.996 -17.416  24.447  1.00  0.00     0.005 C 
ENDBRANCH   1   4
BRANCH   3  14
HETATM   14  C4  UNL     1       3.124 -22.158  24.420  1.00  0.00     0.217 C 
HETATM   15  C5  UNL     1       2.510 -22.385  25.784  1.00  0.00     0.081 C 
HETATM   16  C6  UNL     1       1.863 -23.752  25.738  1.00  0.00     0.182 C 
HETATM   17  O3  UNL     1       2.293 -24.360  24.531  1.00  0.00    -0.319 OA
HETATM   18  C7  UNL     1       2.988 -23.475  23.749  1.00  0.00     0.299 C 
HETATM   19  O4  UNL     1       3.463 -23.715  22.608  1.00  0.00    -0.262 OA
BRANCH  14  20
HETATM   20  N3  UNL     1       2.385 -21.135  23.700  1.00  0.00    -0.129 N 
HETATM   21  O1  UNL     1       2.442 -21.019  22.466  1.00  0.00    -0.535 OA
HETATM   22  O2  UNL     1       1.606 -20.291  24.467  1.00  0.00    -0.535 OA
ENDBRANCH  14  20
ENDBRANCH   3  14
TORSDOF 3
ENDMDL
MODEL 2
REMARK VINA RESULT: -7.322432372      4.476      6.562
REMARK  3 active torsions:
REMARK  status: ('A' for Active; 'I' for Inactive)
REMARK    1  A    between atoms: C2_3  and  N2_4 
REMARK    2  A    between atoms: C3_6  and  C4_7 
REMARK    3  A    between atoms: C4_7  and  N3_8 
ROOT
HETATM    1  N2  UNL     1       3.430 -18.027  23.666  1.00  0.00    -0.359 N 
ATOM      2  H2  UNL     1       4.117 -17.352  24.003  1.00  0.00     0.165 HD
HETATM    3  C3  UNL     1       2.425 -17.653  22.984  1.00  0.00     0.110 C 
ENDROOT
BRANCH   1   4
HETATM    4  C2  UNL     1       3.570 -19.437  23.950  1.00  0.00     0.099 A 
HETATM    5  C1  UNL     1       4.716 -20.140  24.192  1.00  0.00     0.087 A 
HETATM    6  N1  UNL     1       5.997 -19.442  24.178  1.00  0.00    -0.099 NA
HETATM    7  C9  UNL     1       4.594 -21.456  24.433  1.00  0.00    -0.018 A 
HETATM    8  C8  UNL     1       3.328 -21.981  24.415  1.00  0.00    -0.007 A 
HETATM    9  C10 UNL     1       5.667 -22.493  24.733  1.00  0.00     0.042 C 
HETATM   10  S1  UNL     1       2.356 -20.626  24.064  1.00  0.00    -0.074 SA
HETATM   11  C13 UNL     1       3.088 -23.453  24.674  1.00  0.00     0.047 C 
HETATM   12  C12 UNL     1       4.099 -24.314  24.011  1.00  0.00     0.005 C 
HETATM   13  C11 UNL     1       5.446 -23.705  23.853  1.00  0.00     0.005 C 
ENDBRANCH   1   4
BRANCH   3  14
HETATM   14  C4  UNL     1       2.260 -16.200  22.677  1.00  0.00     0.217 C 
HETATM   15  C5  UNL     1       1.255 -15.984  21.568  1.00  0.00     0.081 C 
HETATM   16  C6  UNL     1       1.928 -15.088  20.551  1.00  0.00     0.182 C 
HETATM   17  O3  UNL     1       3.294 -15.009  20.927  1.00  0.00    -0.319 OA
HETATM   18  C7  UNL     1       3.511 -15.607  22.140  1.00  0.00     0.299 C 
HETATM   19  O4  UNL     1       4.612 -15.664  22.747  1.00  0.00    -0.262 OA
BRANCH  14  20
HETATM   20  N3  UNL     1       1.837 -15.506  23.881  1.00  0.00    -0.129 N 
HETATM   21  O1  UNL     1       0.796 -14.832  23.929  1.00  0.00    -0.535 OA
HETATM   22  O2  UNL     1       2.661 -15.635  24.982  1.00  0.00    -0.535 OA
ENDBRANCH  14  20
ENDBRANCH   3  14
TORSDOF 3
ENDMDL
MODEL 3
REMARK VINA RESULT: -7.223206222      1.406      2.329
REMARK  3 active torsions:
REMARK  status: ('A' for Active; 'I' for Inactive)
REMARK    1  A    between atoms: C2_3  and  N2_4 
REMARK    2  A    between atoms: C3_6  and  C4_7 
REMARK    3  A    between atoms: C4_7  and  N3_8 
ROOT
HETATM    1  N2  UNL     1       5.694 -20.529  24.318  1.00  0.00    -0.359 N 
ATOM      2  H2  UNL     1       4.988 -20.144  24.944  1.00  0.00     0.165 HD
HETATM    3  C3  UNL     1       5.406 -21.454  23.495  1.00  0.00     0.110 C 
ENDROOT
BRANCH   1   4
HETATM    4  C2  UNL     1       7.054 -20.040  24.338  1.00  0.00     0.099 A 
HETATM    5  C1  UNL     1       7.570 -19.010  25.072  1.00  0.00     0.087 A 
HETATM    6  N1  UNL     1       6.694 -18.266  25.971  1.00  0.00    -0.099 NA
HETATM    7  C9  UNL     1       8.877 -18.737  24.920  1.00  0.00    -0.018 A 
HETATM    8  C8  UNL     1       9.580 -19.518  24.041  1.00  0.00    -0.007 A 
HETATM    9  C10 UNL     1       9.731 -17.669  25.588  1.00  0.00     0.042 C 
HETATM   10  S1  UNL     1       8.400 -20.599  23.458  1.00  0.00    -0.074 SA
HETATM   11  C13 UNL     1      11.058 -19.289  23.801  1.00  0.00     0.047 C 
HETATM   12  C12 UNL     1      11.398 -17.846  23.722  1.00  0.00     0.005 C 
HETATM   13  C11 UNL     1      10.536 -16.945  24.531  1.00  0.00     0.005 C 
ENDBRANCH   1   4
BRANCH   3  14
HETATM   14  C4  UNL     1       4.006 -21.975  23.456  1.00  0.00     0.217 C 
HETATM   15  C5  UNL     1       3.155 -21.192  22.480  1.00  0.00     0.081 C 
HETATM   16  C6  UNL     1       1.908 -20.783  23.235  1.00  0.00     0.182 C 
HETATM   17  O3  UNL     1       2.146 -21.089  24.600  1.00  0.00    -0.319 OA
HETATM   18  C7  UNL     1       3.313 -21.788  24.756  1.00  0.00     0.299 C 
HETATM   19  O4  UNL     1       3.769 -22.227  25.844  1.00  0.00    -0.262 OA
BRANCH  14  20
HETATM   20  N3  UNL     1       4.032 -23.379  23.085  1.00  0.00    -0.129 N 
HETATM   21  O1  UNL     1       3.017 -24.093  23.112  1.00  0.00    -0.535 OA
HETATM   22  O2  UNL     1       5.257 -23.886  22.697  1.00  0.00    -0.535 OA
ENDBRANCH  14  20
ENDBRANCH   3  14
TORSDOF 3
ENDMDL
MODEL 4
REMARK VINA RESULT: -7.016024643      4.028      7.083
REMARK  3 active torsions:
REMARK  status: ('A' for Active; 'I' for Inactive)
REMARK    1  A    between atoms: C2_3  and  N2_4 
REMARK    2  A    between atoms: C3_6  and  C4_7 
REMARK    3  A    between atoms: C4_7  and  N3_8 
ROOT
HETATM    1  N2  UNL     1       5.660 -19.997  24.319  1.00  0.00    -0.359 N 
ATOM      2  H2  UNL     1       5.977 -20.955  24.461  1.00  0.00     0.165 HD
HETATM    3  C3  UNL     1       6.420 -19.010  24.572  1.00  0.00     0.110 C 
ENDROOT
BRANCH   1   4
HETATM    4  C2  UNL     1       4.331 -19.717  23.824  1.00  0.00     0.099 A 
HETATM    5  C1  UNL     1       3.476 -20.564  23.177  1.00  0.00     0.087 A 
HETATM    6  N1  UNL     1       3.893 -21.938  22.920  1.00  0.00    -0.099 NA
HETATM    7  C9  UNL     1       2.281 -20.072  22.809  1.00  0.00    -0.018 A 
HETATM    8  C8  UNL     1       2.023 -18.762  23.115  1.00  0.00    -0.007 A 
HETATM    9  C10 UNL     1       1.131 -20.756  22.084  1.00  0.00     0.042 C 
HETATM   10  S1  UNL     1       3.449 -18.263  23.902  1.00  0.00    -0.074 SA
HETATM   11  C13 UNL     1       0.705 -18.117  22.741  1.00  0.00     0.047 C 
HETATM   12  C12 UNL     1       0.249 -18.513  21.385  1.00  0.00     0.005 C 
HETATM   13  C11 UNL     1       0.665 -19.871  20.947  1.00  0.00     0.005 C 
ENDBRANCH   1   4
BRANCH   3  14
HETATM   14  C4  UNL     1       7.799 -19.274  25.084  1.00  0.00     0.217 C 
HETATM   15  C5  UNL     1       8.253 -18.183  26.028  1.00  0.00     0.081 C 
HETATM   16  C6  UNL     1       9.611 -17.731  25.537  1.00  0.00     0.182 C 
HETATM   17  O3  UNL     1       9.802 -18.337  24.269  1.00  0.00    -0.319 OA
HETATM   18  C7  UNL     1       8.807 -19.237  23.994  1.00  0.00     0.299 C 
HETATM   19  O4  UNL     1       8.726 -19.953  22.962  1.00  0.00    -0.262 OA
BRANCH  14  20
HETATM   20  N3  UNL     1       7.818 -20.561  25.757  1.00  0.00    -0.129 N 
HETATM   21  O1  UNL     1       8.508 -21.512  25.356  1.00  0.00    -0.535 OA
HETATM   22  O2  UNL     1       7.022 -20.675  26.880  1.00  0.00    -0.535 OA
ENDBRANCH  14  20
ENDBRANCH   3  14
TORSDOF 3
ENDMDL
MODEL 5
REMARK VINA RESULT: -6.858009862      4.847      6.971
REMARK  3 active torsions:
REMARK  status: ('A' for Active; 'I' for Inactive)
REMARK    1  A    between atoms: C2_3  and  N2_4 
REMARK    2  A    between atoms: C3_6  and  C4_7 
REMARK    3  A    between atoms: C4_7  and  N3_8 
ROOT
HETATM    1  N2  UNL     1       3.083 -19.102  23.228  1.00  0.00    -0.359 N 
ATOM      2  H2  UNL     1       3.594 -18.980  22.354  1.00  0.00     0.165 HD
HETATM    3  C3  UNL     1       2.578 -18.107  23.836  1.00  0.00     0.110 C 
ENDROOT
BRANCH   1   4
HETATM    4  C2  UNL     1       2.912 -20.412  23.814  1.00  0.00     0.099 A 
HETATM    5  C1  UNL     1       3.648 -21.541  23.589  1.00  0.00     0.087 A 
HETATM    6  N1  UNL     1       4.764 -21.488  22.650  1.00  0.00    -0.099 NA
HETATM    7  C9  UNL     1       3.295 -22.651  24.257  1.00  0.00    -0.018 A 
HETATM    8  C8  UNL     1       2.225 -22.556  25.108  1.00  0.00    -0.007 A 
HETATM    9  C10 UNL     1       3.909 -24.043  24.221  1.00  0.00     0.042 C 
HETATM   10  S1  UNL     1       1.751 -20.928  24.947  1.00  0.00    -0.074 SA
HETATM   11  C13 UNL     1       1.751 -23.753  25.905  1.00  0.00     0.047 C 
HETATM   12  C12 UNL     1       1.767 -25.004  25.105  1.00  0.00     0.005 C 
HETATM   13  C11 UNL     1       2.809 -25.068  24.047  1.00  0.00     0.005 C 
ENDBRANCH   1   4
BRANCH   3  14
HETATM   14  C4  UNL     1       2.742 -16.742  23.249  1.00  0.00     0.217 C 
HETATM   15  C5  UNL     1       2.033 -15.697  24.081  1.00  0.00     0.081 C 
HETATM   16  C6  UNL     1       1.169 -14.904  23.124  1.00  0.00     0.182 C 
HETATM   17  O3  UNL     1       1.190 -15.603  21.890  1.00  0.00    -0.319 OA
HETATM   18  C7  UNL     1       2.091 -16.635  21.919  1.00  0.00     0.299 C 
HETATM   19  O4  UNL     1       2.355 -17.409  20.962  1.00  0.00    -0.262 OA
BRANCH  14  20
HETATM   20  N3  UNL     1       4.158 -16.433  23.154  1.00  0.00    -0.129 N 
HETATM   21  O1  UNL     1       4.595 -15.536  22.416  1.00  0.00    -0.535 OA
HETATM   22  O2  UNL     1       5.004 -17.195  23.936  1.00  0.00    -0.535 OA
ENDBRANCH  14  20
ENDBRANCH   3  14
TORSDOF 3
ENDMDL
