MODEL 1
REMARK VINA RESULT: -4.324767127      0.000      0.000
REMARK  4 active torsions:
REMARK  status: ('A' for Active; 'I' for Inactive)
REMARK    1  A    between atoms: N1_1  and  C1_4 
REMARK    2  A    between atoms: N3_7  and  O1_8 
REMARK    3  A    between atoms: C2_10  and  C3_11 
REMARK       I    between atoms: C3_11  and  N4_13 
REMARK    4  A    between atoms: N4_13  and  N5_15 
ROOT
HETATM    1  C1  UNL     1      16.076   6.763  25.120  1.00  0.00     0.707 A 
HETATM    2  N2  UNL     1      15.265   6.865  26.177  1.00  0.00    -0.103 N 
ATOM      3  H2  UNL     1      15.625   6.718  27.120  1.00  0.00     0.208 HD
HETATM    4  N3  UNL     1      13.995   7.156  25.986  1.00  0.00    -0.125 N 
HETATM    5  C2  UNL     1      13.446   7.363  24.771  1.00  0.00     0.237 A 
HETATM    6  N6  UNL     1      14.279   7.255  23.729  1.00  0.00    -0.263 N 
ATOM      7  H6  UNL     1      13.919   7.400  22.786  1.00  0.00     0.189 HD
HETATM    8  N7  UNL     1      15.569   6.961  23.897  1.00  0.00    -0.129 N 
ATOM      9  H7  UNL     1      16.178   6.886  23.082  1.00  0.00     0.205 HD
ENDROOT
BRANCH   5  10
HETATM   10  C3  UNL     1      12.035   7.681  24.635  1.00  0.00     0.308 C 
HETATM   11  O2  UNL     1      11.279   6.998  23.900  1.00  0.00    -0.262 OA
HETATM   12  N4  UNL     1      11.474   8.775  25.333  1.00  0.00    -0.270 N 
ATOM     13  H4  UNL     1      12.079   9.337  25.932  1.00  0.00     0.189 HD
BRANCH  12  14
HETATM   14  N5  UNL     1      10.129   9.117  25.235  1.00  0.00    -0.342 N 
ATOM     15  H52 UNL     1       9.607   8.760  24.435  1.00  0.00     0.176 HD
ATOM     16  H51 UNL     1       9.659   9.702  25.926  1.00  0.00     0.176 HD
ENDBRANCH  12  14
ENDBRANCH   5  10
BRANCH   4  17
HETATM   17  O1  UNL     1      13.159   7.260  27.085  1.00  0.00    -0.266 OA
ATOM     18  H1  UNL     1      12.227   7.373  26.943  1.00  0.00     0.247 HD
ENDBRANCH   4  17
BRANCH   1  19
HETATM   19  N1  UNL     1      17.334   6.475  25.314  1.00  0.00    -0.232 N 
ATOM     20  H12 UNL     1      17.787   6.598  26.219  1.00  0.00     0.174 HD
ATOM     21  H11 UNL     1      17.884   6.114  24.534  1.00  0.00     0.174 HD
ENDBRANCH   1  19
TORSDOF 4
ENDMDL
MODEL 2
REMARK VINA RESULT: -4.285278261      2.774      4.494
REMARK  4 active torsions:
REMARK  status: ('A' for Active; 'I' for Inactive)
REMARK    1  A    between atoms: N1_1  and  C1_4 
REMARK    2  A    between atoms: N3_7  and  O1_8 
REMARK    3  A    between atoms: C2_10  and  C3_11 
REMARK       I    between atoms: C3_11  and  N4_13 
REMARK    4  A    between atoms: N4_13  and  N5_15 
ROOT
HETATM    1  C1  UNL     1      12.182   8.044  25.295  1.00  0.00     0.707 A 
HETATM    2  N2  UNL     1      11.406   7.887  24.218  1.00  0.00    -0.103 N 
ATOM      3  H2  UNL     1      11.719   7.315  23.435  1.00  0.00     0.208 HD
HETATM    4  N3  UNL     1      10.231   8.482  24.182  1.00  0.00    -0.125 N 
HETATM    5  C2  UNL     1       9.748   9.254  25.178  1.00  0.00     0.237 A 
HETATM    6  N6  UNL     1      10.544   9.396  26.243  1.00  0.00    -0.263 N 
ATOM      7  H6  UNL     1      10.231   9.969  27.027  1.00  0.00     0.189 HD
HETATM    8  N7  UNL     1      11.738   8.804  26.305  1.00  0.00    -0.129 N 
ATOM      9  H7  UNL     1      12.321   8.931  27.132  1.00  0.00     0.205 HD
ENDROOT
BRANCH   5  10
HETATM   10  C3  UNL     1       8.441   9.880  25.068  1.00  0.00     0.308 C 
HETATM   11  O2  UNL     1       7.403   9.198  24.887  1.00  0.00    -0.262 OA
HETATM   12  N4  UNL     1       8.307  11.285  25.162  1.00  0.00    -0.270 N 
ATOM     13  H4  UNL     1       9.145  11.849  25.307  1.00  0.00     0.189 HD
BRANCH  12  14
HETATM   14  N5  UNL     1       7.078  11.928  25.063  1.00  0.00    -0.342 N 
ATOM     15  H52 UNL     1       6.323  11.436  24.586  1.00  0.00     0.176 HD
ATOM     16  H51 UNL     1       6.913  12.859  25.447  1.00  0.00     0.176 HD
ENDBRANCH  12  14
ENDBRANCH   5  10
BRANCH   4  17
HETATM   17  O1  UNL     1       9.431   8.316  23.064  1.00  0.00    -0.266 OA
ATOM     18  H1  UNL     1       8.573   7.924  23.167  1.00  0.00     0.247 HD
ENDBRANCH   4  17
BRANCH   1  19
HETATM   19  N1  UNL     1      13.344   7.453  25.328  1.00  0.00    -0.232 N 
ATOM     20  H12 UNL     1      13.596   6.712  24.674  1.00  0.00     0.174 HD
ATOM     21  H11 UNL     1      14.025   7.741  26.030  1.00  0.00     0.174 HD
ENDBRANCH   1  19
TORSDOF 4
ENDMDL
MODEL 3
REMARK VINA RESULT: -4.226476122      1.828      2.476
REMARK  4 active torsions:
REMARK  status: ('A' for Active; 'I' for Inactive)
REMARK    1  A    between atoms: N1_1  and  C1_4 
REMARK    2  A    between atoms: N3_7  and  O1_8 
REMARK    3  A    between atoms: C2_10  and  C3_11 
REMARK       I    between atoms: C3_11  and  N4_13 
REMARK    4  A    between atoms: N4_13  and  N5_15 
ROOT
HETATM    1  C1  UNL     1      18.291   6.024  25.107  1.00  0.00     0.707 A 
HETATM    2  N2  UNL     1      17.444   5.501  25.999  1.00  0.00    -0.103 N 
ATOM      3  H2  UNL     1      17.774   4.827  26.690  1.00  0.00     0.208 HD
HETATM    4  N3  UNL     1      16.180   5.868  25.976  1.00  0.00    -0.125 N 
HETATM    5  C2  UNL     1      15.670   6.753  25.094  1.00  0.00     0.237 A 
HETATM    6  N6  UNL     1      16.537   7.261  24.211  1.00  0.00    -0.263 N 
ATOM      7  H6  UNL     1      16.208   7.935  23.520  1.00  0.00     0.189 HD
HETATM    8  N7  UNL     1      17.823   6.907  24.215  1.00  0.00    -0.129 N 
ATOM      9  H7  UNL     1      18.459   7.313  23.529  1.00  0.00     0.205 HD
ENDROOT
BRANCH   5  10
HETATM   10  C3  UNL     1      14.262   7.110  25.126  1.00  0.00     0.308 C 
HETATM   11  O2  UNL     1      13.524   6.949  24.123  1.00  0.00    -0.262 OA
HETATM   12  N4  UNL     1      13.684   7.652  26.298  1.00  0.00    -0.270 N 
ATOM     13  H4  UNL     1      14.275   7.788  27.118  1.00  0.00     0.189 HD
BRANCH  12  14
HETATM   14  N5  UNL     1      12.342   8.008  26.376  1.00  0.00    -0.342 N 
ATOM     15  H52 UNL     1      11.670   7.434  25.867  1.00  0.00     0.176 HD
ATOM     16  H51 UNL     1      12.017   8.810  26.916  1.00  0.00     0.176 HD
ENDBRANCH  12  14
ENDBRANCH   5  10
BRANCH   4  17
HETATM   17  O1  UNL     1      15.307   5.322  26.902  1.00  0.00    -0.266 OA
ATOM     18  H1  UNL     1      14.375   5.475  26.800  1.00  0.00     0.247 HD
ENDBRANCH   4  17
BRANCH   1  19
HETATM   19  N1  UNL     1      19.543   5.659  25.135  1.00  0.00    -0.232 N 
ATOM     20  H12 UNL     1      20.130   5.788  25.959  1.00  0.00     0.174 HD
ATOM     21  H11 UNL     1      19.951   5.231  24.304  1.00  0.00     0.174 HD
ENDBRANCH   1  19
TORSDOF 4
ENDMDL
MODEL 4
REMARK VINA RESULT: -4.196680756      1.214      2.052
REMARK  4 active torsions:
REMARK  status: ('A' for Active; 'I' for Inactive)
REMARK    1  A    between atoms: N1_1  and  C1_4 
REMARK    2  A    between atoms: N3_7  and  O1_8 
REMARK    3  A    between atoms: C2_10  and  C3_11 
REMARK       I    between atoms: C3_11  and  N4_13 
REMARK    4  A    between atoms: N4_13  and  N5_15 
ROOT
HETATM    1  C1  UNL     1      16.138   6.981  24.593  1.00  0.00     0.707 A 
HETATM    2  N2  UNL     1      15.082   7.212  23.807  1.00  0.00    -0.103 N 
ATOM      3  H2  UNL     1      15.203   7.330  22.801  1.00  0.00     0.208 HD
HETATM    4  N3  UNL     1      13.884   7.284  24.346  1.00  0.00    -0.125 N 
HETATM    5  C2  UNL     1      13.644   7.139  25.667  1.00  0.00     0.237 A 
HETATM    6  N6  UNL     1      14.717   6.909  26.432  1.00  0.00    -0.263 N 
ATOM      7  H6  UNL     1      14.595   6.792  27.438  1.00  0.00     0.189 HD
HETATM    8  N7  UNL     1      15.941   6.831  25.909  1.00  0.00    -0.129 N 
ATOM      9  H7  UNL     1      16.739   6.655  26.520  1.00  0.00     0.205 HD
ENDROOT
BRANCH   5  10
HETATM   10  C3  UNL     1      12.292   7.232  26.193  1.00  0.00     0.308 C 
HETATM   11  O2  UNL     1      11.668   6.212  26.575  1.00  0.00    -0.262 OA
HETATM   12  N4  UNL     1      11.643   8.485  26.288  1.00  0.00    -0.270 N 
ATOM     13  H4  UNL     1      12.141   9.320  25.979  1.00  0.00     0.189 HD
BRANCH  12  14
HETATM   14  N5  UNL     1      10.351   8.623  26.785  1.00  0.00    -0.342 N 
ATOM     15  H52 UNL     1       9.675   7.895  26.556  1.00  0.00     0.176 HD
ATOM     16  H51 UNL     1      10.066   9.416  27.360  1.00  0.00     0.176 HD
ENDBRANCH  12  14
ENDBRANCH   5  10
BRANCH   4  17
HETATM   17  O1  UNL     1      12.793   7.524  23.527  1.00  0.00    -0.266 OA
ATOM     18  H1  UNL     1      12.029   6.966  23.605  1.00  0.00     0.247 HD
ENDBRANCH   4  17
BRANCH   1  19
HETATM   19  N1  UNL     1      17.324   6.909  24.054  1.00  0.00    -0.232 N 
ATOM     20  H12 UNL     1      17.625   7.543  23.313  1.00  0.00     0.174 HD
ATOM     21  H11 UNL     1      17.974   6.195  24.382  1.00  0.00     0.174 HD
ENDBRANCH   1  19
TORSDOF 4
ENDMDL
MODEL 5
REMARK VINA RESULT: -4.124446981      1.930      2.622
REMARK  4 active torsions:
REMARK  status: ('A' for Active; 'I' for Inactive)
REMARK    1  A    between atoms: N1_1  and  C1_4 
REMARK    2  A    between atoms: N3_7  and  O1_8 
REMARK    3  A    between atoms: C2_10  and  C3_11 
REMARK       I    between atoms: C3_11  and  N4_13 
REMARK    4  A    between atoms: N4_13  and  N5_15 
ROOT
HETATM    1  C1  UNL     1      14.281   7.629  27.536  1.00  0.00     0.707 A 
HETATM    2  N2  UNL     1      14.526   7.228  26.285  1.00  0.00    -0.103 N 
ATOM      3  H2  UNL     1      15.438   6.845  26.035  1.00  0.00     0.208 HD
HETATM    4  N3  UNL     1      13.576   7.332  25.379  1.00  0.00    -0.125 N 
HETATM    5  C2  UNL     1      12.347   7.828  25.633  1.00  0.00     0.237 A 
HETATM    6  N6  UNL     1      12.127   8.223  26.892  1.00  0.00    -0.263 N 
ATOM      7  H6  UNL     1      11.215   8.607  27.142  1.00  0.00     0.189 HD
HETATM    8  N7  UNL     1      13.072   8.127  27.827  1.00  0.00    -0.129 N 
ATOM      9  H7  UNL     1      12.873   8.437  28.778  1.00  0.00     0.205 HD
ENDROOT
BRANCH   5  10
HETATM   10  C3  UNL     1      11.347   7.914  24.582  1.00  0.00     0.308 C 
HETATM   11  O2  UNL     1      11.148   6.960  23.790  1.00  0.00    -0.262 OA
HETATM   12  N4  UNL     1      10.568   9.084  24.426  1.00  0.00    -0.270 N 
ATOM     13  H4  UNL     1      10.722   9.865  25.063  1.00  0.00     0.189 HD
BRANCH  12  14
HETATM   14  N5  UNL     1       9.599   9.212  23.436  1.00  0.00    -0.342 N 
ATOM     15  H52 UNL     1       8.834   8.538  23.432  1.00  0.00     0.176 HD
ATOM     16  H51 UNL     1       9.631   9.946  22.728  1.00  0.00     0.176 HD
ENDBRANCH  12  14
ENDBRANCH   5  10
BRANCH   4  17
HETATM   17  O1  UNL     1      13.836   6.915  24.084  1.00  0.00    -0.266 OA
ATOM     18  H1  UNL     1      13.197   7.098  23.406  1.00  0.00     0.247 HD
ENDBRANCH   4  17
BRANCH   1  19
HETATM   19  N1  UNL     1      15.225   7.523  28.430  1.00  0.00    -0.232 N 
ATOM     20  H12 UNL     1      16.160   7.901  28.282  1.00  0.00     0.174 HD
ATOM     21  H11 UNL     1      15.022   7.046  29.308  1.00  0.00     0.174 HD
ENDBRANCH   1  19
TORSDOF 4
ENDMDL
