MODEL 1
REMARK VINA RESULT: -4.493774167      0.000      0.000
REMARK  1 active torsions:
REMARK  status: ('A' for Active; 'I' for Inactive)
REMARK    1  A    between atoms: N1_1  and  C1_4 
REMARK       I    between atoms: N4_13  and  C4_14 
REMARK       I    between atoms: C4_14  and  N5_15 
REMARK       I    between atoms: C4_14  and  N6_19 
ROOT
HETATM    1  C1  UNL     1      11.251   9.007  26.412  1.00  0.00     0.689 A 
HETATM    2  N2  UNL     1      12.301   8.286  25.990  1.00  0.00    -0.141 N 
ATOM      3  H2  UNL     1      13.092   8.164  26.623  1.00  0.00     0.189 HD
HETATM    4  C2  UNL     1      12.361   7.714  24.773  1.00  0.00     0.342 A 
HETATM    5  O1  UNL     1      13.371   7.034  24.399  1.00  0.00    -0.246 OA
HETATM    6  N3  UNL     1      11.309   7.883  23.949  1.00  0.00    -0.259 N 
ATOM      7  H3  UNL     1      11.318   7.466  23.018  1.00  0.00     0.175 HD
HETATM    8  C3  UNL     1      10.250   8.601  24.353  1.00  0.00     0.348 A 
HETATM    9  O2  UNL     1       9.275   8.736  23.539  1.00  0.00    -0.246 OA
HETATM   10  N4  UNL     1      10.212   9.162  25.570  1.00  0.00    -0.077 N 
HETATM   11  C4  UNL     1       9.029   9.927  25.936  1.00  0.00     0.505 C 
HETATM   12  N5  UNL     1       8.011   9.634  24.952  1.00  0.00    -0.032 N 
ATOM     13  H51 UNL     1       7.182  10.171  25.209  1.00  0.00     0.279 HD
ATOM     14  H52 UNL     1       7.826   8.637  24.852  1.00  0.00     0.279 HD
ATOM     15  H53 UNL     1       8.318   9.807  23.995  1.00  0.00     0.279 HD
HETATM   16  N6  UNL     1       9.332  11.347  25.932  1.00  0.00    -0.032 N 
ATOM     17  H61 UNL     1       8.503  11.884  26.189  1.00  0.00     0.279 HD
ATOM     18  H62 UNL     1       9.721  11.651  25.041  1.00  0.00     0.279 HD
ATOM     19  H63 UNL     1      10.129  11.569  26.528  1.00  0.00     0.279 HD
ENDROOT
BRANCH   1  20
HETATM   20  N1  UNL     1      11.223   9.538  27.570  1.00  0.00    -0.234 N 
ATOM     21  H12 UNL     1      10.963   8.980  28.384  1.00  0.00     0.174 HD
ATOM     22  H11 UNL     1      11.453  10.521  27.717  1.00  0.00     0.174 HD
ENDBRANCH   1  20
TORSDOF 1
ENDMDL
MODEL 2
REMARK VINA RESULT: -4.423387780      2.705      3.924
REMARK  1 active torsions:
REMARK  status: ('A' for Active; 'I' for Inactive)
REMARK    1  A    between atoms: N1_1  and  C1_4 
REMARK       I    between atoms: N4_13  and  C4_14 
REMARK       I    between atoms: C4_14  and  N5_15 
REMARK       I    between atoms: C4_14  and  N6_19 
ROOT
HETATM    1  C1  UNL     1      14.607   7.089  26.621  1.00  0.00     0.689 A 
HETATM    2  N2  UNL     1      15.854   6.958  26.143  1.00  0.00    -0.141 N 
ATOM      3  H2  UNL     1      16.617   6.829  26.807  1.00  0.00     0.189 HD
HETATM    4  C2  UNL     1      16.146   6.988  24.829  1.00  0.00     0.342 A 
HETATM    5  O1  UNL     1      17.340   6.860  24.404  1.00  0.00    -0.246 OA
HETATM    6  N3  UNL     1      15.128   7.159  23.964  1.00  0.00    -0.259 N 
ATOM      7  H3  UNL     1      15.311   7.188  22.961  1.00  0.00     0.175 HD
HETATM    8  C3  UNL     1      13.874   7.292  24.423  1.00  0.00     0.348 A 
HETATM    9  O2  UNL     1      12.939   7.452  23.568  1.00  0.00    -0.246 OA
HETATM   10  N4  UNL     1      13.606   7.259  25.737  1.00  0.00    -0.077 N 
HETATM   11  C4  UNL     1      12.221   7.411  26.158  1.00  0.00     0.505 C 
HETATM   12  N5  UNL     1      11.398   7.261  24.978  1.00  0.00    -0.032 N 
ATOM     13  H51 UNL     1      10.427   7.368  25.274  1.00  0.00     0.279 HD
ATOM     14  H52 UNL     1      11.570   6.389  24.478  1.00  0.00     0.279 HD
ATOM     15  H53 UNL     1      11.659   7.898  24.225  1.00  0.00     0.279 HD
HETATM   16  N6  UNL     1      12.018   8.724  26.743  1.00  0.00    -0.032 N 
ATOM     17  H61 UNL     1      11.047   8.831  27.039  1.00  0.00     0.279 HD
ATOM     18  H62 UNL     1      12.309   9.471  26.113  1.00  0.00     0.279 HD
ATOM     19  H63 UNL     1      12.671   8.908  27.505  1.00  0.00     0.279 HD
ENDROOT
BRANCH   1  20
HETATM   20  N1  UNL     1      14.360   7.058  27.871  1.00  0.00    -0.234 N 
ATOM     21  H12 UNL     1      13.763   6.327  28.258  1.00  0.00     0.174 HD
ATOM     22  H11 UNL     1      14.743   7.753  28.513  1.00  0.00     0.174 HD
ENDBRANCH   1  20
TORSDOF 1
ENDMDL
MODEL 3
REMARK VINA RESULT: -4.387414477      1.574      2.546
REMARK  1 active torsions:
REMARK  status: ('A' for Active; 'I' for Inactive)
REMARK    1  A    between atoms: N1_1  and  C1_4 
REMARK       I    between atoms: N4_13  and  C4_14 
REMARK       I    between atoms: C4_14  and  N5_15 
REMARK       I    between atoms: C4_14  and  N6_19 
ROOT
HETATM    1  C1  UNL     1      10.407   8.955  24.275  1.00  0.00     0.689 A 
HETATM    2  N2  UNL     1      11.400   8.109  23.963  1.00  0.00    -0.141 N 
ATOM      3  H2  UNL     1      11.431   7.722  23.020  1.00  0.00     0.189 HD
HETATM    4  C2  UNL     1      12.360   7.747  24.835  1.00  0.00     0.342 A 
HETATM    5  O1  UNL     1      13.292   6.941  24.511  1.00  0.00    -0.246 OA
HETATM    6  N3  UNL     1      12.307   8.265  26.077  1.00  0.00    -0.259 N 
ATOM      7  H3  UNL     1      13.016   8.013  26.765  1.00  0.00     0.175 HD
HETATM    8  C3  UNL     1      11.321   9.113  26.407  1.00  0.00     0.348 A 
HETATM    9  O2  UNL     1      11.308   9.581  27.596  1.00  0.00    -0.246 OA
HETATM   10  N4  UNL     1      10.375   9.460  25.522  1.00  0.00    -0.077 N 
HETATM   11  C4  UNL     1       9.336  10.384  25.955  1.00  0.00     0.505 C 
HETATM   12  N5  UNL     1       9.770  10.955  27.212  1.00  0.00    -0.032 N 
ATOM     13  H51 UNL     1       9.042  11.602  27.515  1.00  0.00     0.279 HD
ATOM     14  H52 UNL     1      10.692  11.387  27.157  1.00  0.00     0.279 HD
ATOM     15  H53 UNL     1       9.997  10.250  27.914  1.00  0.00     0.279 HD
HETATM   16  N6  UNL     1       8.082   9.676  26.137  1.00  0.00    -0.032 N 
ATOM     17  H61 UNL     1       7.353  10.323  26.440  1.00  0.00     0.279 HD
ATOM     18  H62 UNL     1       8.179   8.886  26.774  1.00  0.00     0.279 HD
ATOM     19  H63 UNL     1       7.810   9.161  25.300  1.00  0.00     0.279 HD
ENDROOT
BRANCH   1  20
HETATM   20  N1  UNL     1       9.510   9.279  23.429  1.00  0.00    -0.234 N 
ATOM     21  H12 UNL     1       9.560  10.177  22.948  1.00  0.00     0.174 HD
ATOM     22  H11 UNL     1       8.727   8.662  23.211  1.00  0.00     0.174 HD
ENDBRANCH   1  20
TORSDOF 1
ENDMDL
MODEL 4
REMARK VINA RESULT: -4.375754151      1.318      3.879
REMARK  1 active torsions:
REMARK  status: ('A' for Active; 'I' for Inactive)
REMARK    1  A    between atoms: N1_1  and  C1_4 
REMARK       I    between atoms: N4_13  and  C4_14 
REMARK       I    between atoms: C4_14  and  N5_15 
REMARK       I    between atoms: C4_14  and  N6_19 
ROOT
HETATM    1  C1  UNL     1      11.464   8.841  26.495  1.00  0.00     0.689 A 
HETATM    2  N2  UNL     1      10.535   9.231  25.610  1.00  0.00    -0.141 N 
ATOM      3  H2  UNL     1       9.774   9.828  25.935  1.00  0.00     0.189 HD
HETATM    4  C2  UNL     1      10.558   8.872  24.312  1.00  0.00     0.342 A 
HETATM    5  O1  UNL     1       9.661   9.257  23.493  1.00  0.00    -0.246 OA
HETATM    6  N3  UNL     1      11.568   8.084  23.897  1.00  0.00    -0.259 N 
ATOM      7  H3  UNL     1      11.618   7.791  22.922  1.00  0.00     0.175 HD
HETATM    8  C3  UNL     1      12.507   7.685  24.768  1.00  0.00     0.348 A 
HETATM    9  O2  UNL     1      13.447   6.938  24.332  1.00  0.00    -0.246 OA
HETATM   10  N4  UNL     1      12.464   8.054  26.057  1.00  0.00    -0.077 N 
HETATM   11  C4  UNL     1      13.518   7.580  26.942  1.00  0.00     0.505 C 
HETATM   12  N5  UNL     1      14.566   7.037  26.104  1.00  0.00    -0.032 N 
ATOM     13  H51 UNL     1      15.304   6.704  26.725  1.00  0.00     0.279 HD
ATOM     14  H52 UNL     1      14.900   7.697  25.403  1.00  0.00     0.279 HD
ATOM     15  H53 UNL     1      14.231   6.320  25.460  1.00  0.00     0.279 HD
HETATM   16  N6  UNL     1      13.003   6.549  27.825  1.00  0.00    -0.032 N 
ATOM     17  H61 UNL     1      13.742   6.216  28.446  1.00  0.00     0.279 HD
ATOM     18  H62 UNL     1      12.568   5.786  27.307  1.00  0.00     0.279 HD
ATOM     19  H63 UNL     1      12.184   6.865  28.343  1.00  0.00     0.279 HD
ENDROOT
BRANCH   1  20
HETATM   20  N1  UNL     1      11.416   9.195  27.719  1.00  0.00    -0.234 N 
ATOM     21  H12 UNL     1      10.659   8.866  28.319  1.00  0.00     0.174 HD
ATOM     22  H11 UNL     1      12.120   9.809  28.130  1.00  0.00     0.174 HD
ENDBRANCH   1  20
TORSDOF 1
ENDMDL
MODEL 5
REMARK VINA RESULT: -4.069841081      7.449      8.931
REMARK  1 active torsions:
REMARK  status: ('A' for Active; 'I' for Inactive)
REMARK    1  A    between atoms: N1_1  and  C1_4 
REMARK       I    between atoms: N4_13  and  C4_14 
REMARK       I    between atoms: C4_14  and  N5_15 
REMARK       I    between atoms: C4_14  and  N6_19 
ROOT
HETATM    1  C1  UNL     1      18.581   3.628  26.139  1.00  0.00     0.689 A 
HETATM    2  N2  UNL     1      19.003   4.780  25.595  1.00  0.00    -0.141 N 
ATOM      3  H2  UNL     1      19.949   4.820  25.215  1.00  0.00     0.189 HD
HETATM    4  C2  UNL     1      18.239   5.886  25.528  1.00  0.00     0.342 A 
HETATM    5  O1  UNL     1      18.666   6.966  25.005  1.00  0.00    -0.246 OA
HETATM    6  N3  UNL     1      16.992   5.819  26.033  1.00  0.00    -0.259 N 
ATOM      7  H3  UNL     1      16.384   6.637  26.001  1.00  0.00     0.175 HD
HETATM    8  C3  UNL     1      16.553   4.676  26.581  1.00  0.00     0.348 A 
HETATM    9  O2  UNL     1      15.364   4.656  27.049  1.00  0.00    -0.246 OA
HETATM   10  N4  UNL     1      17.332   3.586  26.638  1.00  0.00    -0.077 N 
HETATM   11  C4  UNL     1      16.785   2.383  27.248  1.00  0.00     0.505 C 
HETATM   12  N5  UNL     1      15.359   2.586  27.387  1.00  0.00    -0.032 N 
ATOM     13  H51 UNL     1      14.976   1.742  27.815  1.00  0.00     0.279 HD
ATOM     14  H52 UNL     1      14.903   2.832  26.509  1.00  0.00     0.279 HD
ATOM     15  H53 UNL     1      15.124   3.436  27.900  1.00  0.00     0.279 HD
HETATM   16  N6  UNL     1      17.386   2.165  28.552  1.00  0.00    -0.032 N 
ATOM     17  H61 UNL     1      17.003   1.322  28.980  1.00  0.00     0.279 HD
ATOM     18  H62 UNL     1      17.286   2.979  29.158  1.00  0.00     0.279 HD
ATOM     19  H63 UNL     1      18.404   2.139  28.503  1.00  0.00     0.279 HD
ENDROOT
BRANCH   1  20
HETATM   20  N1  UNL     1      19.328   2.597  26.191  1.00  0.00    -0.234 N 
ATOM     21  H12 UNL     1      20.343   2.699  26.218  1.00  0.00     0.174 HD
ATOM     22  H11 UNL     1      18.942   1.653  26.206  1.00  0.00     0.174 HD
ENDBRANCH   1  20
TORSDOF 1
ENDMDL
