MODEL 1
REMARK VINA RESULT: -3.785912267      0.000      0.000
REMARK  2 active torsions:
REMARK  status: ('A' for Active; 'I' for Inactive)
REMARK    1  A    between atoms: N1_2  and  C2_4 
REMARK       I    between atoms: N4_11  and  C4_12 
REMARK       I    between atoms: C4_12  and  N6_16 
REMARK    2  A    between atoms: N6_16  and  N7_18 
ROOT
HETATM    1  C2  UNL     1      15.323   7.028  25.614  1.00  0.00     0.718 A 
HETATM    2  N2  UNL     1      15.687   7.006  24.319  1.00  0.00    -0.127 N 
ATOM      3  H2  UNL     1      16.642   6.891  23.979  1.00  0.00     0.205 HD
HETATM    4  N3  UNL     1      14.605   7.160  23.540  1.00  0.00    -0.236 N 
ATOM      5  H3  UNL     1      14.598   7.181  22.521  1.00  0.00     0.192 HD
HETATM    6  C3  UNL     1      13.529   7.282  24.341  1.00  0.00     0.377 A 
HETATM    7  O1  UNL     1      12.329   7.442  23.991  1.00  0.00    -0.243 OA
HETATM    8  N4  UNL     1      13.976   7.201  25.607  1.00  0.00     0.080 N 
HETATM    9  C4  UNL     1      13.199   7.278  26.774  1.00  0.00     0.715 C 
HETATM   10  N5  UNL     1      12.725   8.404  27.171  1.00  0.00    -0.232 N 
ATOM     11  H51 UNL     1      12.161   8.460  28.019  1.00  0.00     0.174 HD
ATOM     12  H52 UNL     1      12.940   9.223  26.603  1.00  0.00     0.174 HD
HETATM   13  N6  UNL     1      12.900   6.137  27.566  1.00  0.00    -0.138 N 
ATOM     14  H6  UNL     1      12.173   5.498  27.245  1.00  0.00     0.205 HD
ENDROOT
BRANCH   1  15
HETATM   15  N1  UNL     1      16.068   6.912  26.664  1.00  0.00    -0.228 N 
HETATM   16  C1  UNL     1      16.724   5.652  26.916  1.00  0.00     0.165 C 
ATOM     17  H1  UNL     1      16.189   7.698  27.303  1.00  0.00     0.177 HD
ENDBRANCH   1  15
BRANCH  13  18
HETATM   18  N7  UNL     1      13.555   5.853  28.761  1.00  0.00    -0.331 N 
ATOM     19  H72 UNL     1      14.332   6.458  29.028  1.00  0.00     0.177 HD
ATOM     20  H71 UNL     1      13.290   5.076  29.367  1.00  0.00     0.177 HD
ENDBRANCH  13  18
TORSDOF 2
ENDMDL
MODEL 2
REMARK VINA RESULT: -3.697952025      3.212      4.864
REMARK  2 active torsions:
REMARK  status: ('A' for Active; 'I' for Inactive)
REMARK    1  A    between atoms: N1_2  and  C2_4 
REMARK       I    between atoms: N4_11  and  C4_12 
REMARK       I    between atoms: C4_12  and  N6_16 
REMARK    2  A    between atoms: N6_16  and  N7_18 
ROOT
HETATM    1  C2  UNL     1      10.543   9.531  26.142  1.00  0.00     0.718 A 
HETATM    2  N2  UNL     1       9.667  10.467  25.732  1.00  0.00    -0.127 N 
ATOM      3  H2  UNL     1       9.423  11.309  26.252  1.00  0.00     0.205 HD
HETATM    4  N3  UNL     1       9.163  10.125  24.537  1.00  0.00    -0.236 N 
ATOM      5  H3  UNL     1       8.479  10.658  24.000  1.00  0.00     0.192 HD
HETATM    6  C3  UNL     1       9.720   8.955  24.169  1.00  0.00     0.377 A 
HETATM    7  O1  UNL     1       9.505   8.305  23.110  1.00  0.00    -0.243 OA
HETATM    8  N4  UNL     1      10.561   8.598  25.155  1.00  0.00     0.080 N 
HETATM    9  C4  UNL     1      11.358   7.442  25.196  1.00  0.00     0.715 C 
HETATM   10  N5  UNL     1      10.833   6.294  25.431  1.00  0.00    -0.232 N 
ATOM     11  H51 UNL     1      11.412   5.454  25.462  1.00  0.00     0.174 HD
ATOM     12  H52 UNL     1       9.824   6.268  25.583  1.00  0.00     0.174 HD
HETATM   13  N6  UNL     1      12.762   7.478  24.986  1.00  0.00    -0.138 N 
ATOM     14  H6  UNL     1      13.110   7.562  24.031  1.00  0.00     0.205 HD
ENDROOT
BRANCH   1  15
HETATM   15  N1  UNL     1      11.235   9.495  27.233  1.00  0.00    -0.228 N 
HETATM   16  C1  UNL     1      10.849  10.349  28.330  1.00  0.00     0.165 C 
ATOM     17  H1  UNL     1      12.040   8.874  27.317  1.00  0.00     0.177 HD
ENDBRANCH   1  15
BRANCH  13  18
HETATM   18  N7  UNL     1      13.685   7.404  26.026  1.00  0.00    -0.331 N 
ATOM     19  H72 UNL     1      13.429   7.832  26.915  1.00  0.00     0.177 HD
ATOM     20  H71 UNL     1      14.591   6.945  25.930  1.00  0.00     0.177 HD
ENDBRANCH  13  18
TORSDOF 2
ENDMDL
MODEL 3
REMARK VINA RESULT: -3.695454524      2.410      3.184
REMARK  2 active torsions:
REMARK  status: ('A' for Active; 'I' for Inactive)
REMARK    1  A    between atoms: N1_2  and  C2_4 
REMARK       I    between atoms: N4_11  and  C4_12 
REMARK       I    between atoms: C4_12  and  N6_16 
REMARK    2  A    between atoms: N6_16  and  N7_18 
ROOT
HETATM    1  C2  UNL     1      17.861   6.147  25.337  1.00  0.00     0.718 A 
HETATM    2  N2  UNL     1      17.789   6.878  24.209  1.00  0.00    -0.127 N 
ATOM      3  H2  UNL     1      18.585   7.136  23.626  1.00  0.00     0.205 HD
HETATM    4  N3  UNL     1      16.513   7.215  23.967  1.00  0.00    -0.236 N 
ATOM      5  H3  UNL     1      16.179   7.767  23.178  1.00  0.00     0.192 HD
HETATM    6  C3  UNL     1      15.752   6.697  24.950  1.00  0.00     0.377 A 
HETATM    7  O1  UNL     1      14.501   6.793  25.080  1.00  0.00    -0.243 OA
HETATM    8  N4  UNL     1      16.583   6.046  25.783  1.00  0.00     0.080 N 
HETATM    9  C4  UNL     1      16.222   5.352  26.950  1.00  0.00     0.715 C 
HETATM   10  N5  UNL     1      15.894   5.991  28.015  1.00  0.00    -0.232 N 
ATOM     11  H51 UNL     1      15.633   5.488  28.863  1.00  0.00     0.174 HD
ATOM     12  H52 UNL     1      15.910   7.010  27.967  1.00  0.00     0.174 HD
HETATM   13  N6  UNL     1      16.201   3.934  27.017  1.00  0.00    -0.138 N 
ATOM     14  H6  UNL     1      15.414   3.438  26.599  1.00  0.00     0.205 HD
ENDROOT
BRANCH   1  15
HETATM   15  N1  UNL     1      18.905   5.636  25.903  1.00  0.00    -0.228 N 
HETATM   16  C1  UNL     1      19.542   6.363  26.974  1.00  0.00     0.165 C 
ATOM     17  H1  UNL     1      19.273   4.735  25.597  1.00  0.00     0.177 HD
ENDBRANCH   1  15
BRANCH  13  18
HETATM   18  N7  UNL     1      17.208   3.190  27.627  1.00  0.00    -0.331 N 
ATOM     19  H72 UNL     1      17.644   3.583  28.461  1.00  0.00     0.177 HD
ATOM     20  H71 UNL     1      17.519   2.285  27.274  1.00  0.00     0.177 HD
ENDBRANCH  13  18
TORSDOF 2
ENDMDL
MODEL 4
REMARK VINA RESULT: -3.685084304      4.024      5.262
REMARK  2 active torsions:
REMARK  status: ('A' for Active; 'I' for Inactive)
REMARK    1  A    between atoms: N1_2  and  C2_4 
REMARK       I    between atoms: N4_11  and  C4_12 
REMARK       I    between atoms: C4_12  and  N6_16 
REMARK    2  A    between atoms: N6_16  and  N7_18 
ROOT
HETATM    1  C2  UNL     1      10.890   9.207  26.107  1.00  0.00     0.718 A 
HETATM    2  N2  UNL     1      11.884   8.513  25.522  1.00  0.00    -0.127 N 
ATOM      3  H2  UNL     1      12.798   8.332  25.938  1.00  0.00     0.205 HD
HETATM    4  N3  UNL     1      11.493   8.096  24.308  1.00  0.00    -0.236 N 
ATOM      5  H3  UNL     1      12.053   7.550  23.654  1.00  0.00     0.192 HD
HETATM    6  C3  UNL     1      10.233   8.524  24.106  1.00  0.00     0.377 A 
HETATM    7  O1  UNL     1       9.515   8.336  23.086  1.00  0.00    -0.243 OA
HETATM    8  N4  UNL     1       9.872   9.203  25.209  1.00  0.00     0.080 N 
HETATM    9  C4  UNL     1       8.635   9.828  25.439  1.00  0.00     0.715 C 
HETATM   10  N5  UNL     1       8.338  10.928  24.846  1.00  0.00    -0.232 N 
ATOM     11  H51 UNL     1       7.440  11.382  25.013  1.00  0.00     0.174 HD
ATOM     12  H52 UNL     1       9.037  11.315  24.211  1.00  0.00     0.174 HD
HETATM   13  N6  UNL     1       7.662   9.289  26.323  1.00  0.00    -0.138 N 
ATOM     14  H6  UNL     1       7.093   8.505  26.002  1.00  0.00     0.205 HD
ENDROOT
BRANCH   1  15
HETATM   15  N1  UNL     1      10.875   9.770  27.270  1.00  0.00    -0.228 N 
HETATM   16  C1  UNL     1      10.929   8.936  28.447  1.00  0.00     0.165 C 
ATOM     17  H1  UNL     1      10.824  10.785  27.355  1.00  0.00     0.177 HD
ENDBRANCH   1  15
BRANCH  13  18
HETATM   18  N7  UNL     1       7.451   9.783  27.607  1.00  0.00    -0.331 N 
ATOM     19  H72 UNL     1       7.594  10.782  27.757  1.00  0.00     0.177 HD
ATOM     20  H71 UNL     1       7.164   9.192  28.388  1.00  0.00     0.177 HD
ENDBRANCH  13  18
TORSDOF 2
ENDMDL
MODEL 5
REMARK VINA RESULT: -3.648522198      2.578      3.681
REMARK  2 active torsions:
REMARK  status: ('A' for Active; 'I' for Inactive)
REMARK    1  A    between atoms: N1_2  and  C2_4 
REMARK       I    between atoms: N4_11  and  C4_12 
REMARK       I    between atoms: C4_12  and  N6_16 
REMARK    2  A    between atoms: N6_16  and  N7_18 
ROOT
HETATM    1  C2  UNL     1      17.573   6.517  24.793  1.00  0.00     0.718 A 
HETATM    2  N2  UNL     1      16.873   7.173  23.849  1.00  0.00    -0.127 N 
ATOM      3  H2  UNL     1      17.262   7.546  22.983  1.00  0.00     0.205 HD
HETATM    4  N3  UNL     1      15.586   7.261  24.218  1.00  0.00    -0.236 N 
ATOM      5  H3  UNL     1      14.840   7.708  23.686  1.00  0.00     0.192 HD
HETATM    6  C3  UNL     1      15.452   6.656  25.413  1.00  0.00     0.377 A 
HETATM    7  O1  UNL     1      14.397   6.528  26.092  1.00  0.00    -0.243 OA
HETATM    8  N4  UNL     1      16.671   6.204  25.758  1.00  0.00     0.080 N 
HETATM    9  C4  UNL     1      17.003   5.508  26.932  1.00  0.00     0.715 C 
HETATM   10  N5  UNL     1      17.074   6.122  28.058  1.00  0.00    -0.232 N 
ATOM     11  H51 UNL     1      17.316   5.616  28.911  1.00  0.00     0.174 HD
ATOM     12  H52 UNL     1      16.881   7.123  28.053  1.00  0.00     0.174 HD
HETATM   13  N6  UNL     1      17.273   4.113  26.939  1.00  0.00    -0.138 N 
ATOM     14  H6  UNL     1      16.487   3.465  26.896  1.00  0.00     0.205 HD
ENDROOT
BRANCH   1  15
HETATM   15  N1  UNL     1      18.833   6.230  24.810  1.00  0.00    -0.228 N 
HETATM   16  C1  UNL     1      19.543   6.140  23.557  1.00  0.00     0.165 C 
ATOM     17  H1  UNL     1      19.317   6.070  25.694  1.00  0.00     0.177 HD
ENDBRANCH   1  15
BRANCH  13  18
HETATM   18  N7  UNL     1      18.563   3.593  27.002  1.00  0.00    -0.331 N 
ATOM     19  H72 UNL     1      19.318   4.157  26.612  1.00  0.00     0.177 HD
ATOM     20  H71 UNL     1      18.774   2.685  27.417  1.00  0.00     0.177 HD
ENDBRANCH  13  18
TORSDOF 2
ENDMDL
