MODEL 1
REMARK VINA RESULT: -4.785091257      0.000      0.000
REMARK  3 active torsions:
REMARK  status: ('A' for Active; 'I' for Inactive)
REMARK    1  A    between atoms: N1_1  and  C1_4 
REMARK    2  A    between atoms: N3_8  and  N4_9 
REMARK       I    between atoms: N4_9  and  C3_11 
REMARK    3  A    between atoms: N6_13  and  N7_15 
ROOT
HETATM    1  C1  UNL     1      15.962   7.035  24.567  1.00  0.00     0.680 A 
HETATM    2  N2  UNL     1      15.851   6.922  25.916  1.00  0.00    -0.186 N 
ATOM      3  H2  UNL     1      16.669   6.762  26.504  1.00  0.00     0.185 HD
HETATM    4  C2  UNL     1      14.618   7.030  26.447  1.00  0.00     0.229 A 
HETATM    5  N3  UNL     1      13.514   7.241  25.717  1.00  0.00    -0.198 N 
HETATM    6  C4  UNL     1      13.640   7.353  24.390  1.00  0.00     0.360 A 
HETATM    7  O1  UNL     1      12.633   7.553  23.639  1.00  0.00    -0.244 OA
HETATM    8  N8  UNL     1      14.856   7.248  23.837  1.00  0.00    -0.140 N 
ATOM      9  H8  UNL     1      14.944   7.332  22.824  1.00  0.00     0.189 HD
ENDROOT
BRANCH   5  10
HETATM   10  N4  UNL     1      12.256   7.346  26.324  1.00  0.00    -0.261 N 
HETATM   11  C3  UNL     1      11.486   6.236  26.707  1.00  0.00     0.222 C 
HETATM   12  N5  UNL     1      10.646   5.629  25.707  1.00  0.00    -0.061 NA
HETATM   13  N6  UNL     1      11.458   5.706  27.868  1.00  0.00    -0.279 N 
ATOM     14  H6  UNL     1      10.849   4.898  28.002  1.00  0.00     0.189 HD
ATOM     15  H4  UNL     1      11.878   8.278  26.496  1.00  0.00     0.190 HD
BRANCH  13  16
HETATM   16  N7  UNL     1      12.192   6.141  28.961  1.00  0.00    -0.343 N 
ATOM     17  H72 UNL     1      12.678   7.032  28.854  1.00  0.00     0.176 HD
ATOM     18  H71 UNL     1      12.278   5.642  29.846  1.00  0.00     0.176 HD
ENDBRANCH  13  16
ENDBRANCH   5  10
BRANCH   1  19
HETATM   19  N1  UNL     1      17.145   6.930  24.076  1.00  0.00    -0.234 N 
ATOM     20  H12 UNL     1      17.994   6.846  24.634  1.00  0.00     0.174 HD
ATOM     21  H11 UNL     1      17.219   6.930  23.058  1.00  0.00     0.174 HD
ENDBRANCH   1  19
TORSDOF 3
ENDMDL
MODEL 2
REMARK VINA RESULT: -4.758568558      1.416      2.294
REMARK  3 active torsions:
REMARK  status: ('A' for Active; 'I' for Inactive)
REMARK    1  A    between atoms: N1_1  and  C1_4 
REMARK    2  A    between atoms: N3_8  and  N4_9 
REMARK       I    between atoms: N4_9  and  C3_11 
REMARK    3  A    between atoms: N6_13  and  N7_15 
ROOT
HETATM    1  C1  UNL     1      16.112   7.003  24.547  1.00  0.00     0.680 A 
HETATM    2  N2  UNL     1      16.035   6.891  25.900  1.00  0.00    -0.186 N 
ATOM      3  H2  UNL     1      16.869   6.731  26.466  1.00  0.00     0.185 HD
HETATM    4  C2  UNL     1      14.817   6.999  26.462  1.00  0.00     0.229 A 
HETATM    5  N3  UNL     1      13.695   7.210  25.760  1.00  0.00    -0.198 N 
HETATM    6  C4  UNL     1      13.786   7.320  24.431  1.00  0.00     0.360 A 
HETATM    7  O1  UNL     1      12.760   7.521  23.706  1.00  0.00    -0.244 OA
HETATM    8  N8  UNL     1      14.987   7.215  23.846  1.00  0.00    -0.140 N 
ATOM      9  H8  UNL     1      15.049   7.299  22.832  1.00  0.00     0.189 HD
ENDROOT
BRANCH   5  10
HETATM   10  N4  UNL     1      12.452   7.316  26.399  1.00  0.00    -0.261 N 
HETATM   11  C3  UNL     1      11.897   8.537  26.816  1.00  0.00     0.222 C 
HETATM   12  N5  UNL     1      12.291   9.044  28.105  1.00  0.00    -0.061 NA
HETATM   13  N6  UNL     1      11.067   9.248  26.156  1.00  0.00    -0.279 N 
ATOM     14  H6  UNL     1      10.747  10.117  26.585  1.00  0.00     0.189 HD
ATOM     15  H4  UNL     1      11.924   6.461  26.572  1.00  0.00     0.190 HD
BRANCH  13  16
HETATM   16  N7  UNL     1      10.568   8.933  24.901  1.00  0.00    -0.343 N 
ATOM     17  H72 UNL     1      11.225   8.509  24.246  1.00  0.00     0.176 HD
ATOM     18  H71 UNL     1       9.608   9.092  24.596  1.00  0.00     0.176 HD
ENDBRANCH  13  16
ENDBRANCH   5  10
BRANCH   1  19
HETATM   19  N1  UNL     1      17.282   6.896  24.026  1.00  0.00    -0.234 N 
ATOM     20  H12 UNL     1      18.024   6.303  24.396  1.00  0.00     0.174 HD
ATOM     21  H11 UNL     1      17.460   7.448  23.187  1.00  0.00     0.174 HD
ENDBRANCH   1  19
TORSDOF 3
ENDMDL
MODEL 3
REMARK VINA RESULT: -4.666227701      3.708      5.462
REMARK  3 active torsions:
REMARK  status: ('A' for Active; 'I' for Inactive)
REMARK    1  A    between atoms: N1_1  and  C1_4 
REMARK    2  A    between atoms: N3_8  and  N4_9 
REMARK       I    between atoms: N4_9  and  C3_11 
REMARK    3  A    between atoms: N6_13  and  N7_15 
ROOT
HETATM    1  C1  UNL     1       8.753  11.060  25.341  1.00  0.00     0.680 A 
HETATM    2  N2  UNL     1       9.495  10.724  26.428  1.00  0.00    -0.186 N 
ATOM      3  H2  UNL     1       9.513  11.314  27.261  1.00  0.00     0.185 HD
HETATM    4  C2  UNL     1      10.205   9.582  26.364  1.00  0.00     0.229 A 
HETATM    5  N3  UNL     1      10.211   8.774  25.294  1.00  0.00    -0.198 N 
HETATM    6  C4  UNL     1       9.475   9.118  24.232  1.00  0.00     0.360 A 
HETATM    7  O1  UNL     1       9.437   8.397  23.185  1.00  0.00    -0.244 OA
HETATM    8  N8  UNL     1       8.760  10.251  24.270  1.00  0.00    -0.140 N 
ATOM      9  H8  UNL     1       8.201  10.507  23.456  1.00  0.00     0.189 HD
ENDROOT
BRANCH   5  10
HETATM   10  N4  UNL     1      10.970   7.596  25.283  1.00  0.00    -0.261 N 
HETATM   11  C3  UNL     1      12.363   7.573  25.110  1.00  0.00     0.222 C 
HETATM   12  N5  UNL     1      12.868   7.582  23.761  1.00  0.00    -0.061 NA
HETATM   13  N6  UNL     1      13.235   7.546  26.041  1.00  0.00    -0.279 N 
ATOM     14  H6  UNL     1      14.218   7.532  25.766  1.00  0.00     0.189 HD
ATOM     15  H4  UNL     1      10.484   6.708  25.408  1.00  0.00     0.190 HD
BRANCH  13  16
HETATM   16  N7  UNL     1      12.952   7.533  27.399  1.00  0.00    -0.343 N 
ATOM     17  H72 UNL     1      12.593   8.402  27.795  1.00  0.00     0.176 HD
ATOM     18  H71 UNL     1      13.075   6.730  28.016  1.00  0.00     0.176 HD
ENDBRANCH  13  16
ENDBRANCH   5  10
BRANCH   1  19
HETATM   19  N1  UNL     1       8.081  12.153  25.418  1.00  0.00    -0.234 N 
ATOM     20  H12 UNL     1       7.390  12.354  26.140  1.00  0.00     0.174 HD
ATOM     21  H11 UNL     1       8.267  12.855  24.701  1.00  0.00     0.174 HD
ENDBRANCH   1  19
TORSDOF 3
ENDMDL
MODEL 4
REMARK VINA RESULT: -4.483535954      1.251      1.790
REMARK  3 active torsions:
REMARK  status: ('A' for Active; 'I' for Inactive)
REMARK    1  A    between atoms: N1_1  and  C1_4 
REMARK    2  A    between atoms: N3_8  and  N4_9 
REMARK       I    between atoms: N4_9  and  C3_11 
REMARK    3  A    between atoms: N6_13  and  N7_15 
ROOT
HETATM    1  C1  UNL     1      15.978   7.038  24.596  1.00  0.00     0.680 A 
HETATM    2  N2  UNL     1      14.910   7.149  23.763  1.00  0.00    -0.186 N 
ATOM      3  H2  UNL     1      15.025   7.144  22.749  1.00  0.00     0.185 HD
HETATM    4  C2  UNL     1      13.694   7.266  24.329  1.00  0.00     0.229 A 
HETATM    5  N3  UNL     1      13.493   7.276  25.654  1.00  0.00    -0.198 N 
HETATM    6  C4  UNL     1      14.553   7.164  26.461  1.00  0.00     0.360 A 
HETATM    7  O1  UNL     1      14.433   7.167  27.727  1.00  0.00    -0.244 OA
HETATM    8  N8  UNL     1      15.775   7.048  25.922  1.00  0.00    -0.140 N 
ATOM      9  H8  UNL     1      16.580   6.963  26.543  1.00  0.00     0.189 HD
ENDROOT
BRANCH   5  10
HETATM   10  N4  UNL     1      12.203   7.400  26.188  1.00  0.00    -0.261 N 
HETATM   11  C3  UNL     1      11.425   6.304  26.595  1.00  0.00     0.222 C 
HETATM   12  N5  UNL     1      10.644   5.630  25.590  1.00  0.00    -0.061 NA
HETATM   13  N6  UNL     1      11.341   5.842  27.782  1.00  0.00    -0.279 N 
ATOM     14  H6  UNL     1      10.733   5.036  27.932  1.00  0.00     0.189 HD
ATOM     15  H4  UNL     1      11.808   8.336  26.286  1.00  0.00     0.190 HD
BRANCH  13  16
HETATM   16  N7  UNL     1      12.013   6.350  28.884  1.00  0.00    -0.343 N 
ATOM     17  H72 UNL     1      13.031   6.300  28.856  1.00  0.00     0.176 HD
ATOM     18  H71 UNL     1      11.567   6.761  29.704  1.00  0.00     0.176 HD
ENDBRANCH  13  16
ENDBRANCH   5  10
BRANCH   1  19
HETATM   19  N1  UNL     1      17.132   6.927  24.040  1.00  0.00    -0.234 N 
ATOM     20  H12 UNL     1      17.911   6.398  24.432  1.00  0.00     0.174 HD
ATOM     21  H11 UNL     1      17.257   7.406  23.148  1.00  0.00     0.174 HD
ENDBRANCH   1  19
TORSDOF 3
ENDMDL
MODEL 5
REMARK VINA RESULT: -4.335747522      3.446      5.411
REMARK  3 active torsions:
REMARK  status: ('A' for Active; 'I' for Inactive)
REMARK    1  A    between atoms: N1_1  and  C1_4 
REMARK    2  A    between atoms: N3_8  and  N4_9 
REMARK       I    between atoms: N4_9  and  C3_11 
REMARK    3  A    between atoms: N6_13  and  N7_15 
ROOT
HETATM    1  C1  UNL     1       8.707  10.141  24.817  1.00  0.00     0.680 A 
HETATM    2  N2  UNL     1       9.285   9.635  23.695  1.00  0.00    -0.186 N 
ATOM      3  H2  UNL     1       9.056  10.000  22.770  1.00  0.00     0.185 HD
HETATM    4  C2  UNL     1      10.172   8.635  23.853  1.00  0.00     0.229 A 
HETATM    5  N3  UNL     1      10.505   8.123  25.046  1.00  0.00    -0.198 N 
HETATM    6  C4  UNL     1       9.929   8.632  26.141  1.00  0.00     0.360 A 
HETATM    7  O1  UNL     1      10.201   8.192  27.303  1.00  0.00    -0.244 OA
HETATM    8  N8  UNL     1       9.042   9.628  26.011  1.00  0.00    -0.140 N 
ATOM      9  H8  UNL     1       8.606  10.010  26.850  1.00  0.00     0.189 HD
ENDROOT
BRANCH   5  10
HETATM   10  N4  UNL     1      11.436   7.081  25.150  1.00  0.00    -0.261 N 
HETATM   11  C3  UNL     1      12.826   7.277  25.108  1.00  0.00     0.222 C 
HETATM   12  N5  UNL     1      13.452   7.335  23.812  1.00  0.00    -0.061 NA
HETATM   13  N6  UNL     1      13.596   7.410  26.117  1.00  0.00    -0.279 N 
ATOM     14  H6  UNL     1      14.591   7.547  25.934  1.00  0.00     0.189 HD
ATOM     15  H4  UNL     1      11.085   6.130  25.263  1.00  0.00     0.190 HD
BRANCH  13  16
HETATM   16  N7  UNL     1      13.187   7.384  27.441  1.00  0.00    -0.343 N 
ATOM     17  H72 UNL     1      13.828   6.947  28.104  1.00  0.00     0.176 HD
ATOM     18  H71 UNL     1      12.308   7.764  27.791  1.00  0.00     0.176 HD
ENDBRANCH  13  16
ENDBRANCH   5  10
BRANCH   1  19
HETATM   19  N1  UNL     1       7.863  11.095  24.649  1.00  0.00    -0.234 N 
ATOM     20  H12 UNL     1       7.980  11.856  23.981  1.00  0.00     0.174 HD
ATOM     21  H11 UNL     1       7.025  11.071  25.230  1.00  0.00     0.174 HD
ENDBRANCH   1  19
TORSDOF 3
ENDMDL
