MODEL 1
REMARK VINA RESULT: -7.346362146      0.000      0.000
REMARK  11 active torsions:
REMARK  status: ('A' for Active; 'I' for Inactive)
REMARK    1  A    between atoms: N1_1  and  C1_5 
REMARK    2  A    between atoms: C1_5  and  C2_6 
REMARK    3  A    between atoms: C2_6  and  C3_7 
REMARK    4  A    between atoms: C3_7  and  C4_8 
REMARK    5  A    between atoms: C4_8  and  C5_9 
REMARK    6  A    between atoms: C5_9  and  C6_10 
REMARK    7  A    between atoms: C6_10  and  C7_11 
REMARK    8  A    between atoms: C7_11  and  C8_12 
REMARK    9  A    between atoms: C8_12  and  N2_13 
REMARK   10  A    between atoms: N2_13  and  C9_16 
REMARK   11  A    between atoms: C10_17  and  O1_18 
ROOT
HETATM    1  N2  UNL     1     115.620  43.067  48.690  1.00  0.00    -0.068 N 
ATOM      2  H21 UNL     1     114.914  43.621  48.206  1.00  0.00     0.277 HD
ATOM      3  H22 UNL     1     116.330  43.790  48.807  1.00  0.00     0.277 HD
ENDROOT
BRANCH   1   4
HETATM    4  C8  UNL     1     116.106  41.960  47.858  1.00  0.00     0.233 C 
BRANCH   4   5
HETATM    5  C7  UNL     1     116.936  42.604  46.781  1.00  0.00     0.027 C 
BRANCH   5   6
HETATM    6  C6  UNL     1     117.847  41.581  46.165  1.00  0.00     0.002 C 
BRANCH   6   7
HETATM    7  C5  UNL     1     117.404  41.122  44.819  1.00  0.00     0.000 C 
BRANCH   7   8
HETATM    8  C4  UNL     1     116.579  42.163  44.092  1.00  0.00     0.000 C 
BRANCH   8   9
HETATM    9  C3  UNL     1     115.455  41.548  43.308  1.00  0.00     0.002 C 
BRANCH   9  10
HETATM   10  C2  UNL     1     115.941  40.447  42.391  1.00  0.00     0.027 C 
BRANCH  10  11
HETATM   11  C1  UNL     1     115.039  40.251  41.192  1.00  0.00     0.229 C 
BRANCH  11  12
HETATM   12  N1  UNL     1     113.777  39.723  41.721  1.00  0.00    -0.079 N 
ATOM     13  H13 UNL     1     113.868  38.803  42.151  1.00  0.00     0.274 HD
ATOM     14  H12 UNL     1     113.445  40.215  42.551  1.00  0.00     0.274 HD
ATOM     15  H11 UNL     1     113.117  39.745  40.943  1.00  0.00     0.274 HD
ENDBRANCH  11  12
ENDBRANCH  10  11
ENDBRANCH   9  10
ENDBRANCH   8   9
ENDBRANCH   7   8
ENDBRANCH   6   7
ENDBRANCH   5   6
ENDBRANCH   4   5
ENDBRANCH   1   4
BRANCH   1  16
HETATM   16  C9  UNL     1     115.133  42.577  49.976  1.00  0.00     0.220 C 
HETATM   17  C10 UNL     1     113.664  42.328  49.906  1.00  0.00     0.155 C 
HETATM   18  C11 UNL     1     112.999  42.722  51.204  1.00  0.00     0.048 C 
HETATM   19  C12 UNL     1     113.900  42.176  52.318  1.00  0.00     0.016 C 
HETATM   20  C16 UNL     1     113.419  44.106  51.627  1.00  0.00     0.197 C 
HETATM   21  C13 UNL     1     114.650  43.469  52.239  1.00  0.00     0.025 C 
HETATM   22  C14 UNL     1     115.589  43.519  51.041  1.00  0.00     0.050 C 
HETATM   23  C15 UNL     1     115.312  44.945  50.587  1.00  0.00     0.239 C 
HETATM   24  N3  UNL     1     113.860  44.899  50.499  1.00  0.00    -0.070 N 
ATOM     25  H32 UNL     1     113.424  45.820  50.454  1.00  0.00     0.277 HD
ATOM     26  H31 UNL     1     113.516  44.557  49.602  1.00  0.00     0.277 HD
BRANCH  17  27
HETATM   27  O1  UNL     1     113.360  40.959  49.713  1.00  0.00    -0.393 OA
ATOM     28  H1  UNL     1     112.472  40.828  49.402  1.00  0.00     0.210 HD
ENDBRANCH  17  27
ENDBRANCH   1  16
TORSDOF 11
ENDMDL
MODEL 2
REMARK VINA RESULT: -7.113699267      1.455      1.686
REMARK  11 active torsions:
REMARK  status: ('A' for Active; 'I' for Inactive)
REMARK    1  A    between atoms: N1_1  and  C1_5 
REMARK    2  A    between atoms: C1_5  and  C2_6 
REMARK    3  A    between atoms: C2_6  and  C3_7 
REMARK    4  A    between atoms: C3_7  and  C4_8 
REMARK    5  A    between atoms: C4_8  and  C5_9 
REMARK    6  A    between atoms: C5_9  and  C6_10 
REMARK    7  A    between atoms: C6_10  and  C7_11 
REMARK    8  A    between atoms: C7_11  and  C8_12 
REMARK    9  A    between atoms: C8_12  and  N2_13 
REMARK   10  A    between atoms: N2_13  and  C9_16 
REMARK   11  A    between atoms: C10_17  and  O1_18 
ROOT
HETATM    1  N2  UNL     1     115.086  42.660  48.610  1.00  0.00    -0.068 N 
ATOM      2  H21 UNL     1     114.455  43.372  48.243  1.00  0.00     0.277 HD
ATOM      3  H22 UNL     1     115.968  43.156  48.484  1.00  0.00     0.277 HD
ENDROOT
BRANCH   1   4
HETATM    4  C8  UNL     1     115.037  41.429  47.811  1.00  0.00     0.233 C 
BRANCH   4   5
HETATM    5  C7  UNL     1     116.473  41.048  47.574  1.00  0.00     0.027 C 
BRANCH   5   6
HETATM    6  C6  UNL     1     117.262  42.268  47.193  1.00  0.00     0.002 C 
BRANCH   6   7
HETATM    7  C5  UNL     1     117.957  42.143  45.882  1.00  0.00     0.000 C 
BRANCH   7   8
HETATM    8  C4  UNL     1     117.737  40.792  45.234  1.00  0.00     0.000 C 
BRANCH   8   9
HETATM    9  C3  UNL     1     117.098  40.911  43.879  1.00  0.00     0.002 C 
BRANCH   9  10
HETATM   10  C2  UNL     1     116.249  42.157  43.761  1.00  0.00     0.027 C 
BRANCH  10  11
HETATM   11  C1  UNL     1     114.813  41.920  44.174  1.00  0.00     0.229 C 
BRANCH  11  12
HETATM   12  N1  UNL     1     114.328  43.204  44.693  1.00  0.00    -0.079 N 
ATOM     13  H13 UNL     1     113.781  43.736  44.017  1.00  0.00     0.274 HD
ATOM     14  H12 UNL     1     113.594  43.109  45.396  1.00  0.00     0.274 HD
ATOM     15  H11 UNL     1     115.154  43.699  45.030  1.00  0.00     0.274 HD
ENDBRANCH  11  12
ENDBRANCH  10  11
ENDBRANCH   9  10
ENDBRANCH   8   9
ENDBRANCH   7   8
ENDBRANCH   6   7
ENDBRANCH   5   6
ENDBRANCH   4   5
ENDBRANCH   1   4
BRANCH   1  16
HETATM   16  C9  UNL     1     114.822  42.378  50.018  1.00  0.00     0.220 C 
HETATM   17  C10 UNL     1     113.354  42.253  50.248  1.00  0.00     0.155 C 
HETATM   18  C11 UNL     1     112.973  42.863  51.577  1.00  0.00     0.048 C 
HETATM   19  C12 UNL     1     114.033  42.382  52.576  1.00  0.00     0.016 C 
HETATM   20  C16 UNL     1     113.553  44.245  51.722  1.00  0.00     0.197 C 
HETATM   21  C13 UNL     1     114.835  43.584  52.184  1.00  0.00     0.025 C 
HETATM   22  C14 UNL     1     115.531  43.402  50.842  1.00  0.00     0.050 C 
HETATM   23  C15 UNL     1     115.263  44.779  50.252  1.00  0.00     0.239 C 
HETATM   24  N3  UNL     1     113.821  44.850  50.434  1.00  0.00    -0.070 N 
ATOM     25  H32 UNL     1     113.444  45.794  50.341  1.00  0.00     0.277 HD
ATOM     26  H31 UNL     1     113.292  44.431  49.669  1.00  0.00     0.277 HD
BRANCH  17  27
HETATM   27  O1  UNL     1     112.932  40.903  50.305  1.00  0.00    -0.393 OA
ATOM     28  H1  UNL     1     113.189  40.479  51.116  1.00  0.00     0.210 HD
ENDBRANCH  17  27
ENDBRANCH   1  16
TORSDOF 11
ENDMDL
MODEL 3
REMARK VINA RESULT: -7.036914676      2.087      2.982
REMARK  11 active torsions:
REMARK  status: ('A' for Active; 'I' for Inactive)
REMARK    1  A    between atoms: N1_1  and  C1_5 
REMARK    2  A    between atoms: C1_5  and  C2_6 
REMARK    3  A    between atoms: C2_6  and  C3_7 
REMARK    4  A    between atoms: C3_7  and  C4_8 
REMARK    5  A    between atoms: C4_8  and  C5_9 
REMARK    6  A    between atoms: C5_9  and  C6_10 
REMARK    7  A    between atoms: C6_10  and  C7_11 
REMARK    8  A    between atoms: C7_11  and  C8_12 
REMARK    9  A    between atoms: C8_12  and  N2_13 
REMARK   10  A    between atoms: N2_13  and  C9_16 
REMARK   11  A    between atoms: C10_17  and  O1_18 
ROOT
HETATM    1  N2  UNL     1     114.987  41.870  50.375  1.00  0.00    -0.068 N 
ATOM      2  H21 UNL     1     115.952  42.018  50.081  1.00  0.00     0.277 HD
ATOM      3  H22 UNL     1     115.128  41.047  50.960  1.00  0.00     0.277 HD
ENDROOT
BRANCH   1   4
HETATM    4  C8  UNL     1     114.110  41.579  49.233  1.00  0.00     0.233 C 
BRANCH   4   5
HETATM    5  C7  UNL     1     114.966  40.822  48.255  1.00  0.00     0.027 C 
BRANCH   5   6
HETATM    6  C6  UNL     1     116.077  41.705  47.766  1.00  0.00     0.002 C 
BRANCH   6   7
HETATM    7  C5  UNL     1     117.137  40.973  47.019  1.00  0.00     0.000 C 
BRANCH   7   8
HETATM    8  C4  UNL     1     117.913  41.871  46.080  1.00  0.00     0.000 C 
BRANCH   8   9
HETATM    9  C3  UNL     1     117.023  42.854  45.372  1.00  0.00     0.002 C 
BRANCH   9  10
HETATM   10  C2  UNL     1     116.534  42.321  44.044  1.00  0.00     0.027 C 
BRANCH  10  11
HETATM   11  C1  UNL     1     115.074  41.923  44.083  1.00  0.00     0.229 C 
BRANCH  11  12
HETATM   12  N1  UNL     1     114.374  43.027  44.747  1.00  0.00    -0.079 N 
ATOM     13  H13 UNL     1     114.673  43.179  45.710  1.00  0.00     0.274 HD
ATOM     14  H12 UNL     1     114.634  43.948  44.391  1.00  0.00     0.274 HD
ATOM     15  H11 UNL     1     113.379  42.821  44.657  1.00  0.00     0.274 HD
ENDBRANCH  11  12
ENDBRANCH  10  11
ENDBRANCH   9  10
ENDBRANCH   8   9
ENDBRANCH   7   8
ENDBRANCH   6   7
ENDBRANCH   5   6
ENDBRANCH   4   5
ENDBRANCH   1   4
BRANCH   1  16
HETATM   16  C9  UNL     1     114.479  43.000  51.147  1.00  0.00     0.220 C 
HETATM   17  C10 UNL     1     115.260  44.230  50.828  1.00  0.00     0.155 C 
HETATM   18  C11 UNL     1     115.463  45.064  52.072  1.00  0.00     0.048 C 
HETATM   19  C12 UNL     1     114.107  45.081  52.788  1.00  0.00     0.016 C 
HETATM   20  C16 UNL     1     115.983  44.222  53.207  1.00  0.00     0.197 C 
HETATM   21  C13 UNL     1     114.545  43.829  53.483  1.00  0.00     0.025 C 
HETATM   22  C14 UNL     1     114.436  42.604  52.586  1.00  0.00     0.050 C 
HETATM   23  C15 UNL     1     115.752  41.931  52.950  1.00  0.00     0.239 C 
HETATM   24  N3  UNL     1     116.667  43.040  52.727  1.00  0.00    -0.070 N 
ATOM     25  H32 UNL     1     117.586  42.902  53.148  1.00  0.00     0.277 HD
ATOM     26  H31 UNL     1     116.986  43.118  51.761  1.00  0.00     0.277 HD
BRANCH  17  27
HETATM   27  O1  UNL     1     114.591  45.066  49.904  1.00  0.00    -0.393 OA
ATOM     28  H1  UNL     1     115.113  45.238  49.129  1.00  0.00     0.210 HD
ENDBRANCH  17  27
ENDBRANCH   1  16
TORSDOF 11
ENDMDL
MODEL 4
REMARK VINA RESULT: -6.864962089      1.896      2.460
REMARK  11 active torsions:
REMARK  status: ('A' for Active; 'I' for Inactive)
REMARK    1  A    between atoms: N1_1  and  C1_5 
REMARK    2  A    between atoms: C1_5  and  C2_6 
REMARK    3  A    between atoms: C2_6  and  C3_7 
REMARK    4  A    between atoms: C3_7  and  C4_8 
REMARK    5  A    between atoms: C4_8  and  C5_9 
REMARK    6  A    between atoms: C5_9  and  C6_10 
REMARK    7  A    between atoms: C6_10  and  C7_11 
REMARK    8  A    between atoms: C7_11  and  C8_12 
REMARK    9  A    between atoms: C8_12  and  N2_13 
REMARK   10  A    between atoms: N2_13  and  C9_16 
REMARK   11  A    between atoms: C10_17  and  O1_18 
ROOT
HETATM    1  N2  UNL     1     114.012  42.240  49.958  1.00  0.00    -0.068 N 
ATOM      2  H21 UNL     1     113.023  42.212  50.208  1.00  0.00     0.277 HD
ATOM      3  H22 UNL     1     113.994  43.057  49.347  1.00  0.00     0.277 HD
ENDROOT
BRANCH   1   4
HETATM    4  C8  UNL     1     114.423  41.031  49.234  1.00  0.00     0.233 C 
BRANCH   4   5
HETATM    5  C7  UNL     1     114.731  41.488  47.834  1.00  0.00     0.027 C 
BRANCH   5   6
HETATM    6  C6  UNL     1     116.179  41.875  47.736  1.00  0.00     0.002 C 
BRANCH   6   7
HETATM    7  C5  UNL     1     117.012  40.885  46.999  1.00  0.00     0.000 C 
BRANCH   7   8
HETATM    8  C4  UNL     1     117.848  41.524  45.911  1.00  0.00     0.000 C 
BRANCH   8   9
HETATM    9  C3  UNL     1     117.164  42.711  45.295  1.00  0.00     0.002 C 
BRANCH   9  10
HETATM   10  C2  UNL     1     116.536  42.373  43.961  1.00  0.00     0.027 C 
BRANCH  10  11
HETATM   11  C1  UNL     1     115.085  41.963  44.091  1.00  0.00     0.229 C 
BRANCH  11  12
HETATM   12  N1  UNL     1     114.389  43.123  44.656  1.00  0.00    -0.079 N 
ATOM     13  H13 UNL     1     114.715  44.015  44.285  1.00  0.00     0.274 HD
ATOM     14  H12 UNL     1     113.420  43.208  44.346  1.00  0.00     0.274 HD
ATOM     15  H11 UNL     1     114.487  43.042  45.669  1.00  0.00     0.274 HD
ENDBRANCH  11  12
ENDBRANCH  10  11
ENDBRANCH   9  10
ENDBRANCH   8   9
ENDBRANCH   7   8
ENDBRANCH   6   7
ENDBRANCH   5   6
ENDBRANCH   4   5
ENDBRANCH   1   4
BRANCH   1  16
HETATM   16  C9  UNL     1     114.857  42.460  51.128  1.00  0.00     0.220 C 
HETATM   17  C10 UNL     1     114.043  42.363  52.373  1.00  0.00     0.155 C 
HETATM   18  C11 UNL     1     114.504  43.384  53.387  1.00  0.00     0.048 C 
HETATM   19  C12 UNL     1     116.036  43.328  53.368  1.00  0.00     0.016 C 
HETATM   20  C16 UNL     1     114.608  44.752  52.765  1.00  0.00     0.197 C 
HETATM   21  C13 UNL     1     115.983  44.348  52.274  1.00  0.00     0.025 C 
HETATM   22  C14 UNL     1     115.608  43.736  50.932  1.00  0.00     0.050 C 
HETATM   23  C15 UNL     1     114.640  44.806  50.449  1.00  0.00     0.239 C 
HETATM   24  N3  UNL     1     113.755  44.878  51.603  1.00  0.00    -0.070 N 
ATOM     25  H32 UNL     1     113.168  45.712  51.616  1.00  0.00     0.277 HD
ATOM     26  H31 UNL     1     112.997  44.196  51.578  1.00  0.00     0.277 HD
BRANCH  17  27
HETATM   27  O1  UNL     1     114.174  41.103  53.004  1.00  0.00    -0.393 OA
ATOM     28  H1  UNL     1     115.070  40.788  52.999  1.00  0.00     0.210 HD
ENDBRANCH  17  27
ENDBRANCH   1  16
TORSDOF 11
ENDMDL
MODEL 5
REMARK VINA RESULT: -6.520284342      1.769      2.557
REMARK  11 active torsions:
REMARK  status: ('A' for Active; 'I' for Inactive)
REMARK    1  A    between atoms: N1_1  and  C1_5 
REMARK    2  A    between atoms: C1_5  and  C2_6 
REMARK    3  A    between atoms: C2_6  and  C3_7 
REMARK    4  A    between atoms: C3_7  and  C4_8 
REMARK    5  A    between atoms: C4_8  and  C5_9 
REMARK    6  A    between atoms: C5_9  and  C6_10 
REMARK    7  A    between atoms: C6_10  and  C7_11 
REMARK    8  A    between atoms: C7_11  and  C8_12 
REMARK    9  A    between atoms: C8_12  and  N2_13 
REMARK   10  A    between atoms: N2_13  and  C9_16 
REMARK   11  A    between atoms: C10_17  and  O1_18 
ROOT
HETATM    1  N2  UNL     1     115.082  41.809  50.443  1.00  0.00    -0.068 N 
ATOM      2  H21 UNL     1     116.068  41.960  50.227  1.00  0.00     0.277 HD
ATOM      3  H22 UNL     1     115.181  40.993  51.047  1.00  0.00     0.277 HD
ENDROOT
BRANCH   1   4
HETATM    4  C8  UNL     1     114.303  41.500  49.238  1.00  0.00     0.233 C 
BRANCH   4   5
HETATM    5  C7  UNL     1     115.283  40.885  48.276  1.00  0.00     0.027 C 
BRANCH   5   6
HETATM    6  C6  UNL     1     116.113  41.964  47.642  1.00  0.00     0.002 C 
BRANCH   6   7
HETATM    7  C5  UNL     1     117.129  41.448  46.683  1.00  0.00     0.000 C 
BRANCH   7   8
HETATM    8  C4  UNL     1     117.162  42.237  45.391  1.00  0.00     0.000 C 
BRANCH   8   9
HETATM    9  C3  UNL     1     117.036  41.352  44.183  1.00  0.00     0.002 C 
BRANCH   9  10
HETATM   10  C2  UNL     1     115.765  41.625  43.412  1.00  0.00     0.027 C 
BRANCH  10  11
HETATM   11  C1  UNL     1     115.566  40.662  42.262  1.00  0.00     0.229 C 
BRANCH  11  12
HETATM   12  N1  UNL     1     114.116  40.483  42.134  1.00  0.00    -0.079 N 
ATOM     13  H13 UNL     1     113.609  40.625  43.007  1.00  0.00     0.274 HD
ATOM     14  H12 UNL     1     113.659  41.225  41.603  1.00  0.00     0.274 HD
ATOM     15  H11 UNL     1     113.984  39.554  41.732  1.00  0.00     0.274 HD
ENDBRANCH  11  12
ENDBRANCH  10  11
ENDBRANCH   9  10
ENDBRANCH   8   9
ENDBRANCH   7   8
ENDBRANCH   6   7
ENDBRANCH   5   6
ENDBRANCH   4   5
ENDBRANCH   1   4
BRANCH   1  16
HETATM   16  C9  UNL     1     114.507  42.944  51.159  1.00  0.00     0.220 C 
HETATM   17  C10 UNL     1     115.260  44.189  50.833  1.00  0.00     0.155 C 
HETATM   18  C11 UNL     1     115.384  45.067  52.057  1.00  0.00     0.048 C 
HETATM   19  C12 UNL     1     114.001  45.060  52.718  1.00  0.00     0.016 C 
HETATM   20  C16 UNL     1     115.884  44.277  53.238  1.00  0.00     0.197 C 
HETATM   21  C13 UNL     1     114.450  43.845  53.468  1.00  0.00     0.025 C 
HETATM   22  C14 UNL     1     114.418  42.590  52.607  1.00  0.00     0.050 C 
HETATM   23  C15 UNL     1     115.739  41.973  53.044  1.00  0.00     0.239 C 
HETATM   24  N3  UNL     1     116.626  43.106  52.823  1.00  0.00    -0.070 N 
ATOM     25  H32 UNL     1     117.531  43.011  53.285  1.00  0.00     0.277 HD
ATOM     26  H31 UNL     1     116.981  43.165  51.869  1.00  0.00     0.277 HD
BRANCH  17  27
HETATM   27  O1  UNL     1     114.602  44.975  49.857  1.00  0.00    -0.393 OA
ATOM     28  H1  UNL     1     114.756  45.905  49.979  1.00  0.00     0.210 HD
ENDBRANCH  17  27
ENDBRANCH   1  16
TORSDOF 11
ENDMDL
