MODEL 1
REMARK VINA RESULT: -6.041652475      0.000      0.000
REMARK  10 active torsions:
REMARK  status: ('A' for Active; 'I' for Inactive)
REMARK    1  A    between atoms: C3_5  and  C4_6 
REMARK    2  A    between atoms: C4_6  and  N2_7 
REMARK    3  A    between atoms: N2_7  and  C5_10 
REMARK    4  A    between atoms: C5_10  and  C6_11 
REMARK    5  A    between atoms: C6_11  and  C7_12 
REMARK    6  A    between atoms: C7_12  and  N3_13 
REMARK    7  A    between atoms: N3_13  and  C8_15 
REMARK    8  A    between atoms: C8_15  and  C9_16 
REMARK    9  A    between atoms: C9_16  and  C10_17 
REMARK   10  A    between atoms: C10_17  and  N4_18 
ROOT
HETATM    1  C7  UNL     1     113.353  42.740  49.868  1.00  0.00     0.120 C 
ENDROOT
BRANCH   1   2
HETATM    2  C6  UNL     1     114.751  42.287  49.435  1.00  0.00     0.047 C 
BRANCH   2   3
HETATM    3  C5  UNL     1     114.775  40.858  49.102  1.00  0.00     0.234 C 
BRANCH   3   4
HETATM    4  N2  UNL     1     115.144  40.423  47.816  1.00  0.00    -0.070 N 
ATOM      5  H22 UNL     1     114.445  40.674  47.117  1.00  0.00     0.277 HD
ATOM      6  H21 UNL     1     115.089  39.409  47.729  1.00  0.00     0.277 HD
BRANCH   4   7
HETATM    7  C4  UNL     1     116.491  40.934  47.455  1.00  0.00     0.289 C 
BRANCH   7   8
HETATM    8  C3  UNL     1     116.267  41.607  46.122  1.00  0.00     0.034 A 
HETATM    9  N1  UNL     1     115.056  42.051  45.739  1.00  0.00    -0.368 N 
HETATM   10  C2  UNL     1     115.084  42.520  44.502  1.00  0.00     0.088 A 
ATOM     11  H1  UNL     1     114.223  42.030  46.327  1.00  0.00     0.165 HD
HETATM   12  C1  UNL     1     116.404  42.384  44.030  1.00  0.00     0.019 A 
HETATM   13  C15 UNL     1     117.103  41.812  45.082  1.00  0.00     0.028 A 
ENDBRANCH   7   8
ENDBRANCH   4   7
ENDBRANCH   3   4
ENDBRANCH   2   3
ENDBRANCH   1   2
BRANCH   1  14
HETATM   14  N3  UNL     1     113.409  44.083  50.345  1.00  0.00    -0.402 N 
ATOM     15  H3  UNL     1     112.562  44.651  50.371  1.00  0.00     0.158 HD
BRANCH  14  16
HETATM   16  C8  UNL     1     114.623  44.620  50.776  1.00  0.00     0.057 C 
BRANCH  16  17
HETATM   17  C9  UNL     1     114.694  45.143  52.183  1.00  0.00     0.074 C 
BRANCH  17  18
HETATM   18  C10 UNL     1     114.545  44.064  53.208  1.00  0.00     0.277 C 
BRANCH  18  19
HETATM   19  N4  UNL     1     115.581  43.041  53.081  1.00  0.00     0.092 N 
HETATM   20  C11 UNL     1     116.364  43.114  54.319  1.00  0.00     0.300 C 
HETATM   21  C12 UNL     1     117.660  42.395  54.065  1.00  0.00     0.262 C 
HETATM   22  N5  UNL     1     117.351  41.173  53.386  1.00  0.00    -0.072 N 
HETATM   23  C13 UNL     1     116.005  40.746  53.625  1.00  0.00     0.262 C 
ATOM     24  H52 UNL     1     117.542  41.248  52.387  1.00  0.00     0.277 HD
ATOM     25  H51 UNL     1     118.018  40.439  53.625  1.00  0.00     0.277 HD
HETATM   26  C14 UNL     1     114.964  41.702  53.133  1.00  0.00     0.300 C 
ENDBRANCH  18  19
ENDBRANCH  17  18
ENDBRANCH  16  17
ENDBRANCH  14  16
ENDBRANCH   1  14
TORSDOF 10
ENDMDL
MODEL 2
REMARK VINA RESULT: -6.032354435      2.115      2.877
REMARK  10 active torsions:
REMARK  status: ('A' for Active; 'I' for Inactive)
REMARK    1  A    between atoms: C3_5  and  C4_6 
REMARK    2  A    between atoms: C4_6  and  N2_7 
REMARK    3  A    between atoms: N2_7  and  C5_10 
REMARK    4  A    between atoms: C5_10  and  C6_11 
REMARK    5  A    between atoms: C6_11  and  C7_12 
REMARK    6  A    between atoms: C7_12  and  N3_13 
REMARK    7  A    between atoms: N3_13  and  C8_15 
REMARK    8  A    between atoms: C8_15  and  C9_16 
REMARK    9  A    between atoms: C9_16  and  C10_17 
REMARK   10  A    between atoms: C10_17  and  N4_18 
ROOT
HETATM    1  C7  UNL     1     113.332  42.486  49.681  1.00  0.00     0.120 C 
ENDROOT
BRANCH   1   2
HETATM    2  C6  UNL     1     114.760  41.982  49.908  1.00  0.00     0.047 C 
BRANCH   2   3
HETATM    3  C5  UNL     1     115.134  40.961  48.922  1.00  0.00     0.234 C 
BRANCH   3   4
HETATM    4  N2  UNL     1     116.328  41.074  48.185  1.00  0.00    -0.070 N 
ATOM      5  H22 UNL     1     116.375  40.385  47.435  1.00  0.00     0.277 HD
ATOM      6  H21 UNL     1     117.136  40.767  48.726  1.00  0.00     0.277 HD
BRANCH   4   7
HETATM    7  C4  UNL     1     116.500  42.457  47.673  1.00  0.00     0.289 C 
BRANCH   7   8
HETATM    8  C3  UNL     1     116.214  42.324  46.197  1.00  0.00     0.034 A 
HETATM    9  N1  UNL     1     114.959  42.276  45.712  1.00  0.00    -0.368 N 
HETATM   10  C2  UNL     1     114.955  42.067  44.406  1.00  0.00     0.088 A 
ATOM     11  H1  UNL     1     114.119  42.387  46.280  1.00  0.00     0.165 HD
HETATM   12  C1  UNL     1     116.297  41.975  43.989  1.00  0.00     0.019 A 
HETATM   13  C15 UNL     1     117.042  42.147  45.146  1.00  0.00     0.028 A 
ENDBRANCH   7   8
ENDBRANCH   4   7
ENDBRANCH   3   4
ENDBRANCH   2   3
ENDBRANCH   1   2
BRANCH   1  14
HETATM   14  N3  UNL     1     113.212  43.824  50.159  1.00  0.00    -0.402 N 
ATOM     15  H3  UNL     1     112.385  44.376  49.931  1.00  0.00     0.158 HD
BRANCH  14  16
HETATM   16  C8  UNL     1     114.228  44.380  50.940  1.00  0.00     0.057 C 
BRANCH  16  17
HETATM   17  C9  UNL     1     113.888  44.772  52.350  1.00  0.00     0.074 C 
BRANCH  17  18
HETATM   18  C10 UNL     1     115.098  44.915  53.217  1.00  0.00     0.277 C 
BRANCH  18  19
HETATM   19  N4  UNL     1     116.013  45.939  52.717  1.00  0.00     0.092 N 
HETATM   20  C11 UNL     1     116.343  46.776  53.875  1.00  0.00     0.300 C 
HETATM   21  C12 UNL     1     116.927  48.056  53.344  1.00  0.00     0.262 C 
HETATM   22  N5  UNL     1     117.860  47.711  52.316  1.00  0.00    -0.072 N 
HETATM   23  C13 UNL     1     118.354  46.374  52.458  1.00  0.00     0.262 C 
ATOM     24  H52 UNL     1     117.459  47.860  51.389  1.00  0.00     0.277 HD
ATOM     25  H51 UNL     1     118.626  48.384  52.271  1.00  0.00     0.277 HD
HETATM   26  C14 UNL     1     117.300  45.318  52.352  1.00  0.00     0.300 C 
ENDBRANCH  18  19
ENDBRANCH  17  18
ENDBRANCH  16  17
ENDBRANCH  14  16
ENDBRANCH   1  14
TORSDOF 10
ENDMDL
MODEL 3
REMARK VINA RESULT: -5.996053598      2.300      4.197
REMARK  10 active torsions:
REMARK  status: ('A' for Active; 'I' for Inactive)
REMARK    1  A    between atoms: C3_5  and  C4_6 
REMARK    2  A    between atoms: C4_6  and  N2_7 
REMARK    3  A    between atoms: N2_7  and  C5_10 
REMARK    4  A    between atoms: C5_10  and  C6_11 
REMARK    5  A    between atoms: C6_11  and  C7_12 
REMARK    6  A    between atoms: C7_12  and  N3_13 
REMARK    7  A    between atoms: N3_13  and  C8_15 
REMARK    8  A    between atoms: C8_15  and  C9_16 
REMARK    9  A    between atoms: C9_16  and  C10_17 
REMARK   10  A    between atoms: C10_17  and  N4_18 
ROOT
HETATM    1  C7  UNL     1     117.120  40.874  47.075  1.00  0.00     0.120 C 
ENDROOT
BRANCH   1   2
HETATM    2  C6  UNL     1     116.980  42.385  46.872  1.00  0.00     0.047 C 
BRANCH   2   3
HETATM    3  C5  UNL     1     117.076  42.750  45.454  1.00  0.00     0.234 C 
BRANCH   3   4
HETATM    4  N2  UNL     1     116.702  41.840  44.449  1.00  0.00    -0.070 N 
ATOM      5  H22 UNL     1     117.019  40.893  44.658  1.00  0.00     0.277 HD
ATOM      6  H21 UNL     1     117.227  41.990  43.588  1.00  0.00     0.277 HD
BRANCH   4   7
HETATM    7  C4  UNL     1     115.236  41.889  44.214  1.00  0.00     0.289 C 
BRANCH   7   8
HETATM    8  C3  UNL     1     115.057  41.109  42.934  1.00  0.00     0.034 A 
HETATM    9  N1  UNL     1     113.855  40.658  42.532  1.00  0.00    -0.368 N 
HETATM   10  C2  UNL     1     113.957  39.926  41.435  1.00  0.00     0.088 A 
ATOM     11  H1  UNL     1     112.977  40.854  43.013  1.00  0.00     0.165 HD
HETATM   12  C1  UNL     1     115.318  39.892  41.076  1.00  0.00     0.019 A 
HETATM   13  C15 UNL     1     115.961  40.650  42.043  1.00  0.00     0.028 A 
ENDBRANCH   7   8
ENDBRANCH   4   7
ENDBRANCH   3   4
ENDBRANCH   2   3
ENDBRANCH   1   2
BRANCH   1  14
HETATM   14  N3  UNL     1     116.331  40.462  48.189  1.00  0.00    -0.402 N 
ATOM     15  H3  UNL     1     116.691  39.765  48.841  1.00  0.00     0.158 HD
BRANCH  14  16
HETATM   16  C8  UNL     1     115.063  41.013  48.387  1.00  0.00     0.057 C 
BRANCH  16  17
HETATM   17  C9  UNL     1     114.726  41.509  49.765  1.00  0.00     0.074 C 
BRANCH  17  18
HETATM   18  C10 UNL     1     113.578  42.468  49.769  1.00  0.00     0.277 C 
BRANCH  18  19
HETATM   19  N4  UNL     1     113.928  43.740  50.397  1.00  0.00     0.092 N 
HETATM   20  C11 UNL     1     113.647  43.568  51.826  1.00  0.00     0.300 C 
HETATM   21  C12 UNL     1     113.590  44.943  52.434  1.00  0.00     0.262 C 
HETATM   22  N5  UNL     1     114.700  45.687  51.922  1.00  0.00    -0.072 N 
HETATM   23  C13 UNL     1     115.763  44.838  51.477  1.00  0.00     0.262 C 
ATOM     24  H52 UNL     1     114.405  46.327  51.185  1.00  0.00     0.277 HD
ATOM     25  H51 UNL     1     115.034  46.368  52.605  1.00  0.00     0.277 HD
HETATM   26  C14 UNL     1     115.390  43.932  50.345  1.00  0.00     0.300 C 
ENDBRANCH  18  19
ENDBRANCH  17  18
ENDBRANCH  16  17
ENDBRANCH  14  16
ENDBRANCH   1  14
TORSDOF 10
ENDMDL
MODEL 4
REMARK VINA RESULT: -5.930370294      1.095      1.367
REMARK  10 active torsions:
REMARK  status: ('A' for Active; 'I' for Inactive)
REMARK    1  A    between atoms: C3_5  and  C4_6 
REMARK    2  A    between atoms: C4_6  and  N2_7 
REMARK    3  A    between atoms: N2_7  and  C5_10 
REMARK    4  A    between atoms: C5_10  and  C6_11 
REMARK    5  A    between atoms: C6_11  and  C7_12 
REMARK    6  A    between atoms: C7_12  and  N3_13 
REMARK    7  A    between atoms: N3_13  and  C8_15 
REMARK    8  A    between atoms: C8_15  and  C9_16 
REMARK    9  A    between atoms: C9_16  and  C10_17 
REMARK   10  A    between atoms: C10_17  and  N4_18 
ROOT
HETATM    1  C7  UNL     1     113.359  42.350  49.585  1.00  0.00     0.120 C 
ENDROOT
BRANCH   1   2
HETATM    2  C6  UNL     1     114.826  41.981  49.823  1.00  0.00     0.047 C 
BRANCH   2   3
HETATM    3  C5  UNL     1     115.261  40.898  48.934  1.00  0.00     0.234 C 
BRANCH   3   4
HETATM    4  N2  UNL     1     116.398  41.047  48.118  1.00  0.00    -0.070 N 
ATOM      5  H22 UNL     1     116.402  40.377  47.349  1.00  0.00     0.277 HD
ATOM      6  H21 UNL     1     117.247  40.742  48.592  1.00  0.00     0.277 HD
BRANCH   4   7
HETATM    7  C4  UNL     1     116.513  42.445  47.629  1.00  0.00     0.289 C 
BRANCH   7   8
HETATM    8  C3  UNL     1     116.202  42.331  46.157  1.00  0.00     0.034 A 
HETATM    9  N1  UNL     1     114.940  42.270  45.694  1.00  0.00    -0.368 N 
HETATM   10  C2  UNL     1     114.915  42.081  44.385  1.00  0.00     0.088 A 
ATOM     11  H1  UNL     1     114.109  42.359  46.278  1.00  0.00     0.165 HD
HETATM   12  C1  UNL     1     116.251  42.017  43.943  1.00  0.00     0.019 A 
HETATM   13  C15 UNL     1     117.015  42.182  45.089  1.00  0.00     0.028 A 
ENDBRANCH   7   8
ENDBRANCH   4   7
ENDBRANCH   3   4
ENDBRANCH   2   3
ENDBRANCH   1   2
BRANCH   1  14
HETATM   14  N3  UNL     1     113.128  43.695  49.998  1.00  0.00    -0.402 N 
ATOM     15  H3  UNL     1     112.294  44.190  49.682  1.00  0.00     0.158 HD
BRANCH  14  16
HETATM   16  C8  UNL     1     114.044  44.335  50.834  1.00  0.00     0.057 C 
BRANCH  16  17
HETATM   17  C9  UNL     1     113.600  44.666  52.231  1.00  0.00     0.074 C 
BRANCH  17  18
HETATM   18  C10 UNL     1     114.736  44.713  53.203  1.00  0.00     0.277 C 
BRANCH  18  19
HETATM   19  N4  UNL     1     114.903  43.446  53.913  1.00  0.00     0.092 N 
HETATM   20  C11 UNL     1     116.222  42.941  53.518  1.00  0.00     0.300 C 
HETATM   21  C12 UNL     1     116.262  41.481  53.878  1.00  0.00     0.262 C 
HETATM   22  N5  UNL     1     115.715  41.345  55.193  1.00  0.00    -0.072 N 
HETATM   23  C13 UNL     1     115.807  42.560  55.946  1.00  0.00     0.262 C 
ATOM     24  H52 UNL     1     114.754  41.003  55.159  1.00  0.00     0.277 HD
ATOM     25  H51 UNL     1     116.146  40.567  55.693  1.00  0.00     0.277 HD
HETATM   26  C14 UNL     1     115.041  43.703  55.359  1.00  0.00     0.300 C 
ENDBRANCH  18  19
ENDBRANCH  17  18
ENDBRANCH  16  17
ENDBRANCH  14  16
ENDBRANCH   1  14
TORSDOF 10
ENDMDL
MODEL 5
REMARK VINA RESULT: -5.896886363      1.484      1.725
REMARK  10 active torsions:
REMARK  status: ('A' for Active; 'I' for Inactive)
REMARK    1  A    between atoms: C3_5  and  C4_6 
REMARK    2  A    between atoms: C4_6  and  N2_7 
REMARK    3  A    between atoms: N2_7  and  C5_10 
REMARK    4  A    between atoms: C5_10  and  C6_11 
REMARK    5  A    between atoms: C6_11  and  C7_12 
REMARK    6  A    between atoms: C7_12  and  N3_13 
REMARK    7  A    between atoms: N3_13  and  C8_15 
REMARK    8  A    between atoms: C8_15  and  C9_16 
REMARK    9  A    between atoms: C9_16  and  C10_17 
REMARK   10  A    between atoms: C10_17  and  N4_18 
ROOT
HETATM    1  C7  UNL     1     113.350  42.353  49.436  1.00  0.00     0.120 C 
ENDROOT
BRANCH   1   2
HETATM    2  C6  UNL     1     114.787  41.924  49.746  1.00  0.00     0.047 C 
BRANCH   2   3
HETATM    3  C5  UNL     1     115.240  40.862  48.841  1.00  0.00     0.234 C 
BRANCH   3   4
HETATM    4  N2  UNL     1     116.417  41.013  48.085  1.00  0.00    -0.070 N 
ATOM      5  H22 UNL     1     116.459  40.347  47.313  1.00  0.00     0.277 HD
ATOM      6  H21 UNL     1     117.240  40.701  48.600  1.00  0.00     0.277 HD
BRANCH   4   7
HETATM    7  C4  UNL     1     116.561  42.413  47.611  1.00  0.00     0.289 C 
BRANCH   7   8
HETATM    8  C3  UNL     1     116.215  42.326  46.145  1.00  0.00     0.034 A 
HETATM    9  N1  UNL     1     114.944  42.216  45.714  1.00  0.00    -0.368 N 
HETATM   10  C2  UNL     1     114.891  42.064  44.402  1.00  0.00     0.088 A 
ATOM     11  H1  UNL     1     114.126  42.246  46.323  1.00  0.00     0.165 HD
HETATM   12  C1  UNL     1     116.215  42.080  43.921  1.00  0.00     0.019 A 
HETATM   13  C15 UNL     1     117.002  42.250  45.051  1.00  0.00     0.028 A 
ENDBRANCH   7   8
ENDBRANCH   4   7
ENDBRANCH   3   4
ENDBRANCH   2   3
ENDBRANCH   1   2
BRANCH   1  14
HETATM   14  N3  UNL     1     113.072  43.601  50.069  1.00  0.00    -0.402 N 
ATOM     15  H3  UNL     1     112.128  43.986  50.045  1.00  0.00     0.158 HD
BRANCH  14  16
HETATM   16  C8  UNL     1     114.094  44.294  50.721  1.00  0.00     0.057 C 
BRANCH  16  17
HETATM   17  C9  UNL     1     113.887  44.642  52.168  1.00  0.00     0.074 C 
BRANCH  17  18
HETATM   18  C10 UNL     1     114.858  45.668  52.659  1.00  0.00     0.277 C 
BRANCH  18  19
HETATM   19  N4  UNL     1     115.710  45.150  53.727  1.00  0.00     0.092 N 
HETATM   20  C11 UNL     1     114.925  44.102  54.388  1.00  0.00     0.300 C 
HETATM   21  C12 UNL     1     115.572  43.838  55.719  1.00  0.00     0.262 C 
HETATM   22  N5  UNL     1     116.985  43.762  55.505  1.00  0.00    -0.072 N 
HETATM   23  C13 UNL     1     117.311  43.420  54.154  1.00  0.00     0.262 C 
ATOM     24  H52 UNL     1     117.447  44.627  55.789  1.00  0.00     0.277 HD
ATOM     25  H51 UNL     1     117.424  43.119  56.165  1.00  0.00     0.277 HD
HETATM   26  C14 UNL     1     116.850  44.420  53.141  1.00  0.00     0.300 C 
ENDBRANCH  18  19
ENDBRANCH  17  18
ENDBRANCH  16  17
ENDBRANCH  14  16
ENDBRANCH   1  14
TORSDOF 10
ENDMDL
