MODEL 1
REMARK VINA RESULT: -6.718895488      0.000      0.000
REMARK  12 active torsions:
REMARK  status: ('A' for Active; 'I' for Inactive)
REMARK    1  A    between atoms: N1_3  and  C3_5 
REMARK    2  A    between atoms: C4_8  and  N3_9 
REMARK    3  A    between atoms: C5_14  and  N5_15 
REMARK    4  A    between atoms: N5_15  and  C6_17 
REMARK    5  A    between atoms: C6_17  and  C7_18 
REMARK    6  A    between atoms: C7_18  and  C8_19 
REMARK    7  A    between atoms: C8_19  and  C9_20 
REMARK    8  A    between atoms: C9_20  and  C10_21 
REMARK    9  A    between atoms: C10_21  and  C11_22 
REMARK   10  A    between atoms: C11_22  and  C12_23 
REMARK   11  A    between atoms: C12_23  and  C13_24 
REMARK   12  A    between atoms: C13_24  and  C14_25 
ROOT
HETATM    1  C1  UNL     1     116.654  39.665  53.250  1.00  0.00     0.037 C 
HETATM    2  C2  UNL     1     115.963  40.636  53.396  1.00  0.00     0.015 C 
HETATM    3  N1  UNL     1     115.143  41.753  53.577  1.00  0.00    -0.148 N 
ATOM      4  H1  UNL     1     114.624  41.859  54.449  1.00  0.00     0.195 HD
ENDROOT
BRANCH   3   5
HETATM    5  C3  UNL     1     115.033  42.657  52.653  1.00  0.00     0.718 A 
HETATM    6  N2  UNL     1     115.018  43.964  52.919  1.00  0.00    -0.021 N 
HETATM    7  C4  UNL     1     114.902  44.835  51.914  1.00  0.00     0.705 A 
ATOM      8  H2  UNL     1     115.094  44.295  53.881  1.00  0.00     0.203 HD
HETATM    9  N4  UNL     1     114.799  44.445  50.633  1.00  0.00    -0.022 N 
HETATM   10  C5  UNL     1     114.812  43.113  50.333  1.00  0.00     0.707 A 
ATOM     11  H4  UNL     1     114.711  45.139  49.890  1.00  0.00     0.203 HD
HETATM   12  N6  UNL     1     114.931  42.265  51.383  1.00  0.00    -0.021 N 
ATOM     13  H6  UNL     1     114.944  41.264  51.189  1.00  0.00     0.203 HD
BRANCH   7  14
HETATM   14  N3  UNL     1     114.887  46.120  52.168  1.00  0.00    -0.234 N 
ATOM     15  H32 UNL     1     114.207  46.466  52.844  1.00  0.00     0.174 HD
ATOM     16  H31 UNL     1     115.545  46.736  51.691  1.00  0.00     0.174 HD
ENDBRANCH   7  14
BRANCH  10  17
HETATM   17  N5  UNL     1     114.717  42.700  49.136  1.00  0.00    -0.225 N 
ATOM     18  H5  UNL     1     114.958  43.379  48.415  1.00  0.00     0.177 HD
BRANCH  17  19
HETATM   19  C6  UNL     1     114.320  41.416  48.664  1.00  0.00     0.138 C 
BRANCH  19  20
HETATM   20  C7  UNL     1     114.968  40.965  47.411  1.00  0.00     0.020 C 
BRANCH  20  21
HETATM   21  C8  UNL     1     116.321  40.461  47.468  1.00  0.00     0.002 C 
BRANCH  21  22
HETATM   22  C9  UNL     1     117.345  40.887  46.513  1.00  0.00     0.000 C 
BRANCH  22  23
HETATM   23  C10 UNL     1     117.421  42.281  46.078  1.00  0.00     0.000 C 
BRANCH  23  24
HETATM   24  C11 UNL     1     116.944  42.609  44.694  1.00  0.00     0.000 C 
BRANCH  24  25
HETATM   25  C12 UNL     1     116.663  41.548  43.742  1.00  0.00     0.000 C 
BRANCH  25  26
HETATM   26  C13 UNL     1     115.314  41.248  43.226  1.00  0.00    -0.000 C 
BRANCH  26  27
HETATM   27  C14 UNL     1     115.531  40.486  41.886  1.00  0.00    -0.005 C 
HETATM   28  C15 UNL     1     114.220  39.987  41.371  1.00  0.00     0.005 C 
ENDBRANCH  26  27
ENDBRANCH  25  26
ENDBRANCH  24  25
ENDBRANCH  23  24
ENDBRANCH  22  23
ENDBRANCH  21  22
ENDBRANCH  20  21
ENDBRANCH  19  20
ENDBRANCH  17  19
ENDBRANCH  10  17
ENDBRANCH   3   5
TORSDOF 12
ENDMDL
MODEL 2
REMARK VINA RESULT: -6.602180816      0.914      2.740
REMARK  12 active torsions:
REMARK  status: ('A' for Active; 'I' for Inactive)
REMARK    1  A    between atoms: N1_3  and  C3_5 
REMARK    2  A    between atoms: C4_8  and  N3_9 
REMARK    3  A    between atoms: C5_14  and  N5_15 
REMARK    4  A    between atoms: N5_15  and  C6_17 
REMARK    5  A    between atoms: C6_17  and  C7_18 
REMARK    6  A    between atoms: C7_18  and  C8_19 
REMARK    7  A    between atoms: C8_19  and  C9_20 
REMARK    8  A    between atoms: C9_20  and  C10_21 
REMARK    9  A    between atoms: C10_21  and  C11_22 
REMARK   10  A    between atoms: C11_22  and  C12_23 
REMARK   11  A    between atoms: C12_23  and  C13_24 
REMARK   12  A    between atoms: C13_24  and  C14_25 
ROOT
HETATM    1  C1  UNL     1     116.701  47.235  53.605  1.00  0.00     0.037 C 
HETATM    2  C2  UNL     1     115.854  46.669  52.970  1.00  0.00     0.015 C 
HETATM    3  N1  UNL     1     114.853  46.021  52.241  1.00  0.00    -0.148 N 
ATOM      4  H1  UNL     1     114.054  46.556  51.901  1.00  0.00     0.195 HD
ENDROOT
BRANCH   3   5
HETATM    5  C3  UNL     1     114.927  44.751  51.988  1.00  0.00     0.718 A 
HETATM    6  N2  UNL     1     115.124  43.835  52.938  1.00  0.00    -0.021 N 
HETATM    7  C4  UNL     1     115.187  42.545  52.600  1.00  0.00     0.705 A 
ATOM      8  H2  UNL     1     115.226  44.118  53.913  1.00  0.00     0.203 HD
HETATM    9  N4  UNL     1     115.060  42.127  51.330  1.00  0.00    -0.022 N 
HETATM   10  C5  UNL     1     114.857  43.044  50.339  1.00  0.00     0.707 A 
ATOM     11  H4  UNL     1     115.114  41.133  51.108  1.00  0.00     0.203 HD
HETATM   12  N6  UNL     1     114.799  44.340  50.726  1.00  0.00    -0.021 N 
ATOM     13  H6  UNL     1     114.648  45.047  50.007  1.00  0.00     0.203 HD
BRANCH   7  14
HETATM   14  N3  UNL     1     115.381  41.641  53.527  1.00  0.00    -0.234 N 
ATOM     15  H32 UNL     1     114.590  41.382  54.117  1.00  0.00     0.174 HD
ATOM     16  H31 UNL     1     116.304  41.221  53.639  1.00  0.00     0.174 HD
ENDBRANCH   7  14
BRANCH  10  17
HETATM   17  N5  UNL     1     114.731  42.693  49.125  1.00  0.00    -0.225 N 
ATOM     18  H5  UNL     1     114.960  43.408  48.434  1.00  0.00     0.177 HD
BRANCH  17  19
HETATM   19  C6  UNL     1     114.312  41.439  48.597  1.00  0.00     0.138 C 
BRANCH  19  20
HETATM   20  C7  UNL     1     114.986  41.010  47.350  1.00  0.00     0.020 C 
BRANCH  20  21
HETATM   21  C8  UNL     1     116.337  40.499  47.428  1.00  0.00     0.002 C 
BRANCH  21  22
HETATM   22  C9  UNL     1     117.373  40.907  46.478  1.00  0.00     0.000 C 
BRANCH  22  23
HETATM   23  C10 UNL     1     117.461  42.295  46.026  1.00  0.00     0.000 C 
BRANCH  23  24
HETATM   24  C11 UNL     1     116.823  42.646  44.715  1.00  0.00     0.000 C 
BRANCH  24  25
HETATM   25  C12 UNL     1     116.601  41.622  43.708  1.00  0.00     0.000 C 
BRANCH  25  26
HETATM   26  C13 UNL     1     115.266  41.241  43.210  1.00  0.00    -0.000 C 
BRANCH  26  27
HETATM   27  C14 UNL     1     115.514  40.430  41.905  1.00  0.00    -0.005 C 
HETATM   28  C15 UNL     1     114.209  39.980  41.333  1.00  0.00     0.005 C 
ENDBRANCH  26  27
ENDBRANCH  25  26
ENDBRANCH  24  25
ENDBRANCH  23  24
ENDBRANCH  22  23
ENDBRANCH  21  22
ENDBRANCH  20  21
ENDBRANCH  19  20
ENDBRANCH  17  19
ENDBRANCH  10  17
ENDBRANCH   3   5
TORSDOF 12
ENDMDL
MODEL 3
REMARK VINA RESULT: -6.453204098      2.165      3.701
REMARK  12 active torsions:
REMARK  status: ('A' for Active; 'I' for Inactive)
REMARK    1  A    between atoms: N1_3  and  C3_5 
REMARK    2  A    between atoms: C4_8  and  N3_9 
REMARK    3  A    between atoms: C5_14  and  N5_15 
REMARK    4  A    between atoms: N5_15  and  C6_17 
REMARK    5  A    between atoms: C6_17  and  C7_18 
REMARK    6  A    between atoms: C7_18  and  C8_19 
REMARK    7  A    between atoms: C8_19  and  C9_20 
REMARK    8  A    between atoms: C9_20  and  C10_21 
REMARK    9  A    between atoms: C10_21  and  C11_22 
REMARK   10  A    between atoms: C11_22  and  C12_23 
REMARK   11  A    between atoms: C12_23  and  C13_24 
REMARK   12  A    between atoms: C13_24  and  C14_25 
ROOT
HETATM    1  C1  UNL     1     118.966  47.177  52.553  1.00  0.00     0.037 C 
HETATM    2  C2  UNL     1     117.767  47.212  52.589  1.00  0.00     0.015 C 
HETATM    3  N1  UNL     1     116.372  47.270  52.644  1.00  0.00    -0.148 N 
ATOM      4  H1  UNL     1     115.906  48.177  52.627  1.00  0.00     0.195 HD
ENDROOT
BRANCH   3   5
HETATM    5  C3  UNL     1     115.660  46.187  52.716  1.00  0.00     0.718 A 
HETATM    6  N2  UNL     1     115.553  45.465  53.832  1.00  0.00    -0.021 N 
HETATM    7  C4  UNL     1     114.801  44.362  53.828  1.00  0.00     0.705 A 
ATOM      8  H2  UNL     1     116.042  45.752  54.680  1.00  0.00     0.203 HD
HETATM    9  N4  UNL     1     114.141  43.946  52.735  1.00  0.00    -0.022 N 
HETATM   10  C5  UNL     1     114.233  44.667  51.580  1.00  0.00     0.707 A 
ATOM     11  H4  UNL     1     113.576  43.097  52.768  1.00  0.00     0.203 HD
HETATM   12  N6  UNL     1     115.006  45.778  51.629  1.00  0.00    -0.021 N 
ATOM     13  H6  UNL     1     115.093  46.337  50.780  1.00  0.00     0.203 HD
BRANCH   7  14
HETATM   14  N3  UNL     1     114.692  43.648  54.921  1.00  0.00    -0.234 N 
ATOM     15  H32 UNL     1     115.016  44.059  55.796  1.00  0.00     0.174 HD
ATOM     16  H31 UNL     1     114.292  42.711  54.873  1.00  0.00     0.174 HD
ENDBRANCH   7  14
BRANCH  10  17
HETATM   17  N5  UNL     1     113.626  44.310  50.523  1.00  0.00    -0.225 N 
ATOM     18  H5  UNL     1     113.355  45.066  49.894  1.00  0.00     0.177 HD
BRANCH  17  19
HETATM   19  C6  UNL     1     113.271  42.998  50.096  1.00  0.00     0.138 C 
BRANCH  19  20
HETATM   20  C7  UNL     1     114.389  42.159  49.606  1.00  0.00     0.020 C 
BRANCH  20  21
HETATM   21  C8  UNL     1     114.327  41.630  48.263  1.00  0.00     0.002 C 
BRANCH  21  22
HETATM   22  C9  UNL     1     115.126  40.476  47.849  1.00  0.00     0.000 C 
BRANCH  22  23
HETATM   23  C10 UNL     1     116.587  40.530  47.895  1.00  0.00     0.000 C 
BRANCH  23  24
HETATM   24  C11 UNL     1     117.325  40.627  46.593  1.00  0.00     0.000 C 
BRANCH  24  25
HETATM   25  C12 UNL     1     117.793  41.913  46.107  1.00  0.00     0.000 C 
BRANCH  25  26
HETATM   26  C13 UNL     1     116.897  42.974  45.609  1.00  0.00    -0.000 C 
BRANCH  26  27
HETATM   27  C14 UNL     1     116.193  42.383  44.353  1.00  0.00    -0.005 C 
HETATM   28  C15 UNL     1     114.723  42.280  44.600  1.00  0.00     0.005 C 
ENDBRANCH  26  27
ENDBRANCH  25  26
ENDBRANCH  24  25
ENDBRANCH  23  24
ENDBRANCH  22  23
ENDBRANCH  21  22
ENDBRANCH  20  21
ENDBRANCH  19  20
ENDBRANCH  17  19
ENDBRANCH  10  17
ENDBRANCH   3   5
TORSDOF 12
ENDMDL
MODEL 4
REMARK VINA RESULT: -6.285493494      1.960      2.731
REMARK  12 active torsions:
REMARK  status: ('A' for Active; 'I' for Inactive)
REMARK    1  A    between atoms: N1_3  and  C3_5 
REMARK    2  A    between atoms: C4_8  and  N3_9 
REMARK    3  A    between atoms: C5_14  and  N5_15 
REMARK    4  A    between atoms: N5_15  and  C6_17 
REMARK    5  A    between atoms: C6_17  and  C7_18 
REMARK    6  A    between atoms: C7_18  and  C8_19 
REMARK    7  A    between atoms: C8_19  and  C9_20 
REMARK    8  A    between atoms: C9_20  and  C10_21 
REMARK    9  A    between atoms: C10_21  and  C11_22 
REMARK   10  A    between atoms: C11_22  and  C12_23 
REMARK   11  A    between atoms: C12_23  and  C13_24 
REMARK   12  A    between atoms: C13_24  and  C14_25 
ROOT
HETATM    1  C1  UNL     1     115.590  41.759  55.607  1.00  0.00     0.037 C 
HETATM    2  C2  UNL     1     115.221  42.872  55.351  1.00  0.00     0.015 C 
HETATM    3  N1  UNL     1     114.773  44.165  55.066  1.00  0.00    -0.148 N 
ATOM      4  H1  UNL     1     114.285  44.698  55.785  1.00  0.00     0.195 HD
ENDROOT
BRANCH   3   5
HETATM    5  C3  UNL     1     114.968  44.697  53.898  1.00  0.00     0.718 A 
HETATM    6  N2  UNL     1     115.929  45.591  53.662  1.00  0.00    -0.021 N 
HETATM    7  C4  UNL     1     116.068  46.094  52.434  1.00  0.00     0.705 A 
ATOM      8  H2  UNL     1     116.551  45.889  54.414  1.00  0.00     0.203 HD
HETATM    9  N4  UNL     1     115.272  45.732  51.415  1.00  0.00    -0.022 N 
HETATM   10  C5  UNL     1     114.281  44.819  51.628  1.00  0.00     0.707 A 
ATOM     11  H4  UNL     1     115.407  46.138  50.488  1.00  0.00     0.203 HD
HETATM   12  N6  UNL     1     114.175  44.335  52.889  1.00  0.00    -0.021 N 
ATOM     13  H6  UNL     1     113.444  43.650  53.078  1.00  0.00     0.203 HD
BRANCH   7  14
HETATM   14  N3  UNL     1     117.010  46.972  52.196  1.00  0.00    -0.234 N 
ATOM     15  H32 UNL     1     116.896  47.912  52.575  1.00  0.00     0.174 HD
ATOM     16  H31 UNL     1     117.825  46.702  51.645  1.00  0.00     0.174 HD
ENDBRANCH   7  14
BRANCH  10  17
HETATM   17  N5  UNL     1     113.505  44.448  50.694  1.00  0.00    -0.225 N 
ATOM     18  H5  UNL     1     112.975  45.192  50.239  1.00  0.00     0.177 HD
BRANCH  17  19
HETATM   19  C6  UNL     1     113.274  43.134  50.194  1.00  0.00     0.138 C 
BRANCH  19  20
HETATM   20  C7  UNL     1     114.455  42.451  49.617  1.00  0.00     0.020 C 
BRANCH  20  21
HETATM   21  C8  UNL     1     114.290  41.130  49.053  1.00  0.00     0.002 C 
BRANCH  21  22
HETATM   22  C9  UNL     1     114.903  40.752  47.779  1.00  0.00     0.000 C 
BRANCH  22  23
HETATM   23  C10 UNL     1     116.283  40.271  47.733  1.00  0.00     0.000 C 
BRANCH  23  24
HETATM   24  C11 UNL     1     117.278  41.072  46.948  1.00  0.00     0.000 C 
BRANCH  24  25
HETATM   25  C12 UNL     1     116.988  42.448  46.580  1.00  0.00     0.000 C 
BRANCH  25  26
HETATM   26  C13 UNL     1     117.107  42.970  45.206  1.00  0.00    -0.000 C 
BRANCH  26  27
HETATM   27  C14 UNL     1     116.190  42.068  44.328  1.00  0.00    -0.005 C 
HETATM   28  C15 UNL     1     114.757  42.402  44.585  1.00  0.00     0.005 C 
ENDBRANCH  26  27
ENDBRANCH  25  26
ENDBRANCH  24  25
ENDBRANCH  23  24
ENDBRANCH  22  23
ENDBRANCH  21  22
ENDBRANCH  20  21
ENDBRANCH  19  20
ENDBRANCH  17  19
ENDBRANCH  10  17
ENDBRANCH   3   5
TORSDOF 12
ENDMDL
MODEL 5
REMARK VINA RESULT: -6.212163751      2.602      8.304
REMARK  12 active torsions:
REMARK  status: ('A' for Active; 'I' for Inactive)
REMARK    1  A    between atoms: N1_3  and  C3_5 
REMARK    2  A    between atoms: C4_8  and  N3_9 
REMARK    3  A    between atoms: C5_14  and  N5_15 
REMARK    4  A    between atoms: N5_15  and  C6_17 
REMARK    5  A    between atoms: C6_17  and  C7_18 
REMARK    6  A    between atoms: C7_18  and  C8_19 
REMARK    7  A    between atoms: C8_19  and  C9_20 
REMARK    8  A    between atoms: C9_20  and  C10_21 
REMARK    9  A    between atoms: C10_21  and  C11_22 
REMARK   10  A    between atoms: C11_22  and  C12_23 
REMARK   11  A    between atoms: C12_23  and  C13_24 
REMARK   12  A    between atoms: C13_24  and  C14_25 
ROOT
HETATM    1  C1  UNL     1     115.531  40.092  41.536  1.00  0.00     0.037 C 
HETATM    2  C2  UNL     1     115.173  40.811  42.427  1.00  0.00     0.015 C 
HETATM    3  N1  UNL     1     114.751  41.665  43.450  1.00  0.00    -0.148 N 
ATOM      4  H1  UNL     1     113.934  42.258  43.305  1.00  0.00     0.195 HD
ENDROOT
BRANCH   3   5
HETATM    5  C3  UNL     1     115.383  41.714  44.583  1.00  0.00     0.718 A 
HETATM    6  N2  UNL     1     116.713  41.702  44.670  1.00  0.00    -0.021 N 
HETATM    7  C4  UNL     1     117.291  41.755  45.872  1.00  0.00     0.705 A 
ATOM      8  H2  UNL     1     117.284  41.652  43.825  1.00  0.00     0.203 HD
HETATM    9  N4  UNL     1     116.580  41.821  47.009  1.00  0.00    -0.022 N 
HETATM   10  C5  UNL     1     115.216  41.834  46.949  1.00  0.00     0.707 A 
ATOM     11  H4  UNL     1     117.055  41.860  47.911  1.00  0.00     0.203 HD
HETATM   12  N6  UNL     1     114.672  41.779  45.709  1.00  0.00    -0.021 N 
ATOM     13  H6  UNL     1     113.656  41.788  45.633  1.00  0.00     0.203 HD
BRANCH   7  14
HETATM   14  N3  UNL     1     118.598  41.744  45.964  1.00  0.00    -0.234 N 
ATOM     15  H32 UNL     1     119.121  42.443  45.438  1.00  0.00     0.174 HD
ATOM     16  H31 UNL     1     119.056  41.047  46.551  1.00  0.00     0.174 HD
ENDBRANCH   7  14
BRANCH  10  17
HETATM   17  N5  UNL     1     114.505  41.896  47.998  1.00  0.00    -0.225 N 
ATOM     18  H5  UNL     1     113.703  42.525  47.951  1.00  0.00     0.177 HD
BRANCH  17  19
HETATM   19  C6  UNL     1     114.674  41.207  49.233  1.00  0.00     0.138 C 
BRANCH  19  20
HETATM   20  C7  UNL     1     114.608  42.048  50.451  1.00  0.00     0.020 C 
BRANCH  20  21
HETATM   21  C8  UNL     1     114.912  43.457  50.342  1.00  0.00     0.002 C 
BRANCH  21  22
HETATM   22  C9  UNL     1     113.966  44.486  50.777  1.00  0.00     0.000 C 
BRANCH  22  23
HETATM   23  C10 UNL     1     113.575  44.589  52.183  1.00  0.00     0.000 C 
BRANCH  23  24
HETATM   24  C11 UNL     1     114.632  44.964  53.178  1.00  0.00     0.000 C 
BRANCH  24  25
HETATM   25  C12 UNL     1     114.981  44.057  54.258  1.00  0.00     0.000 C 
BRANCH  25  26
HETATM   26  C13 UNL     1     114.868  42.589  54.162  1.00  0.00    -0.000 C 
BRANCH  26  27
HETATM   27  C14 UNL     1     116.290  42.076  53.787  1.00  0.00    -0.005 C 
HETATM   28  C15 UNL     1     116.229  40.623  53.446  1.00  0.00     0.005 C 
ENDBRANCH  26  27
ENDBRANCH  25  26
ENDBRANCH  24  25
ENDBRANCH  23  24
ENDBRANCH  22  23
ENDBRANCH  21  22
ENDBRANCH  20  21
ENDBRANCH  19  20
ENDBRANCH  17  19
ENDBRANCH  10  17
ENDBRANCH   3   5
TORSDOF 12
ENDMDL
