MODEL 1
REMARK VINA RESULT: -7.480948658      0.000      0.000
REMARK  9 active torsions:
REMARK  status: ('A' for Active; 'I' for Inactive)
REMARK    1  A    between atoms: C2_2  and  C3_3 
REMARK    2  A    between atoms: C2_2  and  C23_35 
REMARK    3  A    between atoms: C3_3  and  N1_4 
REMARK    4  A    between atoms: N1_4  and  C4_7 
REMARK    5  A    between atoms: C4_7  and  C5_8 
REMARK    6  A    between atoms: C4_7  and  C19_31 
REMARK       I    between atoms: C5_8  and  N2_10 
REMARK    7  A    between atoms: N2_10  and  C6_12 
REMARK    8  A    between atoms: C13_22  and  C14_23 
REMARK       I    between atoms: C14_23  and  N4_25 
REMARK    9  A    between atoms: N4_25  and  C15_27 
ROOT
HETATM    1  C6  UNL     1     -44.836 -51.681  -7.638  1.00  0.00     0.179 C 
HETATM    2  C7  UNL     1     -45.583 -50.754  -6.702  1.00  0.00     0.069 C 
HETATM    3  C8  UNL     1     -45.402 -49.304  -6.856  1.00  0.00     0.147 C 
HETATM    4  O2  UNL     1     -44.364 -48.744  -6.095  1.00  0.00    -0.376 OA
HETATM    5  C9  UNL     1     -43.684 -47.785  -6.807  1.00  0.00     0.156 C 
HETATM    6  C10 UNL     1     -44.672 -47.467  -7.945  1.00  0.00     0.062 C 
HETATM    7  C11 UNL     1     -44.866 -48.932  -8.256  1.00  0.00     0.120 C 
HETATM    8  N3  UNL     1     -43.534 -49.582  -8.084  1.00  0.00    -0.327 N 
HETATM    9  C12 UNL     1     -43.630 -50.982  -8.225  1.00  0.00     0.244 C 
HETATM   10  O3  UNL     1     -42.722 -51.586  -8.819  1.00  0.00    -0.271 OA
HETATM   11  C13 UNL     1     -42.654 -48.515  -7.747  1.00  0.00     0.208 C 
ENDROOT
BRANCH   1  12
HETATM   12  N2  UNL     1     -45.661 -52.311  -8.605  1.00  0.00    -0.346 N 
HETATM   13  C5  UNL     1     -45.465 -53.674  -8.984  1.00  0.00     0.250 C 
HETATM   14  O1  UNL     1     -44.514 -54.283  -8.404  1.00  0.00    -0.271 OA
ATOM     15  H2  UNL     1     -46.414 -51.776  -9.040  1.00  0.00     0.163 HD
BRANCH  13  16
HETATM   16  C4  UNL     1     -46.280 -54.378  -9.969  1.00  0.00     0.284 C 
BRANCH  16  17
HETATM   17  N1  UNL     1     -46.394 -53.530 -11.164  1.00  0.00    -0.061 N 
ATOM     18  H12 UNL     1     -46.089 -52.575 -10.974  1.00  0.00     0.278 HD
ATOM     19  H11 UNL     1     -47.369 -53.342 -11.396  1.00  0.00     0.278 HD
BRANCH  17  20
HETATM   20  C3  UNL     1     -45.690 -54.093 -12.279  1.00  0.00     0.238 C 
BRANCH  20  21
HETATM   21  C2  UNL     1     -44.204 -53.784 -12.106  1.00  0.00     0.014 C 
HETATM   22  C1  UNL     1     -43.937 -52.308 -12.259  1.00  0.00     0.012 C 
BRANCH  21  23
HETATM   23  C23 UNL     1     -43.433 -54.623 -13.131  1.00  0.00    -0.047 C 
HETATM   24  C24 UNL     1     -44.443 -54.974 -14.227  1.00  0.00     0.015 C 
HETATM   25  C25 UNL     1     -43.016 -55.913 -12.460  1.00  0.00     0.015 C 
HETATM   26  C26 UNL     1     -42.275 -53.861 -13.719  1.00  0.00     0.015 C 
ENDBRANCH  21  23
ENDBRANCH  20  21
ENDBRANCH  17  20
ENDBRANCH  16  17
BRANCH  16  27
HETATM   27  C19 UNL     1     -47.696 -54.637  -9.524  1.00  0.00    -0.014 C 
HETATM   28  C20 UNL     1     -48.313 -55.745 -10.363  1.00  0.00     0.017 C 
HETATM   29  C21 UNL     1     -48.568 -53.412  -9.591  1.00  0.00     0.017 C 
HETATM   30  C22 UNL     1     -47.765 -55.133  -8.095  1.00  0.00     0.017 C 
ENDBRANCH  16  27
ENDBRANCH  13  16
ENDBRANCH   1  12
BRANCH  11  31
HETATM   31  C14 UNL     1     -42.220 -47.681  -8.852  1.00  0.00     0.243 C 
HETATM   32  O4  UNL     1     -41.928 -46.473  -8.696  1.00  0.00    -0.271 OA
HETATM   33  N4  UNL     1     -42.100 -48.182 -10.168  1.00  0.00    -0.355 N 
ATOM     34  H4  UNL     1     -42.340 -49.163 -10.305  1.00  0.00     0.162 HD
BRANCH  33  35
HETATM   35  C15 UNL     1     -41.680 -47.460 -11.327  1.00  0.00     0.084 C 
HETATM   36  C16 UNL     1     -42.165 -48.185 -12.580  1.00  0.00     0.025 C 
HETATM   37  C17 UNL     1     -40.861 -48.983 -12.500  1.00  0.00     0.004 C 
HETATM   38  C18 UNL     1     -40.274 -47.774 -11.807  1.00  0.00     0.025 C 
ENDBRANCH  33  35
ENDBRANCH  11  31
TORSDOF 9
ENDMDL
MODEL 2
REMARK VINA RESULT: -7.455144596      3.584      7.569
REMARK  9 active torsions:
REMARK  status: ('A' for Active; 'I' for Inactive)
REMARK    1  A    between atoms: C2_2  and  C3_3 
REMARK    2  A    between atoms: C2_2  and  C23_35 
REMARK    3  A    between atoms: C3_3  and  N1_4 
REMARK    4  A    between atoms: N1_4  and  C4_7 
REMARK    5  A    between atoms: C4_7  and  C5_8 
REMARK    6  A    between atoms: C4_7  and  C19_31 
REMARK       I    between atoms: C5_8  and  N2_10 
REMARK    7  A    between atoms: N2_10  and  C6_12 
REMARK    8  A    between atoms: C13_22  and  C14_23 
REMARK       I    between atoms: C14_23  and  N4_25 
REMARK    9  A    between atoms: N4_25  and  C15_27 
ROOT
HETATM    1  C6  UNL     1     -44.246 -47.625  -6.256  1.00  0.00     0.179 C 
HETATM    2  C7  UNL     1     -44.432 -46.132  -6.431  1.00  0.00     0.069 C 
HETATM    3  C8  UNL     1     -44.117 -45.533  -7.735  1.00  0.00     0.147 C 
HETATM    4  O2  UNL     1     -42.797 -45.081  -7.887  1.00  0.00    -0.376 OA
HETATM    5  C9  UNL     1     -42.315 -45.360  -9.143  1.00  0.00     0.156 C 
HETATM    6  C10 UNL     1     -43.609 -45.634  -9.932  1.00  0.00     0.062 C 
HETATM    7  C11 UNL     1     -44.116 -46.581  -8.870  1.00  0.00     0.120 C 
HETATM    8  N3  UNL     1     -42.930 -47.337  -8.374  1.00  0.00    -0.327 N 
HETATM    9  C12 UNL     1     -43.273 -48.162  -7.283  1.00  0.00     0.244 C 
HETATM   10  O3  UNL     1     -42.762 -49.291  -7.204  1.00  0.00    -0.271 OA
HETATM   11  C13 UNL     1     -41.845 -46.862  -9.162  1.00  0.00     0.208 C 
ENDROOT
BRANCH   1  12
HETATM   12  N2  UNL     1     -45.462 -48.351  -6.183  1.00  0.00    -0.346 N 
HETATM   13  C5  UNL     1     -46.080 -48.654  -4.930  1.00  0.00     0.250 C 
HETATM   14  O1  UNL     1     -45.478 -48.232  -3.895  1.00  0.00    -0.271 OA
ATOM     15  H2  UNL     1     -45.906 -48.666  -7.045  1.00  0.00     0.163 HD
BRANCH  13  16
HETATM   16  C4  UNL     1     -47.329 -49.394  -4.788  1.00  0.00     0.284 C 
BRANCH  16  17
HETATM   17  N1  UNL     1     -47.928 -49.044  -3.492  1.00  0.00    -0.061 N 
ATOM     18  H12 UNL     1     -47.212 -48.869  -2.786  1.00  0.00     0.278 HD
ATOM     19  H11 UNL     1     -48.381 -49.850  -3.062  1.00  0.00     0.278 HD
BRANCH  17  20
HETATM   20  C3  UNL     1     -48.831 -47.937  -3.610  1.00  0.00     0.238 C 
BRANCH  20  21
HETATM   21  C2  UNL     1     -48.450 -46.900  -2.556  1.00  0.00     0.014 C 
HETATM   22  C1  UNL     1     -49.245 -47.100  -1.289  1.00  0.00     0.012 C 
BRANCH  21  23
HETATM   23  C23 UNL     1     -48.670 -45.513  -3.167  1.00  0.00    -0.047 C 
HETATM   24  C24 UNL     1     -48.744 -44.543  -1.984  1.00  0.00     0.015 C 
HETATM   25  C25 UNL     1     -50.021 -45.511  -3.848  1.00  0.00     0.015 C 
HETATM   26  C26 UNL     1     -47.543 -45.122  -4.087  1.00  0.00     0.015 C 
ENDBRANCH  21  23
ENDBRANCH  20  21
ENDBRANCH  17  20
ENDBRANCH  16  17
BRANCH  16  27
HETATM   27  C19 UNL     1     -47.157 -50.891  -4.760  1.00  0.00    -0.014 C 
HETATM   28  C20 UNL     1     -48.379 -51.545  -4.136  1.00  0.00     0.017 C 
HETATM   29  C21 UNL     1     -45.921 -51.329  -4.022  1.00  0.00     0.017 C 
HETATM   30  C22 UNL     1     -47.057 -51.481  -6.151  1.00  0.00     0.017 C 
ENDBRANCH  16  27
ENDBRANCH  13  16
ENDBRANCH   1  12
BRANCH  11  31
HETATM   31  C14 UNL     1     -41.756 -47.400 -10.506  1.00  0.00     0.243 C 
HETATM   32  O4  UNL     1     -41.257 -46.747 -11.452  1.00  0.00    -0.271 OA
HETATM   33  N4  UNL     1     -42.227 -48.693 -10.829  1.00  0.00    -0.355 N 
ATOM     34  H4  UNL     1     -42.639 -49.231 -10.067  1.00  0.00     0.162 HD
BRANCH  33  35
HETATM   35  C15 UNL     1     -42.188 -49.327 -12.109  1.00  0.00     0.084 C 
HETATM   36  C16 UNL     1     -42.802 -50.721 -12.003  1.00  0.00     0.025 C 
HETATM   37  C17 UNL     1     -41.398 -51.201 -11.628  1.00  0.00     0.004 C 
HETATM   38  C18 UNL     1     -40.883 -50.033 -12.439  1.00  0.00     0.025 C 
ENDBRANCH  33  35
ENDBRANCH  11  31
TORSDOF 9
ENDMDL
MODEL 3
REMARK VINA RESULT: -7.415956219      2.143      7.508
REMARK  9 active torsions:
REMARK  status: ('A' for Active; 'I' for Inactive)
REMARK    1  A    between atoms: C2_2  and  C3_3 
REMARK    2  A    between atoms: C2_2  and  C23_35 
REMARK    3  A    between atoms: C3_3  and  N1_4 
REMARK    4  A    between atoms: N1_4  and  C4_7 
REMARK    5  A    between atoms: C4_7  and  C5_8 
REMARK    6  A    between atoms: C4_7  and  C19_31 
REMARK       I    between atoms: C5_8  and  N2_10 
REMARK    7  A    between atoms: N2_10  and  C6_12 
REMARK    8  A    between atoms: C13_22  and  C14_23 
REMARK       I    between atoms: C14_23  and  N4_25 
REMARK    9  A    between atoms: N4_25  and  C15_27 
ROOT
HETATM    1  C6  UNL     1     -45.250 -50.180  -9.585  1.00  0.00     0.179 C 
HETATM    2  C7  UNL     1     -45.988 -51.300  -8.882  1.00  0.00     0.069 C 
HETATM    3  C8  UNL     1     -45.711 -52.685  -9.283  1.00  0.00     0.147 C 
HETATM    4  O2  UNL     1     -46.531 -53.192 -10.303  1.00  0.00    -0.376 OA
HETATM    5  C9  UNL     1     -45.813 -53.964 -11.185  1.00  0.00     0.156 C 
HETATM    6  C10 UNL     1     -44.537 -54.271 -10.379  1.00  0.00     0.062 C 
HETATM    7  C11 UNL     1     -44.356 -52.817 -10.013  1.00  0.00     0.120 C 
HETATM    8  N3  UNL     1     -44.754 -52.024 -11.213  1.00  0.00    -0.327 N 
HETATM    9  C12 UNL     1     -44.747 -50.643 -10.935  1.00  0.00     0.244 C 
HETATM   10  O3  UNL     1     -44.332 -49.860 -11.805  1.00  0.00    -0.271 OA
HETATM   11  C13 UNL     1     -45.085 -53.001 -12.195  1.00  0.00     0.208 C 
ENDROOT
BRANCH   1  12
HETATM   12  N2  UNL     1     -44.260 -49.553  -8.786  1.00  0.00    -0.346 N 
HETATM   13  C5  UNL     1     -44.289 -48.149  -8.521  1.00  0.00     0.250 C 
HETATM   14  O1  UNL     1     -45.251 -47.503  -9.039  1.00  0.00    -0.271 OA
ATOM     15  H2  UNL     1     -43.508 -50.118  -8.392  1.00  0.00     0.163 HD
BRANCH  13  16
HETATM   16  C4  UNL     1     -43.303 -47.447  -7.707  1.00  0.00     0.284 C 
BRANCH  16  17
HETATM   17  N1  UNL     1     -42.000 -47.534  -8.384  1.00  0.00    -0.061 N 
ATOM     18  H12 UNL     1     -41.962 -48.332  -9.018  1.00  0.00     0.278 HD
ATOM     19  H11 UNL     1     -41.262 -47.809  -7.737  1.00  0.00     0.278 HD
BRANCH  17  20
HETATM   20  C3  UNL     1     -41.675 -46.311  -9.060  1.00  0.00     0.238 C 
BRANCH  20  21
HETATM   21  C2  UNL     1     -41.598 -46.604 -10.556  1.00  0.00     0.014 C 
HETATM   22  C1  UNL     1     -41.445 -48.082 -10.812  1.00  0.00     0.012 C 
BRANCH  21  23
HETATM   23  C23 UNL     1     -40.431 -45.792 -11.129  1.00  0.00    -0.047 C 
HETATM   24  C24 UNL     1     -39.811 -45.056  -9.938  1.00  0.00     0.015 C 
HETATM   25  C25 UNL     1     -41.002 -44.751 -12.066  1.00  0.00     0.015 C 
HETATM   26  C26 UNL     1     -39.403 -46.677 -11.783  1.00  0.00     0.015 C 
ENDBRANCH  21  23
ENDBRANCH  20  21
ENDBRANCH  17  20
ENDBRANCH  16  17
BRANCH  16  27
HETATM   27  C19 UNL     1     -43.087 -48.051  -6.344  1.00  0.00    -0.014 C 
HETATM   28  C20 UNL     1     -42.648 -49.501  -6.477  1.00  0.00     0.017 C 
HETATM   29  C21 UNL     1     -44.308 -47.975  -5.466  1.00  0.00     0.017 C 
HETATM   30  C22 UNL     1     -41.971 -47.365  -5.585  1.00  0.00     0.017 C 
ENDBRANCH  16  27
ENDBRANCH  13  16
ENDBRANCH   1  12
BRANCH  11  31
HETATM   31  C14 UNL     1     -43.962 -53.635 -12.859  1.00  0.00     0.243 C 
HETATM   32  O4  UNL     1     -42.823 -53.113 -12.881  1.00  0.00    -0.271 OA
HETATM   33  N4  UNL     1     -44.085 -54.879 -13.518  1.00  0.00    -0.355 N 
ATOM     34  H4  UNL     1     -45.009 -55.309 -13.508  1.00  0.00     0.162 HD
BRANCH  33  35
HETATM   35  C15 UNL     1     -43.053 -55.597 -14.198  1.00  0.00     0.084 C 
HETATM   36  C16 UNL     1     -43.053 -55.209 -15.675  1.00  0.00     0.025 C 
HETATM   37  C17 UNL     1     -44.077 -56.331 -15.866  1.00  0.00     0.004 C 
HETATM   38  C18 UNL     1     -43.438 -56.991 -14.664  1.00  0.00     0.025 C 
ENDBRANCH  33  35
ENDBRANCH  11  31
TORSDOF 9
ENDMDL
MODEL 4
REMARK VINA RESULT: -7.360255861      1.521      2.167
REMARK  9 active torsions:
REMARK  status: ('A' for Active; 'I' for Inactive)
REMARK    1  A    between atoms: C2_2  and  C3_3 
REMARK    2  A    between atoms: C2_2  and  C23_35 
REMARK    3  A    between atoms: C3_3  and  N1_4 
REMARK    4  A    between atoms: N1_4  and  C4_7 
REMARK    5  A    between atoms: C4_7  and  C5_8 
REMARK    6  A    between atoms: C4_7  and  C19_31 
REMARK       I    between atoms: C5_8  and  N2_10 
REMARK    7  A    between atoms: N2_10  and  C6_12 
REMARK    8  A    between atoms: C13_22  and  C14_23 
REMARK       I    between atoms: C14_23  and  N4_25 
REMARK    9  A    between atoms: N4_25  and  C15_27 
ROOT
HETATM    1  C6  UNL     1     -44.752 -51.338  -7.305  1.00  0.00     0.179 C 
HETATM    2  C7  UNL     1     -45.714 -50.606  -6.392  1.00  0.00     0.069 C 
HETATM    3  C8  UNL     1     -45.579 -49.150  -6.251  1.00  0.00     0.147 C 
HETATM    4  O2  UNL     1     -44.739 -48.721  -5.212  1.00  0.00    -0.376 OA
HETATM    5  C9  UNL     1     -43.983 -47.640  -5.594  1.00  0.00     0.156 C 
HETATM    6  C10 UNL     1     -44.744 -47.136  -6.834  1.00  0.00     0.062 C 
HETATM    7  C11 UNL     1     -44.799 -48.524  -7.428  1.00  0.00     0.120 C 
HETATM    8  N3  UNL     1     -43.495 -49.175  -7.107  1.00  0.00    -0.327 N 
HETATM    9  C12 UNL     1     -43.491 -50.527  -7.505  1.00  0.00     0.244 C 
HETATM   10  O3  UNL     1     -42.455 -51.000  -8.000  1.00  0.00    -0.271 OA
HETATM   11  C13 UNL     1     -42.753 -48.173  -6.419  1.00  0.00     0.208 C 
ENDROOT
BRANCH   1  12
HETATM   12  N2  UNL     1     -45.339 -51.795  -8.512  1.00  0.00    -0.346 N 
HETATM   13  C5  UNL     1     -45.021 -53.074  -9.064  1.00  0.00     0.250 C 
HETATM   14  O1  UNL     1     -44.187 -53.772  -8.409  1.00  0.00    -0.271 OA
ATOM     15  H2  UNL     1     -46.006 -51.195  -8.999  1.00  0.00     0.163 HD
BRANCH  13  16
HETATM   16  C4  UNL     1     -45.591 -53.600 -10.299  1.00  0.00     0.284 C 
BRANCH  16  17
HETATM   17  N1  UNL     1     -45.741 -52.489 -11.249  1.00  0.00    -0.061 N 
ATOM     18  H12 UNL     1     -45.945 -51.612 -10.768  1.00  0.00     0.278 HD
ATOM     19  H11 UNL     1     -46.599 -52.575 -11.792  1.00  0.00     0.278 HD
BRANCH  17  20
HETATM   20  C3  UNL     1     -44.593 -52.364 -12.100  1.00  0.00     0.238 C 
BRANCH  20  21
HETATM   21  C2  UNL     1     -43.690 -51.278 -11.522  1.00  0.00     0.014 C 
HETATM   22  C1  UNL     1     -44.397 -49.946 -11.490  1.00  0.00     0.012 C 
BRANCH  21  23
HETATM   23  C23 UNL     1     -42.413 -51.236 -12.368  1.00  0.00    -0.047 C 
HETATM   24  C24 UNL     1     -41.251 -51.291 -11.372  1.00  0.00     0.015 C 
HETATM   25  C25 UNL     1     -42.357 -49.895 -13.065  1.00  0.00     0.015 C 
HETATM   26  C26 UNL     1     -42.334 -52.401 -13.320  1.00  0.00     0.015 C 
ENDBRANCH  21  23
ENDBRANCH  20  21
ENDBRANCH  17  20
ENDBRANCH  16  17
BRANCH  16  27
HETATM   27  C19 UNL     1     -46.973 -54.181 -10.140  1.00  0.00    -0.014 C 
HETATM   28  C20 UNL     1     -47.414 -54.842 -11.436  1.00  0.00     0.017 C 
HETATM   29  C21 UNL     1     -47.997 -53.159  -9.725  1.00  0.00     0.017 C 
HETATM   30  C22 UNL     1     -47.016 -55.278  -9.098  1.00  0.00     0.017 C 
ENDBRANCH  16  27
ENDBRANCH  13  16
ENDBRANCH   1  12
BRANCH  11  31
HETATM   31  C14 UNL     1     -42.154 -47.148  -7.251  1.00  0.00     0.243 C 
HETATM   32  O4  UNL     1     -41.735 -46.067  -6.775  1.00  0.00    -0.271 OA
HETATM   33  N4  UNL     1     -42.006 -47.306  -8.648  1.00  0.00    -0.355 N 
ATOM     34  H4  UNL     1     -42.347 -48.181  -9.045  1.00  0.00     0.162 HD
BRANCH  33  35
HETATM   35  C15 UNL     1     -41.429 -46.372  -9.562  1.00  0.00     0.084 C 
HETATM   36  C16 UNL     1     -42.542 -45.609 -10.278  1.00  0.00     0.025 C 
HETATM   37  C17 UNL     1     -42.527 -46.748 -11.300  1.00  0.00     0.004 C 
HETATM   38  C18 UNL     1     -41.074 -46.940 -10.926  1.00  0.00     0.025 C 
ENDBRANCH  33  35
ENDBRANCH  11  31
TORSDOF 9
ENDMDL
MODEL 5
REMARK VINA RESULT: -7.330409811      1.264      1.539
REMARK  9 active torsions:
REMARK  status: ('A' for Active; 'I' for Inactive)
REMARK    1  A    between atoms: C2_2  and  C3_3 
REMARK    2  A    between atoms: C2_2  and  C23_35 
REMARK    3  A    between atoms: C3_3  and  N1_4 
REMARK    4  A    between atoms: N1_4  and  C4_7 
REMARK    5  A    between atoms: C4_7  and  C5_8 
REMARK    6  A    between atoms: C4_7  and  C19_31 
REMARK       I    between atoms: C5_8  and  N2_10 
REMARK    7  A    between atoms: N2_10  and  C6_12 
REMARK    8  A    between atoms: C13_22  and  C14_23 
REMARK       I    between atoms: C14_23  and  N4_25 
REMARK    9  A    between atoms: N4_25  and  C15_27 
ROOT
HETATM    1  C6  UNL     1     -44.634 -51.674  -7.768  1.00  0.00     0.179 C 
HETATM    2  C7  UNL     1     -45.308 -50.818  -6.716  1.00  0.00     0.069 C 
HETATM    3  C8  UNL     1     -45.196 -49.357  -6.820  1.00  0.00     0.147 C 
HETATM    4  O2  UNL     1     -44.103 -48.789  -6.148  1.00  0.00    -0.376 OA
HETATM    5  C9  UNL     1     -43.538 -47.773  -6.883  1.00  0.00     0.156 C 
HETATM    6  C10 UNL     1     -44.654 -47.447  -7.893  1.00  0.00     0.062 C 
HETATM    7  C11 UNL     1     -44.827 -48.904  -8.250  1.00  0.00     0.120 C 
HETATM    8  N3  UNL     1     -43.463 -49.507  -8.250  1.00  0.00    -0.327 N 
HETATM    9  C12 UNL     1     -43.523 -50.902  -8.446  1.00  0.00     0.244 C 
HETATM   10  O3  UNL     1     -42.663 -51.443  -9.160  1.00  0.00    -0.271 OA
HETATM   11  C13 UNL     1     -42.590 -48.421  -7.959  1.00  0.00     0.208 C 
ENDROOT
BRANCH   1  12
HETATM   12  N2  UNL     1     -45.535 -52.294  -8.670  1.00  0.00    -0.346 N 
HETATM   13  C5  UNL     1     -45.416 -53.675  -9.019  1.00  0.00     0.250 C 
HETATM   14  O1  UNL     1     -44.460 -54.307  -8.472  1.00  0.00    -0.271 OA
ATOM     15  H2  UNL     1     -46.287 -51.741  -9.081  1.00  0.00     0.163 HD
BRANCH  13  16
HETATM   16  C4  UNL     1     -46.310 -54.370  -9.937  1.00  0.00     0.284 C 
BRANCH  16  17
HETATM   17  N1  UNL     1     -46.425 -53.570 -11.165  1.00  0.00    -0.061 N 
ATOM     18  H12 UNL     1     -46.117 -52.609 -11.013  1.00  0.00     0.278 HD
ATOM     19  H11 UNL     1     -47.399 -53.389 -11.402  1.00  0.00     0.278 HD
BRANCH  17  20
HETATM   20  C3  UNL     1     -45.723 -54.179 -12.258  1.00  0.00     0.238 C 
BRANCH  20  21
HETATM   21  C2  UNL     1     -44.249 -53.798 -12.145  1.00  0.00     0.014 C 
HETATM   22  C1  UNL     1     -44.057 -52.315 -12.339  1.00  0.00     0.012 C 
BRANCH  21  23
HETATM   23  C23 UNL     1     -43.476 -54.624 -13.179  1.00  0.00    -0.047 C 
HETATM   24  C24 UNL     1     -44.501 -55.023 -14.245  1.00  0.00     0.015 C 
HETATM   25  C25 UNL     1     -42.999 -55.890 -12.504  1.00  0.00     0.015 C 
HETATM   26  C26 UNL     1     -42.359 -53.831 -13.806  1.00  0.00     0.015 C 
ENDBRANCH  21  23
ENDBRANCH  20  21
ENDBRANCH  17  20
ENDBRANCH  16  17
BRANCH  16  27
HETATM   27  C19 UNL     1     -47.720 -54.523  -9.426  1.00  0.00    -0.014 C 
HETATM   28  C20 UNL     1     -48.424 -55.650 -10.164  1.00  0.00     0.017 C 
HETATM   29  C21 UNL     1     -48.531 -53.261  -9.546  1.00  0.00     0.017 C 
HETATM   30  C22 UNL     1     -47.758 -54.918  -7.965  1.00  0.00     0.017 C 
ENDBRANCH  16  27
ENDBRANCH  13  16
ENDBRANCH   1  12
BRANCH  11  31
HETATM   31  C14 UNL     1     -42.307 -47.523  -9.064  1.00  0.00     0.243 C 
HETATM   32  O4  UNL     1     -42.578 -47.824 -10.249  1.00  0.00    -0.271 OA
HETATM   33  N4  UNL     1     -41.710 -46.258  -8.868  1.00  0.00    -0.355 N 
ATOM     34  H4  UNL     1     -41.482 -46.006  -7.906  1.00  0.00     0.162 HD
BRANCH  33  35
HETATM   35  C15 UNL     1     -41.391 -45.293  -9.873  1.00  0.00     0.084 C 
HETATM   36  C16 UNL     1     -40.088 -45.691 -10.563  1.00  0.00     0.025 C 
HETATM   37  C17 UNL     1     -39.380 -44.901  -9.459  1.00  0.00     0.004 C 
HETATM   38  C18 UNL     1     -40.641 -44.069  -9.377  1.00  0.00     0.025 C 
ENDBRANCH  33  35
ENDBRANCH  11  31
TORSDOF 9
ENDMDL
