MODEL 1
REMARK VINA RESULT: -8.149444486      0.000      0.000
REMARK  8 active torsions:
REMARK  status: ('A' for Active; 'I' for Inactive)
REMARK    1  A    between atoms: C2_2  and  N1_3 
REMARK    2  A    between atoms: C2_2  and  C3_11 
REMARK    3  A    between atoms: N1_3  and  S1_5 
REMARK    4  A    between atoms: S1_5  and  N2_6 
REMARK       I    between atoms: C3_11  and  N3_13 
REMARK    5  A    between atoms: N3_13  and  C4_15 
REMARK    6  A    between atoms: N4_24  and  C13_25 
REMARK    7  A    between atoms: C13_25  and  C14_26 
REMARK    8  A    between atoms: N5_31  and  C18_32 
ROOT
HETATM    1  C4  UNL     1     -43.444 -46.370  -6.959  1.00  0.00     0.090 C 
HETATM    2  C5  UNL     1     -42.088 -45.753  -7.328  1.00  0.00     0.026 C 
HETATM    3  C6  UNL     1     -41.925 -45.942  -8.822  1.00  0.00     0.007 C 
HETATM    4  C7  UNL     1     -42.621 -47.292  -8.989  1.00  0.00    -0.004 C 
HETATM    5  C8  UNL     1     -42.982 -47.589 -10.393  1.00  0.00     0.030 C 
HETATM    6  C9  UNL     1     -43.891 -48.776 -10.454  1.00  0.00     0.091 C 
HETATM    7  C10 UNL     1     -45.156 -48.443  -9.662  1.00  0.00     0.051 C 
HETATM    8  C11 UNL     1     -44.765 -48.166  -8.193  1.00  0.00     0.097 C 
HETATM    9  C12 UNL     1     -43.892 -46.988  -8.231  1.00  0.00     0.035 C 
HETATM   10  N4  UNL     1     -44.185 -49.402  -7.724  1.00  0.00    -0.328 N 
HETATM   11  C17 UNL     1     -43.355 -50.220  -8.531  1.00  0.00     0.321 C 
HETATM   12  O4  UNL     1     -42.671 -51.123  -8.003  1.00  0.00    -0.247 OA
HETATM   13  N5  UNL     1     -43.314 -49.998  -9.931  1.00  0.00    -0.325 N 
ENDROOT
BRANCH   1  14
HETATM   14  N3  UNL     1     -44.383 -45.292  -6.623  1.00  0.00    -0.354 N 
HETATM   15  C3  UNL     1     -45.450 -45.502  -5.711  1.00  0.00     0.241 C 
HETATM   16  O3  UNL     1     -45.613 -46.632  -5.169  1.00  0.00    -0.271 OA
ATOM     17  H3  UNL     1     -44.265 -44.374  -7.052  1.00  0.00     0.162 HD
BRANCH  15  18
HETATM   18  C2  UNL     1     -46.393 -44.419  -5.373  1.00  0.00     0.182 C 
HETATM   19  C1  UNL     1     -45.949 -43.134  -6.072  1.00  0.00     0.043 C 
BRANCH  18  20
HETATM   20  N1  UNL     1     -46.515 -44.248  -3.957  1.00  0.00    -0.290 N 
ATOM     21  H1  UNL     1     -45.863 -43.695  -3.402  1.00  0.00     0.174 HD
BRANCH  20  22
HETATM   22  S1  UNL     1     -47.863 -45.063  -3.283  1.00  0.00     0.313 S 
HETATM   23  O1  UNL     1     -48.614 -44.192  -2.310  1.00  0.00    -0.183 OA
HETATM   24  O2  UNL     1     -47.431 -46.348  -2.641  1.00  0.00    -0.183 OA
BRANCH  22  25
HETATM   25  N2  UNL     1     -48.947 -45.464  -4.566  1.00  0.00    -0.312 N 
ATOM     26  H22 UNL     1     -49.161 -46.411  -4.879  1.00  0.00     0.170 HD
ATOM     27  H21 UNL     1     -49.326 -44.597  -4.945  1.00  0.00     0.170 HD
ENDBRANCH  22  25
ENDBRANCH  20  22
ENDBRANCH  18  20
ENDBRANCH  15  18
ENDBRANCH   1  14
BRANCH  10  28
HETATM   28  C13 UNL     1     -44.459 -49.849  -6.379  1.00  0.00     0.132 C 
BRANCH  28  29
HETATM   29  C14 UNL     1     -45.887 -50.260  -6.169  1.00  0.00     0.004 A 
HETATM   30  C15 UNL     1     -46.425 -51.583  -6.475  1.00  0.00     0.007 A 
HETATM   31  C16 UNL     1     -46.179 -51.224  -5.047  1.00  0.00     0.007 A 
ENDBRANCH  28  29
ENDBRANCH  10  28
BRANCH  13  32
HETATM   32  C18 UNL     1     -42.700 -51.000 -10.771  1.00  0.00     0.089 C 
HETATM   33  C19 UNL     1     -42.231 -50.446 -12.103  1.00  0.00     0.025 C 
HETATM   34  C20 UNL     1     -41.645 -51.658 -12.840  1.00  0.00     0.002 C 
HETATM   35  C21 UNL     1     -42.834 -52.433 -13.363  1.00  0.00     0.000 C 
HETATM   36  C22 UNL     1     -43.990 -52.370 -12.422  1.00  0.00     0.002 C 
HETATM   37  C23 UNL     1     -43.603 -52.200 -10.970  1.00  0.00     0.025 C 
ENDBRANCH  13  32
TORSDOF 8
ENDMDL
MODEL 2
REMARK VINA RESULT: -8.130742518      2.134      2.827
REMARK  8 active torsions:
REMARK  status: ('A' for Active; 'I' for Inactive)
REMARK    1  A    between atoms: C2_2  and  N1_3 
REMARK    2  A    between atoms: C2_2  and  C3_11 
REMARK    3  A    between atoms: N1_3  and  S1_5 
REMARK    4  A    between atoms: S1_5  and  N2_6 
REMARK       I    between atoms: C3_11  and  N3_13 
REMARK    5  A    between atoms: N3_13  and  C4_15 
REMARK    6  A    between atoms: N4_24  and  C13_25 
REMARK    7  A    between atoms: C13_25  and  C14_26 
REMARK    8  A    between atoms: N5_31  and  C18_32 
ROOT
HETATM    1  C4  UNL     1     -43.574 -48.369  -5.730  1.00  0.00     0.090 C 
HETATM    2  C5  UNL     1     -42.182 -47.771  -5.490  1.00  0.00     0.026 C 
HETATM    3  C6  UNL     1     -41.882 -46.893  -6.688  1.00  0.00     0.007 C 
HETATM    4  C7  UNL     1     -42.578 -47.701  -7.781  1.00  0.00    -0.004 C 
HETATM    5  C8  UNL     1     -42.810 -46.924  -9.019  1.00  0.00     0.030 C 
HETATM    6  C9  UNL     1     -43.726 -47.673  -9.936  1.00  0.00     0.091 C 
HETATM    7  C10 UNL     1     -45.054 -47.882  -9.209  1.00  0.00     0.051 C 
HETATM    8  C11 UNL     1     -44.799 -48.721  -7.936  1.00  0.00     0.097 C 
HETATM    9  C12 UNL     1     -43.910 -47.909  -7.099  1.00  0.00     0.035 C 
HETATM   10  N4  UNL     1     -44.281 -49.979  -8.419  1.00  0.00    -0.328 N 
HETATM   11  C17 UNL     1     -43.392 -50.077  -9.518  1.00  0.00     0.321 C 
HETATM   12  O4  UNL     1     -42.772 -51.144  -9.722  1.00  0.00    -0.247 OA
HETATM   13  N5  UNL     1     -43.217 -48.958 -10.371  1.00  0.00    -0.325 N 
ENDROOT
BRANCH   1  14
HETATM   14  N3  UNL     1     -44.525 -47.752  -4.797  1.00  0.00    -0.354 N 
HETATM   15  C3  UNL     1     -45.676 -48.451  -4.347  1.00  0.00     0.241 C 
HETATM   16  O3  UNL     1     -45.904 -49.629  -4.747  1.00  0.00    -0.271 OA
ATOM     17  H3  UNL     1     -44.356 -46.803  -4.465  1.00  0.00     0.162 HD
BRANCH  15  18
HETATM   18  C2  UNL     1     -46.631 -47.831  -3.410  1.00  0.00     0.182 C 
HETATM   19  C1  UNL     1     -47.060 -48.869  -2.373  1.00  0.00     0.043 C 
BRANCH  18  20
HETATM   20  N1  UNL     1     -47.749 -47.259  -4.097  1.00  0.00    -0.290 N 
ATOM     21  H1  UNL     1     -48.398 -47.807  -4.660  1.00  0.00     0.174 HD
BRANCH  20  22
HETATM   22  S1  UNL     1     -47.893 -45.566  -3.882  1.00  0.00     0.313 S 
HETATM   23  O1  UNL     1     -47.290 -45.114  -2.578  1.00  0.00    -0.183 OA
HETATM   24  O2  UNL     1     -49.328 -45.143  -3.994  1.00  0.00    -0.183 OA
BRANCH  22  25
HETATM   25  N2  UNL     1     -47.023 -44.786  -5.155  1.00  0.00    -0.312 N 
ATOM     26  H22 UNL     1     -46.200 -45.166  -5.621  1.00  0.00     0.170 HD
ATOM     27  H21 UNL     1     -47.477 -43.894  -5.349  1.00  0.00     0.170 HD
ENDBRANCH  22  25
ENDBRANCH  20  22
ENDBRANCH  18  20
ENDBRANCH  15  18
ENDBRANCH   1  14
BRANCH  10  28
HETATM   28  C13 UNL     1     -44.686 -51.207  -7.775  1.00  0.00     0.132 C 
BRANCH  28  29
HETATM   29  C14 UNL     1     -46.111 -51.584  -8.057  1.00  0.00     0.004 A 
HETATM   30  C15 UNL     1     -46.654 -51.850  -9.386  1.00  0.00     0.007 A 
HETATM   31  C16 UNL     1     -46.388 -53.005  -8.478  1.00  0.00     0.007 A 
ENDBRANCH  28  29
ENDBRANCH  10  28
BRANCH  13  32
HETATM   32  C18 UNL     1     -42.541 -49.150 -11.633  1.00  0.00     0.089 C 
HETATM   33  C19 UNL     1     -41.614 -50.351 -11.628  1.00  0.00     0.025 C 
HETATM   34  C20 UNL     1     -40.986 -50.359 -13.029  1.00  0.00     0.002 C 
HETATM   35  C21 UNL     1     -39.916 -49.291 -13.003  1.00  0.00     0.000 C 
HETATM   36  C22 UNL     1     -40.315 -48.130 -12.155  1.00  0.00     0.002 C 
HETATM   37  C23 UNL     1     -41.808 -47.900 -12.076  1.00  0.00     0.025 C 
ENDBRANCH  13  32
TORSDOF 8
ENDMDL
MODEL 3
REMARK VINA RESULT: -8.104260479      3.804      5.547
REMARK  8 active torsions:
REMARK  status: ('A' for Active; 'I' for Inactive)
REMARK    1  A    between atoms: C2_2  and  N1_3 
REMARK    2  A    between atoms: C2_2  and  C3_11 
REMARK    3  A    between atoms: N1_3  and  S1_5 
REMARK    4  A    between atoms: S1_5  and  N2_6 
REMARK       I    between atoms: C3_11  and  N3_13 
REMARK    5  A    between atoms: N3_13  and  C4_15 
REMARK    6  A    between atoms: N4_24  and  C13_25 
REMARK    7  A    between atoms: C13_25  and  C14_26 
REMARK    8  A    between atoms: N5_31  and  C18_32 
ROOT
HETATM    1  C4  UNL     1     -41.947 -50.125 -10.805  1.00  0.00     0.090 C 
HETATM    2  C5  UNL     1     -40.974 -50.822 -11.765  1.00  0.00     0.026 C 
HETATM    3  C6  UNL     1     -41.826 -51.581 -12.761  1.00  0.00     0.007 C 
HETATM    4  C7  UNL     1     -42.983 -51.991 -11.852  1.00  0.00    -0.004 C 
HETATM    5  C8  UNL     1     -44.186 -52.418 -12.600  1.00  0.00     0.030 C 
HETATM    6  C9  UNL     1     -45.356 -52.540 -11.674  1.00  0.00     0.091 C 
HETATM    7  C10 UNL     1     -45.607 -51.168 -11.048  1.00  0.00     0.051 C 
HETATM    8  C11 UNL     1     -44.354 -50.751 -10.246  1.00  0.00     0.097 C 
HETATM    9  C12 UNL     1     -43.271 -50.645 -11.229  1.00  0.00     0.035 C 
HETATM   10  N4  UNL     1     -44.217 -51.758  -9.221  1.00  0.00    -0.328 N 
HETATM   11  C17 UNL     1     -44.482 -53.132  -9.448  1.00  0.00     0.321 C 
HETATM   12  O4  UNL     1     -44.095 -53.984  -8.620  1.00  0.00    -0.247 OA
HETATM   13  N5  UNL     1     -45.184 -53.518 -10.619  1.00  0.00    -0.325 N 
ENDROOT
BRANCH   1  14
HETATM   14  N3  UNL     1     -41.922 -48.680 -11.066  1.00  0.00    -0.354 N 
HETATM   15  C3  UNL     1     -42.123 -47.739 -10.022  1.00  0.00     0.241 C 
HETATM   16  O3  UNL     1     -42.331 -48.134  -8.839  1.00  0.00    -0.271 OA
ATOM     17  H3  UNL     1     -41.756 -48.347 -12.015  1.00  0.00     0.162 HD
BRANCH  15  18
HETATM   18  C2  UNL     1     -42.097 -46.288 -10.284  1.00  0.00     0.182 C 
HETATM   19  C1  UNL     1     -41.889 -46.054 -11.780  1.00  0.00     0.043 C 
BRANCH  18  20
HETATM   20  N1  UNL     1     -41.105 -45.626  -9.491  1.00  0.00    -0.290 N 
ATOM     21  H1  UNL     1     -40.141 -45.499  -9.795  1.00  0.00     0.174 HD
BRANCH  20  22
HETATM   22  S1  UNL     1     -41.695 -45.069  -7.983  1.00  0.00     0.313 S 
HETATM   23  O1  UNL     1     -43.199 -45.001  -7.960  1.00  0.00    -0.183 OA
HETATM   24  O2  UNL     1     -41.086 -43.741  -7.640  1.00  0.00    -0.183 OA
BRANCH  22  25
HETATM   25  N2  UNL     1     -41.206 -46.191  -6.765  1.00  0.00    -0.312 N 
ATOM     26  H22 UNL     1     -40.498 -46.916  -6.885  1.00  0.00     0.170 HD
ATOM     27  H21 UNL     1     -41.745 -45.999  -5.921  1.00  0.00     0.170 HD
ENDBRANCH  22  25
ENDBRANCH  20  22
ENDBRANCH  18  20
ENDBRANCH  15  18
ENDBRANCH   1  14
BRANCH  10  28
HETATM   28  C13 UNL     1     -43.804 -51.368  -7.893  1.00  0.00     0.132 C 
BRANCH  28  29
HETATM   29  C14 UNL     1     -44.783 -50.459  -7.209  1.00  0.00     0.004 A 
HETATM   30  C15 UNL     1     -45.200 -50.584  -5.815  1.00  0.00     0.007 A 
HETATM   31  C16 UNL     1     -44.244 -49.498  -6.181  1.00  0.00     0.007 A 
ENDBRANCH  28  29
ENDBRANCH  10  28
BRANCH  13  32
HETATM   32  C18 UNL     1     -45.694 -54.866 -10.704  1.00  0.00     0.089 C 
HETATM   33  C19 UNL     1     -44.753 -55.808 -11.431  1.00  0.00     0.025 C 
HETATM   34  C20 UNL     1     -45.486 -57.158 -11.435  1.00  0.00     0.002 C 
HETATM   35  C21 UNL     1     -46.530 -57.052 -12.524  1.00  0.00     0.000 C 
HETATM   36  C22 UNL     1     -47.093 -55.674 -12.617  1.00  0.00     0.002 C 
HETATM   37  C23 UNL     1     -47.081 -54.906 -11.314  1.00  0.00     0.025 C 
ENDBRANCH  13  32
TORSDOF 8
ENDMDL
MODEL 4
REMARK VINA RESULT: -7.874344648      2.363      3.401
REMARK  8 active torsions:
REMARK  status: ('A' for Active; 'I' for Inactive)
REMARK    1  A    between atoms: C2_2  and  N1_3 
REMARK    2  A    between atoms: C2_2  and  C3_11 
REMARK    3  A    between atoms: N1_3  and  S1_5 
REMARK    4  A    between atoms: S1_5  and  N2_6 
REMARK       I    between atoms: C3_11  and  N3_13 
REMARK    5  A    between atoms: N3_13  and  C4_15 
REMARK    6  A    between atoms: N4_24  and  C13_25 
REMARK    7  A    between atoms: C13_25  and  C14_26 
REMARK    8  A    between atoms: N5_31  and  C18_32 
ROOT
HETATM    1  C4  UNL     1     -43.805 -48.287  -6.025  1.00  0.00     0.090 C 
HETATM    2  C5  UNL     1     -42.408 -48.336  -5.394  1.00  0.00     0.026 C 
HETATM    3  C6  UNL     1     -41.563 -47.330  -6.148  1.00  0.00     0.007 C 
HETATM    4  C7  UNL     1     -42.164 -47.482  -7.544  1.00  0.00    -0.004 C 
HETATM    5  C8  UNL     1     -41.828 -46.359  -8.446  1.00  0.00     0.030 C 
HETATM    6  C9  UNL     1     -42.658 -46.426  -9.689  1.00  0.00     0.091 C 
HETATM    7  C10 UNL     1     -44.128 -46.328  -9.281  1.00  0.00     0.051 C 
HETATM    8  C11 UNL     1     -44.470 -47.525  -8.364  1.00  0.00     0.097 C 
HETATM    9  C12 UNL     1     -43.625 -47.369  -7.177  1.00  0.00     0.035 C 
HETATM   10  N4  UNL     1     -44.248 -48.694  -9.182  1.00  0.00    -0.328 N 
HETATM   11  C17 UNL     1     -43.178 -48.798 -10.105  1.00  0.00     0.321 C 
HETATM   12  O4  UNL     1     -42.876 -49.913 -10.583  1.00  0.00    -0.247 OA
HETATM   13  N5  UNL     1     -42.464 -47.629 -10.473  1.00  0.00    -0.325 N 
ENDROOT
BRANCH   1  14
HETATM   14  N3  UNL     1     -44.733 -47.654  -5.080  1.00  0.00    -0.354 N 
HETATM   15  C3  UNL     1     -45.740 -48.406  -4.420  1.00  0.00     0.241 C 
HETATM   16  O3  UNL     1     -45.856 -49.647  -4.637  1.00  0.00    -0.271 OA
ATOM     17  H3  UNL     1     -44.653 -46.655  -4.894  1.00  0.00     0.162 HD
BRANCH  15  18
HETATM   18  C2  UNL     1     -46.672 -47.770  -3.470  1.00  0.00     0.182 C 
HETATM   19  C1  UNL     1     -47.070 -48.788  -2.402  1.00  0.00     0.043 C 
BRANCH  18  20
HETATM   20  N1  UNL     1     -47.810 -47.215  -4.139  1.00  0.00    -0.290 N 
ATOM     21  H1  UNL     1     -48.464 -47.775  -4.686  1.00  0.00     0.174 HD
BRANCH  20  22
HETATM   22  S1  UNL     1     -47.968 -45.522  -3.933  1.00  0.00     0.313 S 
HETATM   23  O1  UNL     1     -47.363 -45.058  -2.635  1.00  0.00    -0.183 OA
HETATM   24  O2  UNL     1     -49.408 -45.114  -4.038  1.00  0.00    -0.183 OA
BRANCH  22  25
HETATM   25  N2  UNL     1     -47.114 -44.742  -5.214  1.00  0.00    -0.312 N 
ATOM     26  H22 UNL     1     -47.427 -44.691  -6.184  1.00  0.00     0.170 HD
ATOM     27  H21 UNL     1     -46.254 -44.348  -4.830  1.00  0.00     0.170 HD
ENDBRANCH  22  25
ENDBRANCH  20  22
ENDBRANCH  18  20
ENDBRANCH  15  18
ENDBRANCH   1  14
BRANCH  10  28
HETATM   28  C13 UNL     1     -45.153 -49.814  -9.079  1.00  0.00     0.132 C 
BRANCH  28  29
HETATM   29  C14 UNL     1     -44.782 -50.779  -7.990  1.00  0.00     0.004 A 
HETATM   30  C15 UNL     1     -45.654 -51.833  -7.480  1.00  0.00     0.007 A 
HETATM   31  C16 UNL     1     -44.528 -52.213  -8.383  1.00  0.00     0.007 A 
ENDBRANCH  28  29
ENDBRANCH  10  28
BRANCH  13  32
HETATM   32  C18 UNL     1     -41.577 -47.692 -11.611  1.00  0.00     0.089 C 
HETATM   33  C19 UNL     1     -40.644 -48.887 -11.567  1.00  0.00     0.025 C 
HETATM   34  C20 UNL     1     -39.783 -48.752 -12.832  1.00  0.00     0.002 C 
HETATM   35  C21 UNL     1     -38.752 -47.692 -12.512  1.00  0.00     0.000 C 
HETATM   36  C22 UNL     1     -39.312 -46.624 -11.634  1.00  0.00     0.002 C 
HETATM   37  C23 UNL     1     -40.800 -46.403 -11.793  1.00  0.00     0.025 C 
ENDBRANCH  13  32
TORSDOF 8
ENDMDL
MODEL 5
REMARK VINA RESULT: -7.675593293      4.776      7.409
REMARK  8 active torsions:
REMARK  status: ('A' for Active; 'I' for Inactive)
REMARK    1  A    between atoms: C2_2  and  N1_3 
REMARK    2  A    between atoms: C2_2  and  C3_11 
REMARK    3  A    between atoms: N1_3  and  S1_5 
REMARK    4  A    between atoms: S1_5  and  N2_6 
REMARK       I    between atoms: C3_11  and  N3_13 
REMARK    5  A    between atoms: N3_13  and  C4_15 
REMARK    6  A    between atoms: N4_24  and  C13_25 
REMARK    7  A    between atoms: C13_25  and  C14_26 
REMARK    8  A    between atoms: N5_31  and  C18_32 
ROOT
HETATM    1  C4  UNL     1     -44.104 -51.862  -9.090  1.00  0.00     0.090 C 
HETATM    2  C5  UNL     1     -43.837 -51.413  -7.647  1.00  0.00     0.026 C 
HETATM    3  C6  UNL     1     -44.122 -49.925  -7.604  1.00  0.00     0.007 C 
HETATM    4  C7  UNL     1     -43.650 -49.531  -9.002  1.00  0.00    -0.004 C 
HETATM    5  C8  UNL     1     -44.148 -48.206  -9.431  1.00  0.00     0.030 C 
HETATM    6  C9  UNL     1     -43.885 -48.001 -10.890  1.00  0.00     0.091 C 
HETATM    7  C10 UNL     1     -44.623 -49.095 -11.661  1.00  0.00     0.051 C 
HETATM    8  C11 UNL     1     -44.070 -50.471 -11.224  1.00  0.00     0.097 C 
HETATM    9  C12 UNL     1     -44.382 -50.588  -9.796  1.00  0.00     0.035 C 
HETATM   10  N4  UNL     1     -42.674 -50.443 -11.593  1.00  0.00    -0.328 N 
HETATM   11  C17 UNL     1     -41.865 -49.287 -11.468  1.00  0.00     0.321 C 
HETATM   12  O4  UNL     1     -40.621 -49.388 -11.545  1.00  0.00    -0.247 OA
HETATM   13  N5  UNL     1     -42.483 -48.028 -11.254  1.00  0.00    -0.325 N 
ENDROOT
BRANCH   1  14
HETATM   14  N3  UNL     1     -45.328 -52.674  -9.118  1.00  0.00    -0.354 N 
HETATM   15  C3  UNL     1     -45.286 -54.079  -8.919  1.00  0.00     0.241 C 
HETATM   16  O3  UNL     1     -44.182 -54.661  -8.713  1.00  0.00    -0.271 OA
ATOM     17  H3  UNL     1     -46.225 -52.219  -9.283  1.00  0.00     0.162 HD
BRANCH  15  18
HETATM   18  C2  UNL     1     -46.515 -54.893  -8.947  1.00  0.00     0.182 C 
HETATM   19  C1  UNL     1     -46.134 -56.371  -9.019  1.00  0.00     0.043 C 
BRANCH  18  20
HETATM   20  N1  UNL     1     -47.381 -54.505 -10.019  1.00  0.00    -0.290 N 
ATOM     21  H1  UNL     1     -47.187 -54.717 -10.998  1.00  0.00     0.174 HD
BRANCH  20  22
HETATM   22  S1  UNL     1     -48.772 -53.651  -9.502  1.00  0.00     0.313 S 
HETATM   23  O1  UNL     1     -48.444 -52.237  -9.100  1.00  0.00    -0.183 OA
HETATM   24  O2  UNL     1     -49.456 -54.388  -8.389  1.00  0.00    -0.183 OA
BRANCH  22  25
HETATM   25  N2  UNL     1     -49.878 -53.571 -10.826  1.00  0.00    -0.312 N 
ATOM     26  H22 UNL     1     -50.195 -54.370 -11.375  1.00  0.00     0.170 HD
ATOM     27  H21 UNL     1     -50.151 -52.597 -10.954  1.00  0.00     0.170 HD
ENDBRANCH  22  25
ENDBRANCH  20  22
ENDBRANCH  18  20
ENDBRANCH  15  18
ENDBRANCH   1  14
BRANCH  10  28
HETATM   28  C13 UNL     1     -42.059 -51.635 -12.129  1.00  0.00     0.132 C 
BRANCH  28  29
HETATM   29  C14 UNL     1     -42.973 -52.430 -13.014  1.00  0.00     0.004 A 
HETATM   30  C15 UNL     1     -42.585 -53.633 -13.745  1.00  0.00     0.007 A 
HETATM   31  C16 UNL     1     -43.426 -53.780 -12.520  1.00  0.00     0.007 A 
ENDBRANCH  28  29
ENDBRANCH  10  28
BRANCH  13  32
HETATM   32  C18 UNL     1     -41.687 -46.833 -11.411  1.00  0.00     0.089 C 
HETATM   33  C19 UNL     1     -40.262 -47.005 -10.918  1.00  0.00     0.025 C 
HETATM   34  C20 UNL     1     -39.608 -45.634 -11.146  1.00  0.00     0.002 C 
HETATM   35  C21 UNL     1     -40.097 -44.755 -10.016  1.00  0.00     0.000 C 
HETATM   36  C22 UNL     1     -41.503 -45.077  -9.636  1.00  0.00     0.002 C 
HETATM   37  C23 UNL     1     -42.344 -45.630 -10.766  1.00  0.00     0.025 C 
ENDBRANCH  13  32
TORSDOF 8
ENDMDL
