MODEL 1
REMARK VINA RESULT: -7.299096118      0.000      0.000
REMARK  9 active torsions:
REMARK  status: ('A' for Active; 'I' for Inactive)
REMARK    1  A    between atoms: C2_2  and  C3_3 
REMARK    2  A    between atoms: C3_3  and  C5_5 
REMARK    3  A    between atoms: C5_5  and  N1_6 
REMARK    4  A    between atoms: C5_5  and  C9_13 
REMARK       I    between atoms: N1_6  and  C6_8 
REMARK       I    between atoms: C6_8  and  N2_10 
REMARK    5  A    between atoms: C9_13  and  O2_14 
REMARK    6  A    between atoms: C9_13  and  N3_16 
REMARK    7  A    between atoms: C10_17  and  C11_18 
REMARK       I    between atoms: C11_18  and  N4_20 
REMARK    8  A    between atoms: N4_20  and  C12_22 
REMARK    9  A    between atoms: C16_30  and  C17_31 
ROOT
HETATM    1  N3  UNL     1     -44.235 -48.810  -8.072  1.00  0.00    -0.341 N 
HETATM    2  C10 UNL     1     -44.842 -50.133  -7.765  1.00  0.00     0.184 C 
HETATM    3  C16 UNL     1     -44.774 -50.338  -6.309  1.00  0.00     0.027 C 
HETATM    4  C21 UNL     1     -44.033 -49.197  -5.721  1.00  0.00     0.038 C 
HETATM    5  C22 UNL     1     -43.572 -48.332  -6.902  1.00  0.00     0.028 C 
HETATM    6  C23 UNL     1     -43.979 -46.906  -6.560  1.00  0.00     0.038 C 
HETATM    7  C24 UNL     1     -42.061 -48.369  -6.941  1.00  0.00     0.038 C 
ENDROOT
BRANCH   1   8
HETATM    8  C9  UNL     1     -44.381 -48.241  -9.336  1.00  0.00     0.139 C 
BRANCH   8   9
HETATM    9  C5  UNL     1     -43.525 -47.559 -10.273  1.00  0.00     0.164 C 
BRANCH   9  10
HETATM   10  C3  UNL     1     -42.715 -46.393  -9.865  1.00  0.00     0.012 C 
HETATM   11  C4  UNL     1     -41.262 -46.800  -9.611  1.00  0.00     0.012 C 
BRANCH  10  12
HETATM   12  C2  UNL     1     -42.603 -45.417 -11.081  1.00  0.00     0.002 C 
HETATM   13  C1  UNL     1     -41.146 -45.128 -11.346  1.00  0.00     0.005 C 
ENDBRANCH  10  12
ENDBRANCH   9  10
BRANCH   9  14
HETATM   14  N1  UNL     1     -42.582 -48.569 -10.814  1.00  0.00    -0.331 N 
HETATM   15  C6  UNL     1     -42.904 -49.680 -11.593  1.00  0.00     0.318 C 
HETATM   16  O1  UNL     1     -44.076 -49.936 -11.909  1.00  0.00    -0.247 OA
HETATM   17  N2  UNL     1     -41.871 -50.563 -12.048  1.00  0.00    -0.343 N 
HETATM   18  C7  UNL     1     -42.171 -51.717 -12.831  1.00  0.00     0.154 C 
HETATM   19  C8  UNL     1     -40.500 -50.242 -11.689  1.00  0.00     0.154 C 
ATOM     20  H1  UNL     1     -41.595 -48.436 -10.594  1.00  0.00     0.165 HD
ENDBRANCH   9  14
ENDBRANCH   8   9
BRANCH   8  21
HETATM   21  O2  UNL     1     -45.619 -48.356  -9.791  1.00  0.00    -0.348 OA
ATOM     22  H2  UNL     1     -46.127 -48.978  -9.284  1.00  0.00     0.219 HD
ENDBRANCH   8  21
ENDBRANCH   1   8
BRANCH   2  23
HETATM   23  C11 UNL     1     -44.333 -51.206  -8.619  1.00  0.00     0.242 C 
HETATM   24  O3  UNL     1     -43.085 -51.482  -8.463  1.00  0.00    -0.271 OA
HETATM   25  N4  UNL     1     -45.064 -51.958  -9.579  1.00  0.00    -0.336 N 
ATOM     26  H4  UNL     1     -46.052 -51.753  -9.732  1.00  0.00     0.164 HD
BRANCH  25  27
HETATM   27  C12 UNL     1     -44.432 -53.004 -10.337  1.00  0.00     0.206 C 
HETATM   28  C13 UNL     1     -44.654 -54.371  -9.704  1.00  0.00     0.173 C 
HETATM   29  N5  UNL     1     -44.441 -55.278 -10.832  1.00  0.00    -0.335 N 
HETATM   30  C14 UNL     1     -43.982 -56.628 -10.690  1.00  0.00     0.154 C 
HETATM   31  C15 UNL     1     -44.765 -54.573 -12.017  1.00  0.00     0.319 C 
HETATM   32  O4  UNL     1     -44.880 -55.133 -13.135  1.00  0.00    -0.247 OA
HETATM   33  N6  UNL     1     -44.914 -53.200 -11.664  1.00  0.00    -0.320 N 
ATOM     34  H6  UNL     1     -45.302 -52.474 -12.266  1.00  0.00     0.166 HD
ENDBRANCH  25  27
ENDBRANCH   2  23
BRANCH   3  35
HETATM   35  C17 UNL     1     -46.066 -50.606  -5.591  1.00  0.00    -0.045 C 
HETATM   36  C18 UNL     1     -47.007 -51.470  -6.339  1.00  0.00     0.015 C 
HETATM   37  C19 UNL     1     -45.686 -51.366  -4.309  1.00  0.00     0.015 C 
HETATM   38  C20 UNL     1     -46.784 -49.365  -5.128  1.00  0.00     0.015 C 
ENDBRANCH   3  35
TORSDOF 9
ENDMDL
MODEL 2
REMARK VINA RESULT: -7.143914043      1.882      5.187
REMARK  9 active torsions:
REMARK  status: ('A' for Active; 'I' for Inactive)
REMARK    1  A    between atoms: C2_2  and  C3_3 
REMARK    2  A    between atoms: C3_3  and  C5_5 
REMARK    3  A    between atoms: C5_5  and  N1_6 
REMARK    4  A    between atoms: C5_5  and  C9_13 
REMARK       I    between atoms: N1_6  and  C6_8 
REMARK       I    between atoms: C6_8  and  N2_10 
REMARK    5  A    between atoms: C9_13  and  O2_14 
REMARK    6  A    between atoms: C9_13  and  N3_16 
REMARK    7  A    between atoms: C10_17  and  C11_18 
REMARK       I    between atoms: C11_18  and  N4_20 
REMARK    8  A    between atoms: N4_20  and  C12_22 
REMARK    9  A    between atoms: C16_30  and  C17_31 
ROOT
HETATM    1  N3  UNL     1     -43.619 -47.300  -8.937  1.00  0.00    -0.341 N 
HETATM    2  C10 UNL     1     -42.722 -47.608 -10.084  1.00  0.00     0.184 C 
HETATM    3  C16 UNL     1     -42.352 -46.335 -10.726  1.00  0.00     0.027 C 
HETATM    4  C21 UNL     1     -43.100 -45.248 -10.050  1.00  0.00     0.038 C 
HETATM    5  C22 UNL     1     -44.013 -45.931  -9.023  1.00  0.00     0.028 C 
HETATM    6  C23 UNL     1     -43.795 -45.193  -7.711  1.00  0.00     0.038 C 
HETATM    7  C24 UNL     1     -45.445 -45.685  -9.441  1.00  0.00     0.038 C 
ENDROOT
BRANCH   1   8
HETATM    8  C9  UNL     1     -43.929 -48.283  -7.999  1.00  0.00     0.139 C 
BRANCH   8   9
HETATM    9  C5  UNL     1     -43.236 -49.388  -7.386  1.00  0.00     0.164 C 
BRANCH   9  10
HETATM   10  C3  UNL     1     -42.722 -49.301  -6.004  1.00  0.00     0.012 C 
HETATM   11  C4  UNL     1     -41.269 -49.774  -5.932  1.00  0.00     0.012 C 
BRANCH  10  12
HETATM   12  C2  UNL     1     -42.625 -47.793  -5.605  1.00  0.00     0.002 C 
HETATM   13  C1  UNL     1     -41.218 -47.309  -5.855  1.00  0.00     0.005 C 
ENDBRANCH  10  12
ENDBRANCH   9  10
BRANCH   9  14
HETATM   14  N1  UNL     1     -44.153 -50.553  -7.431  1.00  0.00    -0.331 N 
HETATM   15  C6  UNL     1     -44.022 -51.690  -8.228  1.00  0.00     0.318 C 
HETATM   16  O1  UNL     1     -43.076 -51.825  -9.019  1.00  0.00    -0.247 OA
HETATM   17  N2  UNL     1     -44.995 -52.740  -8.149  1.00  0.00    -0.343 N 
HETATM   18  C7  UNL     1     -44.897 -53.907  -8.964  1.00  0.00     0.154 C 
HETATM   19  C8  UNL     1     -46.087 -52.581  -7.205  1.00  0.00     0.154 C 
ATOM     20  H1  UNL     1     -44.965 -50.520  -6.813  1.00  0.00     0.165 HD
ENDBRANCH   9  14
ENDBRANCH   8   9
BRANCH   8  21
HETATM   21  O2  UNL     1     -45.173 -48.175  -7.560  1.00  0.00    -0.348 OA
ATOM     22  H2  UNL     1     -45.211 -47.810  -6.683  1.00  0.00     0.219 HD
ENDBRANCH   8  21
ENDBRANCH   1   8
BRANCH   2  23
HETATM   23  C11 UNL     1     -43.241 -48.669 -10.946  1.00  0.00     0.242 C 
HETATM   24  O3  UNL     1     -44.459 -48.510 -11.334  1.00  0.00    -0.271 OA
HETATM   25  N4  UNL     1     -42.549 -49.828 -11.389  1.00  0.00    -0.336 N 
ATOM     26  H4  UNL     1     -41.587 -49.986 -11.088  1.00  0.00     0.164 HD
BRANCH  25  27
HETATM   27  C12 UNL     1     -43.184 -50.783 -12.257  1.00  0.00     0.206 C 
HETATM   28  C13 UNL     1     -42.289 -51.986 -12.524  1.00  0.00     0.173 C 
HETATM   29  N5  UNL     1     -43.252 -53.012 -12.923  1.00  0.00    -0.335 N 
HETATM   30  C14 UNL     1     -42.932 -54.107 -13.791  1.00  0.00     0.154 C 
HETATM   31  C15 UNL     1     -44.489 -52.704 -12.306  1.00  0.00     0.319 C 
HETATM   32  O4  UNL     1     -45.460 -53.500 -12.288  1.00  0.00    -0.247 OA
HETATM   33  N6  UNL     1     -44.375 -51.391 -11.762  1.00  0.00    -0.320 N 
ATOM     34  H6  UNL     1     -45.039 -50.956 -11.122  1.00  0.00     0.166 HD
ENDBRANCH  25  27
ENDBRANCH   2  23
BRANCH   3  35
HETATM   35  C17 UNL     1     -40.888 -46.026 -10.847  1.00  0.00    -0.045 C 
HETATM   36  C18 UNL     1     -40.086 -47.116 -11.448  1.00  0.00     0.015 C 
HETATM   37  C19 UNL     1     -40.789 -44.823 -11.800  1.00  0.00     0.015 C 
HETATM   38  C20 UNL     1     -40.242 -45.578  -9.562  1.00  0.00     0.015 C 
ENDBRANCH   3  35
TORSDOF 9
ENDMDL
MODEL 3
REMARK VINA RESULT: -7.055130555      1.663      5.452
REMARK  9 active torsions:
REMARK  status: ('A' for Active; 'I' for Inactive)
REMARK    1  A    between atoms: C2_2  and  C3_3 
REMARK    2  A    between atoms: C3_3  and  C5_5 
REMARK    3  A    between atoms: C5_5  and  N1_6 
REMARK    4  A    between atoms: C5_5  and  C9_13 
REMARK       I    between atoms: N1_6  and  C6_8 
REMARK       I    between atoms: C6_8  and  N2_10 
REMARK    5  A    between atoms: C9_13  and  O2_14 
REMARK    6  A    between atoms: C9_13  and  N3_16 
REMARK    7  A    between atoms: C10_17  and  C11_18 
REMARK       I    between atoms: C11_18  and  N4_20 
REMARK    8  A    between atoms: N4_20  and  C12_22 
REMARK    9  A    between atoms: C16_30  and  C17_31 
ROOT
HETATM    1  N3  UNL     1     -43.180 -47.738  -8.900  1.00  0.00    -0.341 N 
HETATM    2  C10 UNL     1     -42.414 -47.829 -10.172  1.00  0.00     0.184 C 
HETATM    3  C16 UNL     1     -42.294 -46.470 -10.728  1.00  0.00     0.027 C 
HETATM    4  C21 UNL     1     -43.072 -45.552  -9.862  1.00  0.00     0.038 C 
HETATM    5  C22 UNL     1     -43.747 -46.433  -8.802  1.00  0.00     0.028 C 
HETATM    6  C23 UNL     1     -43.446 -45.780  -7.461  1.00  0.00     0.038 C 
HETATM    7  C24 UNL     1     -45.242 -46.349  -9.015  1.00  0.00     0.038 C 
ENDROOT
BRANCH   1   8
HETATM    8  C9  UNL     1     -43.236 -48.827  -8.030  1.00  0.00     0.139 C 
BRANCH   8   9
HETATM    9  C5  UNL     1     -44.238 -49.435  -7.192  1.00  0.00     0.164 C 
BRANCH   9  10
HETATM   10  C3  UNL     1     -45.233 -48.618  -6.468  1.00  0.00     0.012 C 
HETATM   11  C4  UNL     1     -46.369 -49.491  -5.932  1.00  0.00     0.012 C 
BRANCH  10  12
HETATM   12  C2  UNL     1     -44.567 -48.063  -5.167  1.00  0.00     0.002 C 
HETATM   13  C1  UNL     1     -45.499 -48.293  -4.003  1.00  0.00     0.005 C 
ENDBRANCH  10  12
ENDBRANCH   9  10
BRANCH   9  14
HETATM   14  N1  UNL     1     -44.998 -50.384  -8.043  1.00  0.00    -0.331 N 
HETATM   15  C6  UNL     1     -44.703 -51.729  -8.263  1.00  0.00     0.318 C 
HETATM   16  O1  UNL     1     -43.717 -52.274  -7.743  1.00  0.00    -0.247 OA
HETATM   17  N2  UNL     1     -45.546 -52.520  -9.111  1.00  0.00    -0.343 N 
HETATM   18  C7  UNL     1     -45.260 -53.894  -9.371  1.00  0.00     0.154 C 
HETATM   19  C8  UNL     1     -46.708 -51.877  -9.699  1.00  0.00     0.154 C 
ATOM     20  H1  UNL     1     -45.823 -50.014  -8.514  1.00  0.00     0.165 HD
ENDBRANCH   9  14
ENDBRANCH   8   9
BRANCH   8  21
HETATM   21  O2  UNL     1     -42.077 -49.462  -7.956  1.00  0.00    -0.348 OA
ATOM     22  H2  UNL     1     -42.157 -50.296  -7.507  1.00  0.00     0.219 HD
ENDBRANCH   8  21
ENDBRANCH   1   8
BRANCH   2  23
HETATM   23  C11 UNL     1     -42.910 -48.877 -11.063  1.00  0.00     0.242 C 
HETATM   24  O3  UNL     1     -44.161 -48.796 -11.358  1.00  0.00    -0.271 OA
HETATM   25  N4  UNL     1     -42.163 -49.948 -11.625  1.00  0.00    -0.336 N 
ATOM     26  H4  UNL     1     -41.173 -50.044 -11.399  1.00  0.00     0.164 HD
BRANCH  25  27
HETATM   27  C12 UNL     1     -42.783 -50.900 -12.507  1.00  0.00     0.206 C 
HETATM   28  C13 UNL     1     -41.882 -52.099 -12.766  1.00  0.00     0.173 C 
HETATM   29  N5  UNL     1     -42.837 -53.126 -13.186  1.00  0.00    -0.335 N 
HETATM   30  C14 UNL     1     -42.501 -54.215 -14.054  1.00  0.00     0.154 C 
HETATM   31  C15 UNL     1     -44.083 -52.823 -12.585  1.00  0.00     0.319 C 
HETATM   32  O4  UNL     1     -45.053 -53.621 -12.586  1.00  0.00    -0.247 OA
HETATM   33  N6  UNL     1     -43.980 -51.513 -12.033  1.00  0.00    -0.320 N 
ATOM     34  H6  UNL     1     -44.654 -51.083 -11.401  1.00  0.00     0.166 HD
ENDBRANCH  25  27
ENDBRANCH   2  23
BRANCH   3  35
HETATM   35  C17 UNL     1     -40.908 -45.958 -10.997  1.00  0.00    -0.045 C 
HETATM   36  C18 UNL     1     -40.003 -46.955 -11.612  1.00  0.00     0.015 C 
HETATM   37  C19 UNL     1     -41.072 -44.817 -12.017  1.00  0.00     0.015 C 
HETATM   38  C20 UNL     1     -40.235 -45.337  -9.801  1.00  0.00     0.015 C 
ENDBRANCH   3  35
TORSDOF 9
ENDMDL
MODEL 4
REMARK VINA RESULT: -6.943233572      2.180      5.594
REMARK  9 active torsions:
REMARK  status: ('A' for Active; 'I' for Inactive)
REMARK    1  A    between atoms: C2_2  and  C3_3 
REMARK    2  A    between atoms: C3_3  and  C5_5 
REMARK    3  A    between atoms: C5_5  and  N1_6 
REMARK    4  A    between atoms: C5_5  and  C9_13 
REMARK       I    between atoms: N1_6  and  C6_8 
REMARK       I    between atoms: C6_8  and  N2_10 
REMARK    5  A    between atoms: C9_13  and  O2_14 
REMARK    6  A    between atoms: C9_13  and  N3_16 
REMARK    7  A    between atoms: C10_17  and  C11_18 
REMARK       I    between atoms: C11_18  and  N4_20 
REMARK    8  A    between atoms: N4_20  and  C12_22 
REMARK    9  A    between atoms: C16_30  and  C17_31 
ROOT
HETATM    1  N3  UNL     1     -43.184 -49.532  -9.343  1.00  0.00    -0.341 N 
HETATM    2  C10 UNL     1     -43.306 -50.554 -10.418  1.00  0.00     0.184 C 
HETATM    3  C16 UNL     1     -42.878 -49.936 -11.684  1.00  0.00     0.027 C 
HETATM    4  C21 UNL     1     -42.592 -48.505 -11.420  1.00  0.00     0.038 C 
HETATM    5  C22 UNL     1     -42.954 -48.260  -9.950  1.00  0.00     0.028 C 
HETATM    6  C23 UNL     1     -41.759 -47.545  -9.337  1.00  0.00     0.038 C 
HETATM    7  C24 UNL     1     -44.118 -47.296  -9.914  1.00  0.00     0.038 C 
ENDROOT
BRANCH   1   8
HETATM    8  C9  UNL     1     -43.284 -49.900  -8.003  1.00  0.00     0.139 C 
BRANCH   8   9
HETATM    9  C5  UNL     1     -43.474 -49.216  -6.750  1.00  0.00     0.164 C 
BRANCH   9  10
HETATM   10  C3  UNL     1     -44.044 -47.855  -6.696  1.00  0.00     0.012 C 
HETATM   11  C4  UNL     1     -44.878 -47.661  -5.428  1.00  0.00     0.012 C 
BRANCH  10  12
HETATM   12  C2  UNL     1     -42.874 -46.834  -6.511  1.00  0.00     0.002 C 
HETATM   13  C1  UNL     1     -41.788 -47.477  -5.685  1.00  0.00     0.005 C 
ENDBRANCH  10  12
ENDBRANCH   9  10
BRANCH   9  14
HETATM   14  N1  UNL     1     -44.344 -50.079  -5.912  1.00  0.00    -0.331 N 
HETATM   15  C6  UNL     1     -45.564 -50.644  -6.281  1.00  0.00     0.318 C 
HETATM   16  O1  UNL     1     -46.057 -50.455  -7.404  1.00  0.00    -0.247 OA
HETATM   17  N2  UNL     1     -46.285 -51.467  -5.354  1.00  0.00    -0.343 N 
HETATM   18  C7  UNL     1     -47.544 -52.045  -5.696  1.00  0.00     0.154 C 
HETATM   19  C8  UNL     1     -45.689 -51.698  -4.050  1.00  0.00     0.154 C 
ATOM     20  H1  UNL     1     -44.015 -50.279  -4.968  1.00  0.00     0.165 HD
ENDBRANCH   9  14
ENDBRANCH   8   9
BRANCH   8  21
HETATM   21  O2  UNL     1     -43.175 -51.210  -7.839  1.00  0.00    -0.348 OA
ATOM     22  H2  UNL     1     -42.328 -51.534  -8.123  1.00  0.00     0.219 HD
ENDBRANCH   8  21
ENDBRANCH   1   8
BRANCH   2  23
HETATM   23  C11 UNL     1     -44.597 -51.239 -10.408  1.00  0.00     0.242 C 
HETATM   24  O3  UNL     1     -45.506 -50.704 -11.147  1.00  0.00    -0.271 OA
HETATM   25  N4  UNL     1     -44.939 -52.414  -9.683  1.00  0.00    -0.336 N 
ATOM     26  H4  UNL     1     -44.243 -52.853  -9.080  1.00  0.00     0.164 HD
BRANCH  25  27
HETATM   27  C12 UNL     1     -46.251 -52.992  -9.787  1.00  0.00     0.206 C 
HETATM   28  C13 UNL     1     -46.518 -53.990  -8.667  1.00  0.00     0.173 C 
HETATM   29  N5  UNL     1     -47.980 -54.031  -8.624  1.00  0.00    -0.335 N 
HETATM   30  C14 UNL     1     -48.729 -55.168  -8.177  1.00  0.00     0.154 C 
HETATM   31  C15 UNL     1     -48.459 -52.783  -9.094  1.00  0.00     0.319 C 
HETATM   32  O4  UNL     1     -49.660 -52.430  -8.990  1.00  0.00    -0.247 OA
HETATM   33  N6  UNL     1     -47.349 -52.091  -9.661  1.00  0.00    -0.320 N 
ATOM     34  H6  UNL     1     -47.342 -51.109  -9.934  1.00  0.00     0.166 HD
ENDBRANCH  25  27
ENDBRANCH   2  23
BRANCH   3  35
HETATM   35  C17 UNL     1     -41.765 -50.608 -12.435  1.00  0.00    -0.045 C 
HETATM   36  C18 UNL     1     -41.048 -49.720 -13.378  1.00  0.00     0.015 C 
HETATM   37  C19 UNL     1     -40.743 -51.045 -11.371  1.00  0.00     0.015 C 
HETATM   38  C20 UNL     1     -42.174 -51.872 -13.146  1.00  0.00     0.015 C 
ENDBRANCH   3  35
TORSDOF 9
ENDMDL
MODEL 5
REMARK VINA RESULT: -6.884901987      1.814      5.465
REMARK  9 active torsions:
REMARK  status: ('A' for Active; 'I' for Inactive)
REMARK    1  A    between atoms: C2_2  and  C3_3 
REMARK    2  A    between atoms: C3_3  and  C5_5 
REMARK    3  A    between atoms: C5_5  and  N1_6 
REMARK    4  A    between atoms: C5_5  and  C9_13 
REMARK       I    between atoms: N1_6  and  C6_8 
REMARK       I    between atoms: C6_8  and  N2_10 
REMARK    5  A    between atoms: C9_13  and  O2_14 
REMARK    6  A    between atoms: C9_13  and  N3_16 
REMARK    7  A    between atoms: C10_17  and  C11_18 
REMARK       I    between atoms: C11_18  and  N4_20 
REMARK    8  A    between atoms: N4_20  and  C12_22 
REMARK    9  A    between atoms: C16_30  and  C17_31 
ROOT
HETATM    1  N3  UNL     1     -43.366 -49.765  -9.619  1.00  0.00    -0.341 N 
HETATM    2  C10 UNL     1     -42.785 -50.316 -10.873  1.00  0.00     0.184 C 
HETATM    3  C16 UNL     1     -42.420 -49.183 -11.741  1.00  0.00     0.027 C 
HETATM    4  C21 UNL     1     -42.868 -47.936 -11.076  1.00  0.00     0.038 C 
HETATM    5  C22 UNL     1     -43.607 -48.371  -9.804  1.00  0.00     0.028 C 
HETATM    6  C23 UNL     1     -43.021 -47.538  -8.674  1.00  0.00     0.038 C 
HETATM    7  C24 UNL     1     -45.057 -47.969  -9.949  1.00  0.00     0.038 C 
ENDROOT
BRANCH   1   8
HETATM    8  C9  UNL     1     -43.574 -50.591  -8.515  1.00  0.00     0.139 C 
BRANCH   8   9
HETATM    9  C5  UNL     1     -44.604 -50.757  -7.523  1.00  0.00     0.164 C 
BRANCH   9  10
HETATM   10  C3  UNL     1     -45.213 -49.595  -6.845  1.00  0.00     0.012 C 
HETATM   11  C4  UNL     1     -46.319 -50.040  -5.886  1.00  0.00     0.012 C 
BRANCH  10  12
HETATM   12  C2  UNL     1     -44.149 -48.963  -5.891  1.00  0.00     0.002 C 
HETATM   13  C1  UNL     1     -44.713 -47.695  -5.297  1.00  0.00     0.005 C 
ENDBRANCH  10  12
ENDBRANCH   9  10
BRANCH   9  14
HETATM   14  N1  UNL     1     -45.711 -51.506  -8.168  1.00  0.00    -0.331 N 
HETATM   15  C6  UNL     1     -45.728 -52.865  -8.482  1.00  0.00     0.318 C 
HETATM   16  O1  UNL     1     -44.759 -53.602  -8.241  1.00  0.00    -0.247 OA
HETATM   17  N2  UNL     1     -46.884 -53.445  -9.101  1.00  0.00    -0.343 N 
HETATM   18  C7  UNL     1     -46.925 -54.828  -9.450  1.00  0.00     0.154 C 
HETATM   19  C8  UNL     1     -48.020 -52.578  -9.359  1.00  0.00     0.154 C 
ATOM     20  H1  UNL     1     -46.546 -50.972  -8.406  1.00  0.00     0.165 HD
ENDBRANCH   9  14
ENDBRANCH   8   9
BRANCH   8  21
HETATM   21  O2  UNL     1     -42.570 -51.434  -8.331  1.00  0.00    -0.348 OA
ATOM     22  H2  UNL     1     -41.907 -51.077  -7.752  1.00  0.00     0.219 HD
ENDBRANCH   8  21
ENDBRANCH   1   8
BRANCH   2  23
HETATM   23  C11 UNL     1     -43.601 -51.377 -11.462  1.00  0.00     0.242 C 
HETATM   24  O3  UNL     1     -44.873 -51.224 -11.331  1.00  0.00    -0.271 OA
HETATM   25  N4  UNL     1     -43.139 -52.530 -12.153  1.00  0.00    -0.336 N 
ATOM     26  H4  UNL     1     -42.136 -52.682 -12.262  1.00  0.00     0.164 HD
BRANCH  25  27
HETATM   27  C12 UNL     1     -44.064 -53.485 -12.701  1.00  0.00     0.206 C 
HETATM   28  C13 UNL     1     -43.408 -54.362 -13.760  1.00  0.00     0.173 C 
HETATM   29  N5  UNL     1     -44.279 -55.538 -13.777  1.00  0.00    -0.335 N 
HETATM   30  C14 UNL     1     -44.457 -56.377 -14.926  1.00  0.00     0.154 C 
HETATM   31  C15 UNL     1     -44.870 -55.654 -12.495  1.00  0.00     0.319 C 
HETATM   32  O4  UNL     1     -45.509 -56.670 -12.128  1.00  0.00    -0.247 OA
HETATM   33  N6  UNL     1     -44.590 -54.447 -11.790  1.00  0.00    -0.320 N 
ATOM     34  H6  UNL     1     -44.743 -54.296 -10.793  1.00  0.00     0.166 HD
ENDBRANCH  25  27
ENDBRANCH   2  23
BRANCH   3  35
HETATM   35  C17 UNL     1     -40.992 -49.100 -12.198  1.00  0.00    -0.045 C 
HETATM   36  C18 UNL     1     -40.143 -50.224 -11.742  1.00  0.00     0.015 C 
HETATM   37  C19 UNL     1     -41.038 -49.171 -13.734  1.00  0.00     0.015 C 
HETATM   38  C20 UNL     1     -40.314 -47.794 -11.874  1.00  0.00     0.015 C 
ENDBRANCH   3  35
TORSDOF 9
ENDMDL
