MODEL 1
REMARK VINA RESULT: -8.236960748      0.000      0.000
REMARK  7 active torsions:
REMARK  status: ('A' for Active; 'I' for Inactive)
REMARK    1  A    between atoms: C10_10  and  C11_11 
REMARK    2  A    between atoms: C11_11  and  C12_13 
REMARK    3  A    between atoms: C12_13  and  N1_14 
REMARK    4  A    between atoms: N2_17  and  C15_18 
REMARK    5  A    between atoms: C15_18  and  C16_19 
REMARK    6  A    between atoms: C16_19  and  N3_20 
REMARK       I    between atoms: C17_22  and  N5_24 
REMARK    7  A    between atoms: C25_35  and  O2_36 
ROOT
HETATM    1  N1  UNL     1     -46.404 -51.889  -8.397  1.00  0.00     0.098 N 
HETATM    2  C13 UNL     1     -47.411 -52.235  -9.412  1.00  0.00     0.303 C 
HETATM    3  C14 UNL     1     -47.762 -53.681  -9.445  1.00  0.00     0.302 C 
HETATM    4  N2  UNL     1     -48.389 -54.118  -8.204  1.00  0.00     0.093 N 
HETATM    5  C21 UNL     1     -48.222 -53.106  -7.215  1.00  0.00     0.302 C 
HETATM    6  C22 UNL     1     -46.841 -52.535  -7.147  1.00  0.00     0.303 C 
ENDROOT
BRANCH   1   7
HETATM    7  C12 UNL     1     -45.209 -52.548  -8.790  1.00  0.00     0.351 C 
BRANCH   7   8
HETATM    8  C11 UNL     1     -44.062 -51.760  -9.249  1.00  0.00     0.164 C 
HETATM    9  O1  UNL     1     -43.066 -51.838  -8.501  1.00  0.00    -0.295 OA
BRANCH   8  10
HETATM   10  C10 UNL     1     -43.920 -50.911 -10.438  1.00  0.00     0.033 C 
HETATM   11  C9  UNL     1     -44.598 -49.550 -10.318  1.00  0.00     0.010 C 
HETATM   12  C2  UNL     1     -43.931 -48.580  -9.412  1.00  0.00    -0.042 C 
HETATM   13  C8  UNL     1     -44.510 -48.872 -11.691  1.00  0.00     0.007 C 
HETATM   14  C1  UNL     1     -44.638 -47.224  -9.639  1.00  0.00     0.015 C 
HETATM   15  C3  UNL     1     -44.097 -48.778  -7.920  1.00  0.00     0.015 C 
HETATM   16  C4  UNL     1     -42.467 -48.509  -9.786  1.00  0.00     0.018 C 
HETATM   17  C5  UNL     1     -42.188 -49.209 -11.103  1.00  0.00    -0.036 C 
HETATM   18  C6  UNL     1     -40.727 -49.084 -11.418  1.00  0.00     0.015 C 
HETATM   19  C7  UNL     1     -43.092 -48.562 -12.102  1.00  0.00     0.010 C 
HETATM   20  C26 UNL     1     -42.544 -50.701 -10.958  1.00  0.00     0.039 C 
HETATM   21  C25 UNL     1     -42.422 -51.386 -12.296  1.00  0.00     0.124 C 
HETATM   22  C24 UNL     1     -43.700 -52.127 -12.544  1.00  0.00     0.033 C 
HETATM   23  C23 UNL     1     -44.693 -51.658 -11.545  1.00  0.00     0.020 C 
BRANCH  21  24
HETATM   24  O2  UNL     1     -41.344 -52.260 -12.385  1.00  0.00    -0.395 OA
ATOM     25  H2  UNL     1     -40.726 -52.083 -11.686  1.00  0.00     0.210 HD
ENDBRANCH  21  24
ENDBRANCH   8  10
ENDBRANCH   7   8
ENDBRANCH   1   7
BRANCH   4  26
HETATM   26  C15 UNL     1     -47.925 -55.431  -7.838  1.00  0.00     0.292 C 
BRANCH  26  27
HETATM   27  C16 UNL     1     -46.859 -55.887  -8.845  1.00  0.00     0.152 C 
BRANCH  27  28
HETATM   28  N3  UNL     1     -45.582 -56.096  -8.247  1.00  0.00    -0.363 N 
HETATM   29  C17 UNL     1     -44.468 -56.328  -8.797  1.00  0.00     0.187 C 
HETATM   30  N4  UNL     1     -43.325 -56.501  -7.970  1.00  0.00    -0.064 NA
HETATM   31  N5  UNL     1     -44.323 -56.423 -10.190  1.00  0.00    -0.331 N 
HETATM   32  C18 UNL     1     -44.068 -57.662 -10.955  1.00  0.00     0.154 C 
HETATM   33  C20 UNL     1     -44.383 -55.359 -11.150  1.00  0.00     0.359 C 
HETATM   34  C19 UNL     1     -43.145 -57.121 -12.028  1.00  0.00     0.254 C 
HETATM   35  N6  UNL     1     -43.851 -55.901 -12.399  1.00  0.00    -0.058 N 
ATOM     36  H62 UNL     1     -43.277 -55.239 -12.921  1.00  0.00     0.279 HD
ATOM     37  H61 UNL     1     -44.559 -56.041 -13.119  1.00  0.00     0.279 HD
ATOM     38  H3  UNL     1     -45.565 -56.051  -7.228  1.00  0.00     0.162 HD
ENDBRANCH  27  28
ENDBRANCH  26  27
ENDBRANCH   4  26
TORSDOF 7
ENDMDL
MODEL 2
REMARK VINA RESULT: -8.229142822      4.912      8.479
REMARK  7 active torsions:
REMARK  status: ('A' for Active; 'I' for Inactive)
REMARK    1  A    between atoms: C10_10  and  C11_11 
REMARK    2  A    between atoms: C11_11  and  C12_13 
REMARK    3  A    between atoms: C12_13  and  N1_14 
REMARK    4  A    between atoms: N2_17  and  C15_18 
REMARK    5  A    between atoms: C15_18  and  C16_19 
REMARK    6  A    between atoms: C16_19  and  N3_20 
REMARK       I    between atoms: C17_22  and  N5_24 
REMARK    7  A    between atoms: C25_35  and  O2_36 
ROOT
HETATM    1  N1  UNL     1     -45.682 -51.367  -6.328  1.00  0.00     0.098 N 
HETATM    2  C13 UNL     1     -45.254 -50.836  -5.025  1.00  0.00     0.303 C 
HETATM    3  C14 UNL     1     -46.071 -49.691  -4.542  1.00  0.00     0.302 C 
HETATM    4  N2  UNL     1     -47.455 -50.076  -4.295  1.00  0.00     0.093 N 
HETATM    5  C21 UNL     1     -47.691 -51.361  -4.863  1.00  0.00     0.302 C 
HETATM    6  C22 UNL     1     -47.145 -51.533  -6.244  1.00  0.00     0.303 C 
ENDROOT
BRANCH   1   7
HETATM    7  C12 UNL     1     -45.453 -50.329  -7.269  1.00  0.00     0.351 C 
BRANCH   7   8
HETATM    8  C11 UNL     1     -44.081 -49.994  -7.661  1.00  0.00     0.164 C 
HETATM    9  O1  UNL     1     -43.388 -50.986  -7.966  1.00  0.00    -0.295 OA
BRANCH   8  10
HETATM   10  C10 UNL     1     -43.420 -48.686  -7.746  1.00  0.00     0.033 C 
HETATM   11  C9  UNL     1     -42.645 -48.461  -9.040  1.00  0.00     0.010 C 
HETATM   12  C2  UNL     1     -43.476 -48.242 -10.253  1.00  0.00    -0.042 C 
HETATM   13  C8  UNL     1     -41.878 -47.141  -8.891  1.00  0.00     0.007 C 
HETATM   14  C1  UNL     1     -42.499 -47.797 -11.366  1.00  0.00     0.015 C 
HETATM   15  C3  UNL     1     -44.143 -49.447 -10.880  1.00  0.00     0.015 C 
HETATM   16  C4  UNL     1     -44.490 -47.163  -9.945  1.00  0.00     0.018 C 
HETATM   17  C5  UNL     1     -44.185 -46.459  -8.637  1.00  0.00    -0.036 C 
HETATM   18  C6  UNL     1     -45.217 -45.396  -8.406  1.00  0.00     0.015 C 
HETATM   19  C7  UNL     1     -42.788 -45.944  -8.773  1.00  0.00     0.010 C 
HETATM   20  C26 UNL     1     -44.258 -47.487  -7.491  1.00  0.00     0.039 C 
HETATM   21  C25 UNL     1     -43.808 -46.846  -6.202  1.00  0.00     0.124 C 
HETATM   22  C24 UNL     1     -42.762 -47.730  -5.597  1.00  0.00     0.033 C 
HETATM   23  C23 UNL     1     -42.353 -48.715  -6.630  1.00  0.00     0.020 C 
BRANCH  21  24
HETATM   24  O2  UNL     1     -44.835 -46.636  -5.288  1.00  0.00    -0.395 OA
ATOM     25  H2  UNL     1     -44.505 -46.159  -4.536  1.00  0.00     0.210 HD
ENDBRANCH  21  24
ENDBRANCH   8  10
ENDBRANCH   7   8
ENDBRANCH   1   7
BRANCH   4  26
HETATM   26  C15 UNL     1     -48.353 -49.032  -4.720  1.00  0.00     0.292 C 
BRANCH  26  27
HETATM   27  C16 UNL     1     -48.364 -47.917  -3.666  1.00  0.00     0.152 C 
BRANCH  27  28
HETATM   28  N3  UNL     1     -47.733 -46.721  -4.114  1.00  0.00    -0.363 N 
HETATM   29  C17 UNL     1     -47.613 -45.608  -3.526  1.00  0.00     0.187 C 
HETATM   30  N4  UNL     1     -46.930 -44.557  -4.195  1.00  0.00    -0.064 NA
HETATM   31  N5  UNL     1     -48.132 -45.377  -2.243  1.00  0.00    -0.331 N 
HETATM   32  C18 UNL     1     -49.301 -44.532  -1.917  1.00  0.00     0.154 C 
HETATM   33  C20 UNL     1     -47.646 -45.895  -0.997  1.00  0.00     0.359 C 
HETATM   34  C19 UNL     1     -48.832 -43.933  -0.606  1.00  0.00     0.254 C 
HETATM   35  N6  UNL     1     -48.299 -45.118   0.055  1.00  0.00    -0.058 N 
ATOM     36  H62 UNL     1     -47.690 -44.906   0.846  1.00  0.00     0.279 HD
ATOM     37  H61 UNL     1     -48.999 -45.643   0.578  1.00  0.00     0.279 HD
ATOM     38  H3  UNL     1     -47.317 -46.769  -5.045  1.00  0.00     0.162 HD
ENDBRANCH  27  28
ENDBRANCH  26  27
ENDBRANCH   4  26
TORSDOF 7
ENDMDL
MODEL 3
REMARK VINA RESULT: -7.601371395      3.089      6.203
REMARK  7 active torsions:
REMARK  status: ('A' for Active; 'I' for Inactive)
REMARK    1  A    between atoms: C10_10  and  C11_11 
REMARK    2  A    between atoms: C11_11  and  C12_13 
REMARK    3  A    between atoms: C12_13  and  N1_14 
REMARK    4  A    between atoms: N2_17  and  C15_18 
REMARK    5  A    between atoms: C15_18  and  C16_19 
REMARK    6  A    between atoms: C16_19  and  N3_20 
REMARK       I    between atoms: C17_22  and  N5_24 
REMARK    7  A    between atoms: C25_35  and  O2_36 
ROOT
HETATM    1  N1  UNL     1     -44.197 -51.232 -10.453  1.00  0.00     0.098 N 
HETATM    2  C13 UNL     1     -43.686 -51.915  -9.254  1.00  0.00     0.303 C 
HETATM    3  C14 UNL     1     -44.601 -51.841  -8.082  1.00  0.00     0.302 C 
HETATM    4  N2  UNL     1     -45.863 -52.526  -8.333  1.00  0.00     0.093 N 
HETATM    5  C21 UNL     1     -45.968 -52.817  -9.723  1.00  0.00     0.302 C 
HETATM    6  C22 UNL     1     -45.591 -51.681 -10.620  1.00  0.00     0.303 C 
ENDROOT
BRANCH   1   7
HETATM    7  C12 UNL     1     -44.260 -49.852 -10.122  1.00  0.00     0.351 C 
BRANCH   7   8
HETATM    8  C11 UNL     1     -43.036 -49.138  -9.749  1.00  0.00     0.164 C 
HETATM    9  O1  UNL     1     -42.032 -49.484 -10.405  1.00  0.00    -0.295 OA
BRANCH   8  10
HETATM   10  C10 UNL     1     -42.825 -48.096  -8.737  1.00  0.00     0.033 C 
HETATM   11  C9  UNL     1     -41.760 -47.070  -9.109  1.00  0.00     0.010 C 
HETATM   12  C2  UNL     1     -42.143 -46.109 -10.176  1.00  0.00    -0.042 C 
HETATM   13  C8  UNL     1     -41.541 -46.173  -7.884  1.00  0.00     0.007 C 
HETATM   14  C1  UNL     1     -41.030 -45.036 -10.206  1.00  0.00     0.015 C 
HETATM   15  C3  UNL     1     -42.144 -46.605 -11.606  1.00  0.00     0.015 C 
HETATM   16  C4  UNL     1     -43.482 -45.506  -9.814  1.00  0.00     0.018 C 
HETATM   17  C5  UNL     1     -43.883 -45.838  -8.389  1.00  0.00    -0.036 C 
HETATM   18  C6  UNL     1     -45.206 -45.196  -8.096  1.00  0.00     0.015 C 
HETATM   19  C7  UNL     1     -42.758 -45.355  -7.531  1.00  0.00     0.010 C 
HETATM   20  C26 UNL     1     -44.027 -47.367  -8.258  1.00  0.00     0.039 C 
HETATM   21  C25 UNL     1     -44.273 -47.733  -6.816  1.00  0.00     0.124 C 
HETATM   22  C24 UNL     1     -43.283 -48.792  -6.441  1.00  0.00     0.033 C 
HETATM   23  C23 UNL     1     -42.259 -48.849  -7.514  1.00  0.00     0.020 C 
BRANCH  21  24
HETATM   24  O2  UNL     1     -45.565 -48.182  -6.561  1.00  0.00    -0.395 OA
ATOM     25  H2  UNL     1     -45.794 -48.009  -5.655  1.00  0.00     0.210 HD
ENDBRANCH  21  24
ENDBRANCH   8  10
ENDBRANCH   7   8
ENDBRANCH   1   7
BRANCH   4  26
HETATM   26  C15 UNL     1     -46.961 -51.787  -7.765  1.00  0.00     0.292 C 
BRANCH  26  27
HETATM   27  C16 UNL     1     -46.980 -52.003  -6.246  1.00  0.00     0.152 C 
BRANCH  27  28
HETATM   28  N3  UNL     1     -46.557 -50.854  -5.515  1.00  0.00    -0.363 N 
HETATM   29  C17 UNL     1     -46.550 -50.656  -4.266  1.00  0.00     0.187 C 
HETATM   30  N4  UNL     1     -46.072 -49.409  -3.779  1.00  0.00    -0.064 NA
HETATM   31  N5  UNL     1     -46.998 -51.620  -3.350  1.00  0.00    -0.331 N 
HETATM   32  C18 UNL     1     -48.245 -51.554  -2.559  1.00  0.00     0.154 C 
HETATM   33  C20 UNL     1     -46.353 -52.848  -2.987  1.00  0.00     0.359 C 
HETATM   34  C19 UNL     1     -47.767 -52.183  -1.265  1.00  0.00     0.254 C 
HETATM   35  N6  UNL     1     -47.027 -53.327  -1.781  1.00  0.00    -0.058 N 
ATOM     36  H62 UNL     1     -46.395 -53.748  -1.099  1.00  0.00     0.279 HD
ATOM     37  H61 UNL     1     -47.605 -54.153  -1.936  1.00  0.00     0.279 HD
ATOM     38  H3  UNL     1     -46.210 -50.080  -6.082  1.00  0.00     0.162 HD
ENDBRANCH  27  28
ENDBRANCH  26  27
ENDBRANCH   4  26
TORSDOF 7
ENDMDL
MODEL 4
REMARK VINA RESULT: -7.480352465      2.339      4.453
REMARK  7 active torsions:
REMARK  status: ('A' for Active; 'I' for Inactive)
REMARK    1  A    between atoms: C10_10  and  C11_11 
REMARK    2  A    between atoms: C11_11  and  C12_13 
REMARK    3  A    between atoms: C12_13  and  N1_14 
REMARK    4  A    between atoms: N2_17  and  C15_18 
REMARK    5  A    between atoms: C15_18  and  C16_19 
REMARK    6  A    between atoms: C16_19  and  N3_20 
REMARK       I    between atoms: C17_22  and  N5_24 
REMARK    7  A    between atoms: C25_35  and  O2_36 
ROOT
HETATM    1  N1  UNL     1     -45.674 -49.963  -5.498  1.00  0.00     0.098 N 
HETATM    2  C13 UNL     1     -47.129 -49.777  -5.394  1.00  0.00     0.303 C 
HETATM    3  C14 UNL     1     -47.909 -51.038  -5.517  1.00  0.00     0.302 C 
HETATM    4  N2  UNL     1     -47.622 -51.964  -4.429  1.00  0.00     0.093 N 
HETATM    5  C21 UNL     1     -46.468 -51.515  -3.725  1.00  0.00     0.302 C 
HETATM    6  C22 UNL     1     -45.337 -51.087  -4.607  1.00  0.00     0.303 C 
ENDROOT
BRANCH   1   7
HETATM    7  C12 UNL     1     -45.431 -50.418  -6.822  1.00  0.00     0.351 C 
BRANCH   7   8
HETATM    8  C11 UNL     1     -44.146 -50.129  -7.465  1.00  0.00     0.164 C 
HETATM    9  O1  UNL     1     -43.547 -51.146  -7.872  1.00  0.00    -0.295 OA
BRANCH   8  10
HETATM   10  C10 UNL     1     -43.478 -48.843  -7.696  1.00  0.00     0.033 C 
HETATM   11  C9  UNL     1     -42.791 -48.731  -9.053  1.00  0.00     0.010 C 
HETATM   12  C2  UNL     1     -43.701 -48.591 -10.220  1.00  0.00    -0.042 C 
HETATM   13  C8  UNL     1     -42.000 -47.416  -9.059  1.00  0.00     0.007 C 
HETATM   14  C1  UNL     1     -42.799 -48.249 -11.428  1.00  0.00     0.015 C 
HETATM   15  C3  UNL     1     -44.424 -49.829 -10.705  1.00  0.00     0.015 C 
HETATM   16  C4  UNL     1     -44.679 -47.475  -9.929  1.00  0.00     0.018 C 
HETATM   17  C5  UNL     1     -44.276 -46.678  -8.702  1.00  0.00    -0.036 C 
HETATM   18  C6  UNL     1     -45.278 -45.583  -8.485  1.00  0.00     0.015 C 
HETATM   19  C7  UNL     1     -42.887 -46.199  -8.972  1.00  0.00     0.010 C 
HETATM   20  C26 UNL     1     -44.283 -47.614  -7.478  1.00  0.00     0.039 C 
HETATM   21  C25 UNL     1     -43.737 -46.884  -6.276  1.00  0.00     0.124 C 
HETATM   22  C24 UNL     1     -42.662 -47.737  -5.677  1.00  0.00     0.033 C 
HETATM   23  C23 UNL     1     -42.337 -48.804  -6.656  1.00  0.00     0.020 C 
BRANCH  21  24
HETATM   24  O2  UNL     1     -44.696 -46.588  -5.313  1.00  0.00    -0.395 OA
ATOM     25  H2  UNL     1     -45.547 -46.897  -5.600  1.00  0.00     0.210 HD
ENDBRANCH  21  24
ENDBRANCH   8  10
ENDBRANCH   7   8
ENDBRANCH   1   7
BRANCH   4  26
HETATM   26  C15 UNL     1     -47.566 -53.318  -4.919  1.00  0.00     0.292 C 
BRANCH  26  27
HETATM   27  C16 UNL     1     -47.857 -53.320  -6.425  1.00  0.00     0.152 C 
BRANCH  27  28
HETATM   28  N3  UNL     1     -47.915 -54.631  -6.979  1.00  0.00    -0.363 N 
HETATM   29  C17 UNL     1     -47.390 -55.079  -8.039  1.00  0.00     0.187 C 
HETATM   30  N4  UNL     1     -47.598 -56.443  -8.377  1.00  0.00    -0.064 NA
HETATM   31  N5  UNL     1     -46.614 -54.276  -8.889  1.00  0.00    -0.331 N 
HETATM   32  C18 UNL     1     -47.011 -53.790 -10.228  1.00  0.00     0.154 C 
HETATM   33  C20 UNL     1     -45.293 -53.771  -8.650  1.00  0.00     0.359 C 
HETATM   34  C19 UNL     1     -45.676 -53.872 -10.942  1.00  0.00     0.254 C 
HETATM   35  N6  UNL     1     -44.799 -53.284  -9.937  1.00  0.00    -0.058 N 
ATOM     36  H62 UNL     1     -43.809 -53.477 -10.095  1.00  0.00     0.279 HD
ATOM     37  H61 UNL     1     -44.735 -52.268  -9.994  1.00  0.00     0.279 HD
ATOM     38  H3  UNL     1     -48.459 -55.308  -6.443  1.00  0.00     0.162 HD
ENDBRANCH  27  28
ENDBRANCH  26  27
ENDBRANCH   4  26
TORSDOF 7
ENDMDL
MODEL 5
REMARK VINA RESULT: -7.461507627      2.678      5.767
REMARK  7 active torsions:
REMARK  status: ('A' for Active; 'I' for Inactive)
REMARK    1  A    between atoms: C10_10  and  C11_11 
REMARK    2  A    between atoms: C11_11  and  C12_13 
REMARK    3  A    between atoms: C12_13  and  N1_14 
REMARK    4  A    between atoms: N2_17  and  C15_18 
REMARK    5  A    between atoms: C15_18  and  C16_19 
REMARK    6  A    between atoms: C16_19  and  N3_20 
REMARK       I    between atoms: C17_22  and  N5_24 
REMARK    7  A    between atoms: C25_35  and  O2_36 
ROOT
HETATM    1  N1  UNL     1     -43.678 -51.141 -10.867  1.00  0.00     0.098 N 
HETATM    2  C13 UNL     1     -43.401 -51.914  -9.645  1.00  0.00     0.303 C 
HETATM    3  C14 UNL     1     -44.547 -51.972  -8.697  1.00  0.00     0.302 C 
HETATM    4  N2  UNL     1     -45.692 -52.669  -9.269  1.00  0.00     0.093 N 
HETATM    5  C21 UNL     1     -45.485 -52.837 -10.668  1.00  0.00     0.302 C 
HETATM    6  C22 UNL     1     -44.981 -51.614 -11.367  1.00  0.00     0.303 C 
ENDROOT
BRANCH   1   7
HETATM    7  C12 UNL     1     -43.876 -49.799 -10.445  1.00  0.00     0.351 C 
BRANCH   7   8
HETATM    8  C11 UNL     1     -42.735 -49.011  -9.971  1.00  0.00     0.164 C 
HETATM    9  O1  UNL     1     -41.677 -49.231 -10.595  1.00  0.00    -0.295 OA
BRANCH   8  10
HETATM   10  C10 UNL     1     -42.661 -48.020  -8.891  1.00  0.00     0.033 C 
HETATM   11  C9  UNL     1     -41.636 -46.915  -9.126  1.00  0.00     0.010 C 
HETATM   12  C2  UNL     1     -41.999 -45.917 -10.165  1.00  0.00    -0.042 C 
HETATM   13  C8  UNL     1     -41.559 -46.080  -7.842  1.00  0.00     0.007 C 
HETATM   14  C1  UNL     1     -40.953 -44.783 -10.054  1.00  0.00     0.015 C 
HETATM   15  C3  UNL     1     -41.868 -46.327 -11.616  1.00  0.00     0.015 C 
HETATM   16  C4  UNL     1     -43.394 -45.412  -9.872  1.00  0.00     0.018 C 
HETATM   17  C5  UNL     1     -43.875 -45.849  -8.501  1.00  0.00    -0.036 C 
HETATM   18  C6  UNL     1     -45.251 -45.300  -8.273  1.00  0.00     0.015 C 
HETATM   19  C7  UNL     1     -42.845 -45.355  -7.537  1.00  0.00     0.010 C 
HETATM   20  C26 UNL     1     -43.936 -47.388  -8.464  1.00  0.00     0.039 C 
HETATM   21  C25 UNL     1     -44.262 -47.852  -7.066  1.00  0.00     0.124 C 
HETATM   22  C24 UNL     1     -43.239 -48.873  -6.677  1.00  0.00     0.033 C 
HETATM   23  C23 UNL     1     -42.139 -48.810  -7.672  1.00  0.00     0.020 C 
BRANCH  21  24
HETATM   24  O2  UNL     1     -45.539 -48.387  -6.933  1.00  0.00    -0.395 OA
ATOM     25  H2  UNL     1     -45.797 -48.811  -7.744  1.00  0.00     0.210 HD
ENDBRANCH  21  24
ENDBRANCH   8  10
ENDBRANCH   7   8
ENDBRANCH   1   7
BRANCH   4  26
HETATM   26  C15 UNL     1     -46.920 -52.017  -8.893  1.00  0.00     0.292 C 
BRANCH  26  27
HETATM   27  C16 UNL     1     -47.685 -52.912  -7.910  1.00  0.00     0.152 C 
BRANCH  27  28
HETATM   28  N3  UNL     1     -48.676 -52.205  -7.168  1.00  0.00    -0.363 N 
HETATM   29  C17 UNL     1     -48.630 -51.766  -5.983  1.00  0.00     0.187 C 
HETATM   30  N4  UNL     1     -49.765 -51.084  -5.467  1.00  0.00    -0.064 NA
HETATM   31  N5  UNL     1     -47.503 -51.934  -5.164  1.00  0.00    -0.331 N 
HETATM   32  C18 UNL     1     -47.402 -52.837  -3.997  1.00  0.00     0.154 C 
HETATM   33  C20 UNL     1     -46.235 -51.274  -5.276  1.00  0.00     0.359 C 
HETATM   34  C19 UNL     1     -46.540 -51.987  -3.084  1.00  0.00     0.254 C 
HETATM   35  N6  UNL     1     -45.525 -51.529  -4.023  1.00  0.00    -0.058 N 
ATOM     36  H62 UNL     1     -44.988 -50.729  -3.687  1.00  0.00     0.279 HD
ATOM     37  H61 UNL     1     -44.739 -52.170  -4.122  1.00  0.00     0.279 HD
ATOM     38  H3  UNL     1     -49.548 -52.026  -7.666  1.00  0.00     0.162 HD
ENDBRANCH  27  28
ENDBRANCH  26  27
ENDBRANCH   4  26
TORSDOF 7
ENDMDL
