MODEL 1
REMARK VINA RESULT: -6.051733907      0.000      0.000
REMARK  8 active torsions:
REMARK  status: ('A' for Active; 'I' for Inactive)
REMARK    1  A    between atoms: C2_2  and  N1_3 
REMARK    2  A    between atoms: C14_20  and  O3_21 
REMARK    3  A    between atoms: N4_23  and  C15_24 
REMARK    4  A    between atoms: C15_24  and  C17_26 
REMARK    5  A    between atoms: C17_26  and  O4_27 
REMARK    6  A    between atoms: C21_32  and  C22_33 
REMARK    7  A    between atoms: C22_33  and  N5_34 
REMARK    8  A    between atoms: N5_34  and  C23_37 
ROOT
HETATM    1  N1  UNL     1     -46.054 -51.999  -7.630  1.00  0.00    -0.315 N 
HETATM    2  C3  UNL     1     -44.943 -51.064  -7.719  1.00  0.00     0.221 C 
HETATM    3  N2  UNL     1     -44.513 -50.597  -6.619  1.00  0.00    -0.360 N 
ATOM      4  H2  UNL     1     -45.030 -50.961  -5.819  1.00  0.00     0.162 HD
HETATM    5  C4  UNL     1     -43.505 -49.707  -6.234  1.00  0.00     0.150 C 
HETATM    6  O1  UNL     1     -44.367 -50.685  -8.848  1.00  0.00    -0.317 OA
HETATM    7  C5  UNL     1     -44.462 -49.970  -9.993  1.00  0.00     0.128 C 
HETATM    8  C6  UNL     1     -45.136 -48.600  -9.809  1.00  0.00     0.040 C 
HETATM    9  C7  UNL     1     -43.024 -49.600 -10.414  1.00  0.00     0.032 C 
HETATM   10  C8  UNL     1     -42.634 -50.232 -11.729  1.00  0.00     0.012 C 
HETATM   11  C9  UNL     1     -42.340 -51.725 -11.600  1.00  0.00     0.103 C 
HETATM   12  C10 UNL     1     -42.539 -52.376 -12.912  1.00  0.00     0.220 C 
HETATM   13  O2  UNL     1     -42.263 -51.632 -13.924  1.00  0.00    -0.273 OA
HETATM   14  N3  UNL     1     -42.978 -53.669 -13.199  1.00  0.00    -0.345 N 
HETATM   15  C11 UNL     1     -42.159 -54.504 -14.104  1.00  0.00     0.153 C 
HETATM   16  C12 UNL     1     -44.199 -54.312 -12.691  1.00  0.00     0.157 C 
HETATM   17  C13 UNL     1     -45.371 -53.426 -12.644  1.00  0.00     0.041 C 
HETATM   18  C14 UNL     1     -43.829 -55.116 -11.539  1.00  0.00     0.141 C 
HETATM   19  N4  UNL     1     -44.369 -55.218 -10.229  1.00  0.00    -0.333 N 
HETATM   20  C18 UNL     1     -44.884 -54.169  -9.418  1.00  0.00     0.102 C 
HETATM   21  C19 UNL     1     -46.305 -54.070  -9.060  1.00  0.00    -0.022 C 
HETATM   22  C20 UNL     1     -46.926 -55.059  -8.166  1.00  0.00     0.052 C 
HETATM   23  C21 UNL     1     -46.632 -52.611  -8.772  1.00  0.00     0.048 C 
ENDROOT
BRANCH  23  24
HETATM   24  C22 UNL     1     -48.059 -52.285  -9.124  1.00  0.00     0.290 C 
BRANCH  24  25
HETATM   25  N5  UNL     1     -48.541 -53.155 -10.212  1.00  0.00    -0.066 N 
ATOM     26  H52 UNL     1     -48.382 -52.732 -11.126  1.00  0.00     0.278 HD
ATOM     27  H51 UNL     1     -47.954 -53.982 -10.317  1.00  0.00     0.278 HD
BRANCH  25  28
HETATM   28  C23 UNL     1     -49.909 -53.506 -10.032  1.00  0.00     0.186 A 
HETATM   29  C24 UNL     1     -50.886 -52.682  -9.257  1.00  0.00     0.035 A 
HETATM   30  C25 UNL     1     -50.465 -54.043  -8.746  1.00  0.00     0.035 A 
ENDBRANCH  25  28
ENDBRANCH  24  25
ENDBRANCH  23  24
BRANCH   1  31
HETATM   31  C2  UNL     1     -46.589 -52.417  -6.348  1.00  0.00     0.128 C 
HETATM   32  C1  UNL     1     -47.701 -51.601  -5.761  1.00  0.00     0.027 C 
ENDBRANCH   1  31
BRANCH  19  33
HETATM   33  C15 UNL     1     -44.321 -56.548  -9.659  1.00  0.00     0.110 C 
HETATM   34  C16 UNL     1     -45.673 -57.232  -9.976  1.00  0.00     0.035 C 
BRANCH  33  35
HETATM   35  C17 UNL     1     -44.041 -56.577  -8.179  1.00  0.00     0.189 C 
BRANCH  35  36
HETATM   36  O4  UNL     1     -42.694 -56.806  -7.907  1.00  0.00    -0.399 OA
ATOM     37  H4  UNL     1     -42.571 -57.529  -7.304  1.00  0.00     0.209 HD
ENDBRANCH  35  36
ENDBRANCH  33  35
ENDBRANCH  19  33
BRANCH  18  38
HETATM   38  O3  UNL     1     -42.794 -55.860 -11.849  1.00  0.00    -0.348 OA
ATOM     39  H3  UNL     1     -42.799 -56.640 -11.307  1.00  0.00     0.219 HD
ENDBRANCH  18  38
TORSDOF 8
ENDMDL
MODEL 2
REMARK VINA RESULT: -5.621959124      2.321      6.317
REMARK  8 active torsions:
REMARK  status: ('A' for Active; 'I' for Inactive)
REMARK    1  A    between atoms: C2_2  and  N1_3 
REMARK    2  A    between atoms: C14_20  and  O3_21 
REMARK    3  A    between atoms: N4_23  and  C15_24 
REMARK    4  A    between atoms: C15_24  and  C17_26 
REMARK    5  A    between atoms: C17_26  and  O4_27 
REMARK    6  A    between atoms: C21_32  and  C22_33 
REMARK    7  A    between atoms: C22_33  and  N5_34 
REMARK    8  A    between atoms: N5_34  and  C23_37 
ROOT
HETATM    1  N1  UNL     1     -44.190 -54.781 -11.578  1.00  0.00    -0.315 N 
HETATM    2  C3  UNL     1     -44.338 -54.860 -10.133  1.00  0.00     0.221 C 
HETATM    3  N2  UNL     1     -43.959 -55.942  -9.588  1.00  0.00    -0.360 N 
ATOM      4  H2  UNL     1     -43.599 -56.610 -10.270  1.00  0.00     0.162 HD
HETATM    5  C4  UNL     1     -43.912 -56.445  -8.284  1.00  0.00     0.150 C 
HETATM    6  O1  UNL     1     -44.826 -53.894  -9.372  1.00  0.00    -0.317 OA
HETATM    7  C5  UNL     1     -45.913 -53.187  -8.985  1.00  0.00     0.128 C 
HETATM    8  C6  UNL     1     -47.175 -54.047  -8.803  1.00  0.00     0.040 C 
HETATM    9  C7  UNL     1     -45.630 -52.673  -7.557  1.00  0.00     0.032 C 
HETATM   10  C8  UNL     1     -45.564 -51.164  -7.497  1.00  0.00     0.012 C 
HETATM   11  C9  UNL     1     -44.268 -50.610  -8.083  1.00  0.00     0.103 C 
HETATM   12  C10 UNL     1     -44.490 -49.216  -8.523  1.00  0.00     0.220 C 
HETATM   13  O2  UNL     1     -45.346 -48.565  -7.819  1.00  0.00    -0.273 OA
HETATM   14  N3  UNL     1     -43.905 -48.521  -9.582  1.00  0.00    -0.345 N 
HETATM   15  C11 UNL     1     -43.284 -47.208  -9.302  1.00  0.00     0.153 C 
HETATM   16  C12 UNL     1     -43.838 -48.956 -10.984  1.00  0.00     0.157 C 
HETATM   17  C13 UNL     1     -45.066 -49.599 -11.475  1.00  0.00     0.041 C 
HETATM   18  C14 UNL     1     -42.541 -49.577 -11.193  1.00  0.00     0.141 C 
HETATM   19  N4  UNL     1     -42.154 -50.811 -11.782  1.00  0.00    -0.333 N 
HETATM   20  C18 UNL     1     -42.817 -52.066 -11.685  1.00  0.00     0.102 C 
HETATM   21  C19 UNL     1     -43.459 -52.713 -12.836  1.00  0.00    -0.022 C 
HETATM   22  C20 UNL     1     -42.656 -53.229 -13.954  1.00  0.00     0.052 C 
HETATM   23  C21 UNL     1     -44.560 -53.632 -12.323  1.00  0.00     0.048 C 
ENDROOT
BRANCH  23  24
HETATM   24  C22 UNL     1     -45.692 -53.741 -13.309  1.00  0.00     0.290 C 
BRANCH  24  25
HETATM   25  N5  UNL     1     -46.881 -54.342 -12.676  1.00  0.00    -0.066 N 
ATOM     26  H52 UNL     1     -46.628 -54.898 -11.860  1.00  0.00     0.278 HD
ATOM     27  H51 UNL     1     -47.455 -53.636 -12.215  1.00  0.00     0.278 HD
BRANCH  25  28
HETATM   28  C23 UNL     1     -47.640 -55.102 -13.609  1.00  0.00     0.186 A 
HETATM   29  C24 UNL     1     -47.118 -55.558 -14.934  1.00  0.00     0.035 A 
HETATM   30  C25 UNL     1     -48.225 -54.529 -14.867  1.00  0.00     0.035 A 
ENDBRANCH  25  28
ENDBRANCH  24  25
ENDBRANCH  23  24
BRANCH   1  31
HETATM   31  C2  UNL     1     -43.583 -55.860 -12.335  1.00  0.00     0.128 C 
HETATM   32  C1  UNL     1     -44.459 -57.011 -12.728  1.00  0.00     0.027 C 
ENDBRANCH   1  31
BRANCH  19  33
HETATM   33  C15 UNL     1     -40.903 -50.764 -12.511  1.00  0.00     0.110 C 
HETATM   34  C16 UNL     1     -39.763 -50.909 -11.473  1.00  0.00     0.035 C 
BRANCH  33  35
HETATM   35  C17 UNL     1     -40.718 -49.519 -13.338  1.00  0.00     0.189 C 
BRANCH  35  36
HETATM   36  O4  UNL     1     -39.504 -48.889 -13.069  1.00  0.00    -0.399 OA
ATOM     37  H4  UNL     1     -39.627 -48.036 -12.671  1.00  0.00     0.209 HD
ENDBRANCH  35  36
ENDBRANCH  33  35
ENDBRANCH  19  33
BRANCH  18  38
HETATM   38  O3  UNL     1     -41.606 -48.788 -10.722  1.00  0.00    -0.348 OA
ATOM     39  H3  UNL     1     -41.343 -49.095  -9.863  1.00  0.00     0.219 HD
ENDBRANCH  18  38
TORSDOF 8
ENDMDL
MODEL 3
REMARK VINA RESULT: -5.502976919      1.216      1.453
REMARK  8 active torsions:
REMARK  status: ('A' for Active; 'I' for Inactive)
REMARK    1  A    between atoms: C2_2  and  N1_3 
REMARK    2  A    between atoms: C14_20  and  O3_21 
REMARK    3  A    between atoms: N4_23  and  C15_24 
REMARK    4  A    between atoms: C15_24  and  C17_26 
REMARK    5  A    between atoms: C17_26  and  O4_27 
REMARK    6  A    between atoms: C21_32  and  C22_33 
REMARK    7  A    between atoms: C22_33  and  N5_34 
REMARK    8  A    between atoms: N5_34  and  C23_37 
ROOT
HETATM    1  N1  UNL     1     -45.820 -51.877  -8.061  1.00  0.00    -0.315 N 
HETATM    2  C3  UNL     1     -44.646 -51.142  -8.504  1.00  0.00     0.221 C 
HETATM    3  N2  UNL     1     -44.053 -50.447  -7.622  1.00  0.00    -0.360 N 
ATOM      4  H2  UNL     1     -44.509 -50.513  -6.711  1.00  0.00     0.162 HD
HETATM    5  C4  UNL     1     -42.931 -49.613  -7.590  1.00  0.00     0.150 C 
HETATM    6  O1  UNL     1     -44.167 -51.159  -9.738  1.00  0.00    -0.317 OA
HETATM    7  C5  UNL     1     -44.325 -50.780 -11.026  1.00  0.00     0.128 C 
HETATM    8  C6  UNL     1     -44.845 -49.340 -11.186  1.00  0.00     0.040 C 
HETATM    9  C7  UNL     1     -42.915 -50.714 -11.652  1.00  0.00     0.032 C 
HETATM   10  C8  UNL     1     -42.735 -51.725 -12.760  1.00  0.00     0.012 C 
HETATM   11  C9  UNL     1     -42.568 -53.148 -12.236  1.00  0.00     0.103 C 
HETATM   12  C10 UNL     1     -42.972 -54.106 -13.288  1.00  0.00     0.220 C 
HETATM   13  O2  UNL     1     -42.744 -53.706 -14.489  1.00  0.00    -0.273 OA
HETATM   14  N3  UNL     1     -43.558 -55.365 -13.158  1.00  0.00    -0.345 N 
HETATM   15  C11 UNL     1     -42.926 -56.508 -13.852  1.00  0.00     0.153 C 
HETATM   16  C12 UNL     1     -44.767 -55.693 -12.390  1.00  0.00     0.157 C 
HETATM   17  C13 UNL     1     -45.841 -54.694 -12.500  1.00  0.00     0.041 C 
HETATM   18  C14 UNL     1     -44.346 -56.189 -11.091  1.00  0.00     0.141 C 
HETATM   19  N4  UNL     1     -44.743 -55.862  -9.766  1.00  0.00    -0.333 N 
HETATM   20  C18 UNL     1     -45.064 -54.577  -9.248  1.00  0.00     0.102 C 
HETATM   21  C19 UNL     1     -46.421 -54.215  -8.817  1.00  0.00    -0.022 C 
HETATM   22  C20 UNL     1     -47.025 -54.839  -7.631  1.00  0.00     0.052 C 
HETATM   23  C21 UNL     1     -46.577 -52.705  -8.931  1.00  0.00     0.048 C 
ENDROOT
BRANCH  23  24
HETATM   24  C22 UNL     1     -47.999 -52.319  -9.242  1.00  0.00     0.290 C 
BRANCH  24  25
HETATM   25  N5  UNL     1     -48.586 -53.239 -10.234  1.00  0.00    -0.066 N 
ATOM     26  H52 UNL     1     -48.402 -52.927 -11.187  1.00  0.00     0.278 HD
ATOM     27  H51 UNL     1     -48.086 -54.128 -10.259  1.00  0.00     0.278 HD
BRANCH  25  28
HETATM   28  C23 UNL     1     -49.977 -53.430 -10.008  1.00  0.00     0.186 A 
HETATM   29  C24 UNL     1     -50.771 -52.667  -8.997  1.00  0.00     0.035 A 
HETATM   30  C25 UNL     1     -50.534 -54.150  -8.814  1.00  0.00     0.035 A 
ENDBRANCH  25  28
ENDBRANCH  24  25
ENDBRANCH  23  24
BRANCH   1  31
HETATM   31  C2  UNL     1     -46.245 -51.860  -6.674  1.00  0.00     0.128 C 
HETATM   32  C1  UNL     1     -47.028 -50.673  -6.202  1.00  0.00     0.027 C 
ENDBRANCH   1  31
BRANCH  19  33
HETATM   33  C15 UNL     1     -44.753 -56.982  -8.847  1.00  0.00     0.110 C 
HETATM   34  C16 UNL     1     -43.340 -57.072  -8.220  1.00  0.00     0.035 C 
BRANCH  33  35
HETATM   35  C17 UNL     1     -45.144 -58.294  -9.477  1.00  0.00     0.189 C 
BRANCH  35  36
HETATM   36  O4  UNL     1     -44.214 -59.297  -9.211  1.00  0.00    -0.399 OA
ATOM     37  H4  UNL     1     -43.948 -59.303  -8.300  1.00  0.00     0.209 HD
ENDBRANCH  35  36
ENDBRANCH  33  35
ENDBRANCH  19  33
BRANCH  18  38
HETATM   38  O3  UNL     1     -43.426 -57.108 -11.260  1.00  0.00    -0.348 OA
ATOM     39  H3  UNL     1     -43.486 -57.742 -10.555  1.00  0.00     0.219 HD
ENDBRANCH  18  38
TORSDOF 8
ENDMDL
MODEL 4
REMARK VINA RESULT: -5.476932944      5.024      9.489
REMARK  8 active torsions:
REMARK  status: ('A' for Active; 'I' for Inactive)
REMARK    1  A    between atoms: C2_2  and  N1_3 
REMARK    2  A    between atoms: C14_20  and  O3_21 
REMARK    3  A    between atoms: N4_23  and  C15_24 
REMARK    4  A    between atoms: C15_24  and  C17_26 
REMARK    5  A    between atoms: C17_26  and  O4_27 
REMARK    6  A    between atoms: C21_32  and  C22_33 
REMARK    7  A    between atoms: C22_33  and  N5_34 
REMARK    8  A    between atoms: N5_34  and  C23_37 
ROOT
HETATM    1  N1  UNL     1     -42.062 -57.481 -17.043  1.00  0.00    -0.315 N 
HETATM    2  C3  UNL     1     -40.936 -58.301 -16.626  1.00  0.00     0.221 C 
HETATM    3  N2  UNL     1     -39.841 -58.106 -17.240  1.00  0.00    -0.360 N 
ATOM      4  H2  UNL     1     -39.926 -57.382 -17.954  1.00  0.00     0.162 HD
HETATM    5  C4  UNL     1     -38.550 -58.638 -17.180  1.00  0.00     0.150 C 
HETATM    6  O1  UNL     1     -40.981 -59.212 -15.667  1.00  0.00    -0.317 OA
HETATM    7  C5  UNL     1     -41.424 -60.427 -15.268  1.00  0.00     0.128 C 
HETATM    8  C6  UNL     1     -41.342 -61.502 -16.365  1.00  0.00     0.040 C 
HETATM    9  C7  UNL     1     -40.433 -60.938 -14.201  1.00  0.00     0.032 C 
HETATM   10  C8  UNL     1     -41.084 -61.094 -12.846  1.00  0.00     0.012 C 
HETATM   11  C9  UNL     1     -41.326 -59.756 -12.153  1.00  0.00     0.103 C 
HETATM   12  C10 UNL     1     -42.427 -59.903 -11.179  1.00  0.00     0.220 C 
HETATM   13  O2  UNL     1     -42.505 -61.066 -10.635  1.00  0.00    -0.273 OA
HETATM   14  N3  UNL     1     -43.379 -58.968 -10.773  1.00  0.00    -0.345 N 
HETATM   15  C11 UNL     1     -43.553 -58.727  -9.325  1.00  0.00     0.153 C 
HETATM   16  C12 UNL     1     -44.255 -58.175 -11.647  1.00  0.00     0.157 C 
HETATM   17  C13 UNL     1     -44.799 -58.921 -12.792  1.00  0.00     0.041 C 
HETATM   18  C14 UNL     1     -43.633 -56.876 -11.836  1.00  0.00     0.141 C 
HETATM   19  N4  UNL     1     -43.362 -56.104 -12.998  1.00  0.00    -0.333 N 
HETATM   20  C18 UNL     1     -42.933 -56.571 -14.271  1.00  0.00     0.102 C 
HETATM   21  C19 UNL     1     -43.777 -56.489 -15.470  1.00  0.00    -0.022 C 
HETATM   22  C20 UNL     1     -44.111 -55.188 -16.066  1.00  0.00     0.052 C 
HETATM   23  C21 UNL     1     -43.344 -57.579 -16.441  1.00  0.00     0.048 C 
ENDROOT
BRANCH  23  24
HETATM   24  C22 UNL     1     -44.500 -58.067 -17.274  1.00  0.00     0.290 C 
BRANCH  24  25
HETATM   25  N5  UNL     1     -45.590 -58.565 -16.416  1.00  0.00    -0.066 N 
ATOM     26  H52 UNL     1     -45.580 -59.582 -16.352  1.00  0.00     0.278 HD
ATOM     27  H51 UNL     1     -45.422 -58.343 -15.434  1.00  0.00     0.278 HD
BRANCH  25  28
HETATM   28  C23 UNL     1     -46.856 -58.083 -16.849  1.00  0.00     0.186 A 
HETATM   29  C24 UNL     1     -47.038 -56.884 -17.724  1.00  0.00     0.035 A 
HETATM   30  C25 UNL     1     -47.514 -56.855 -16.289  1.00  0.00     0.035 A 
ENDBRANCH  25  28
ENDBRANCH  24  25
ENDBRANCH  23  24
BRANCH   1  31
HETATM   31  C2  UNL     1     -41.916 -56.456 -18.059  1.00  0.00     0.128 C 
HETATM   32  C1  UNL     1     -42.156 -56.852 -19.485  1.00  0.00     0.027 C 
ENDBRANCH   1  31
BRANCH  19  33
HETATM   33  C15 UNL     1     -43.490 -54.673 -12.813  1.00  0.00     0.110 C 
HETATM   34  C16 UNL     1     -44.980 -54.314 -13.039  1.00  0.00     0.035 C 
BRANCH  33  35
HETATM   35  C17 UNL     1     -42.601 -53.852 -13.711  1.00  0.00     0.189 C 
BRANCH  35  36
HETATM   36  O4  UNL     1     -41.283 -53.830 -13.260  1.00  0.00    -0.399 OA
ATOM     37  H4  UNL     1     -40.794 -53.104 -13.626  1.00  0.00     0.209 HD
ENDBRANCH  35  36
ENDBRANCH  33  35
ENDBRANCH  19  33
BRANCH  18  38
HETATM   38  O3  UNL     1     -43.287 -56.391 -10.668  1.00  0.00    -0.348 OA
ATOM     39  H3  UNL     1     -42.376 -56.125 -10.699  1.00  0.00     0.219 HD
ENDBRANCH  18  38
TORSDOF 8
ENDMDL
MODEL 5
REMARK VINA RESULT: -5.428559284      2.930      7.061
REMARK  8 active torsions:
REMARK  status: ('A' for Active; 'I' for Inactive)
REMARK    1  A    between atoms: C2_2  and  N1_3 
REMARK    2  A    between atoms: C14_20  and  O3_21 
REMARK    3  A    between atoms: N4_23  and  C15_24 
REMARK    4  A    between atoms: C15_24  and  C17_26 
REMARK    5  A    between atoms: C17_26  and  O4_27 
REMARK    6  A    between atoms: C21_32  and  C22_33 
REMARK    7  A    between atoms: C22_33  and  N5_34 
REMARK    8  A    between atoms: N5_34  and  C23_37 
ROOT
HETATM    1  N1  UNL     1     -45.808 -58.752 -10.870  1.00  0.00    -0.315 N 
HETATM    2  C3  UNL     1     -45.565 -58.410 -12.262  1.00  0.00     0.221 C 
HETATM    3  N2  UNL     1     -46.045 -59.207 -13.128  1.00  0.00    -0.360 N 
ATOM      4  H2  UNL     1     -46.541 -59.987 -12.697  1.00  0.00     0.162 HD
HETATM    5  C4  UNL     1     -46.062 -59.278 -14.524  1.00  0.00     0.150 C 
HETATM    6  O1  UNL     1     -44.896 -57.345 -12.671  1.00  0.00    -0.317 OA
HETATM    7  C5  UNL     1     -43.698 -56.726 -12.787  1.00  0.00     0.128 C 
HETATM    8  C6  UNL     1     -42.553 -57.672 -13.191  1.00  0.00     0.040 C 
HETATM    9  C7  UNL     1     -43.802 -55.768 -13.992  1.00  0.00     0.032 C 
HETATM   10  C8  UNL     1     -43.660 -54.320 -13.584  1.00  0.00     0.012 C 
HETATM   11  C9  UNL     1     -44.909 -53.779 -12.893  1.00  0.00     0.103 C 
HETATM   12  C10 UNL     1     -44.535 -52.635 -12.035  1.00  0.00     0.220 C 
HETATM   13  O2  UNL     1     -43.548 -51.938 -12.477  1.00  0.00    -0.273 OA
HETATM   14  N3  UNL     1     -45.098 -52.213 -10.830  1.00  0.00    -0.345 N 
HETATM   15  C11 UNL     1     -45.513 -50.800 -10.707  1.00  0.00     0.153 C 
HETATM   16  C12 UNL     1     -45.327 -53.037  -9.635  1.00  0.00     0.157 C 
HETATM   17  C13 UNL     1     -44.237 -53.976  -9.332  1.00  0.00     0.041 C 
HETATM   18  C14 UNL     1     -46.708 -53.489  -9.668  1.00  0.00     0.141 C 
HETATM   19  N4  UNL     1     -47.300 -54.770  -9.502  1.00  0.00    -0.333 N 
HETATM   20  C18 UNL     1     -46.808 -56.021  -9.965  1.00  0.00     0.102 C 
HETATM   21  C19 UNL     1     -46.345 -57.076  -9.053  1.00  0.00    -0.022 C 
HETATM   22  C20 UNL     1     -47.292 -57.779  -8.174  1.00  0.00     0.052 C 
HETATM   23  C21 UNL     1     -45.344 -57.951  -9.794  1.00  0.00     0.048 C 
ENDROOT
BRANCH  23  24
HETATM   24  C22 UNL     1     -44.313 -58.524  -8.858  1.00  0.00     0.290 C 
BRANCH  24  25
HETATM   25  N5  UNL     1     -42.974 -58.500  -9.475  1.00  0.00    -0.066 N 
ATOM     26  H52 UNL     1     -42.980 -57.987 -10.357  1.00  0.00     0.278 HD
ATOM     27  H51 UNL     1     -42.332 -57.905  -8.951  1.00  0.00     0.278 HD
BRANCH  25  28
HETATM   28  C23 UNL     1     -42.452 -59.813  -9.640  1.00  0.00     0.186 A 
HETATM   29  C24 UNL     1     -41.162 -60.278  -9.045  1.00  0.00     0.035 A 
HETATM   30  C25 UNL     1     -41.300 -60.141 -10.545  1.00  0.00     0.035 A 
ENDBRANCH  25  28
ENDBRANCH  24  25
ENDBRANCH  23  24
BRANCH   1  31
HETATM   31  C2  UNL     1     -46.610 -59.904 -10.502  1.00  0.00     0.128 C 
HETATM   32  C1  UNL     1     -45.909 -61.222 -10.366  1.00  0.00     0.027 C 
ENDBRANCH   1  31
BRANCH  19  33
HETATM   33  C15 UNL     1     -48.584 -54.757  -8.832  1.00  0.00     0.110 C 
HETATM   34  C16 UNL     1     -49.597 -54.094  -9.797  1.00  0.00     0.035 C 
BRANCH  33  35
HETATM   35  C17 UNL     1     -48.578 -54.055  -7.499  1.00  0.00     0.189 C 
BRANCH  35  36
HETATM   36  O4  UNL     1     -47.602 -54.566  -6.645  1.00  0.00    -0.399 OA
ATOM     37  H4  UNL     1     -46.744 -54.576  -7.052  1.00  0.00     0.209 HD
ENDBRANCH  35  36
ENDBRANCH  33  35
ENDBRANCH  19  33
BRANCH  18  38
HETATM   38  O3  UNL     1     -47.490 -52.463  -9.898  1.00  0.00    -0.348 OA
ATOM     39  H3  UNL     1     -47.961 -52.605 -10.710  1.00  0.00     0.219 HD
ENDBRANCH  18  38
TORSDOF 8
ENDMDL
