MODEL 1
REMARK VINA RESULT: -5.451545896      0.000      0.000
REMARK  13 active torsions:
REMARK  status: ('A' for Active; 'I' for Inactive)
REMARK    1  A    between atoms: O1_2  and  C2_3 
REMARK    2  A    between atoms: C3_4  and  O2_5 
REMARK    3  A    between atoms: C9_14  and  O5_16 
REMARK    4  A    between atoms: O5_16  and  N1_17 
REMARK    5  A    between atoms: N1_17  and  C12_19 
REMARK    6  A    between atoms: C12_19  and  O6_20 
REMARK    7  A    between atoms: C12_19  and  C13_22 
REMARK    8  A    between atoms: C13_22  and  O7_23 
REMARK    9  A    between atoms: C13_22  and  O8_25 
REMARK   10  A    between atoms: O8_25  and  C14_26 
REMARK   11  A    between atoms: C14_26  and  O9_28 
REMARK   12  A    between atoms: C14_26  and  C16_30 
REMARK   13  A    between atoms: C16_30  and  O10_31 
ROOT
HETATM    1  O5  UNL     1      37.219   9.429  66.411  1.00  0.00    -0.263 OA
ENDROOT
BRANCH   1   2
HETATM    2  C9  UNL     1      37.854  10.504  66.386  1.00  0.00     0.135 C 
HETATM    3  C4  UNL     1      38.724  10.810  67.602  1.00  0.00     0.103 A 
HETATM    4  O3  UNL     1      38.451  11.310  68.783  1.00  0.00    -0.286 OA
HETATM    5  C5  UNL     1      40.028  10.471  67.339  1.00  0.00     0.028 A 
HETATM    6  C3  UNL     1      39.359  11.498  69.710  1.00  0.00     0.222 A 
HETATM    7  C2  UNL     1      40.693  11.172  69.498  1.00  0.00     0.178 A 
HETATM    8  C6  UNL     1      41.041  10.643  68.277  1.00  0.00     0.218 A 
HETATM    9  O4  UNL     1      42.230  10.334  68.040  1.00  0.00    -0.285 OA
HETATM   10  C7  UNL     1      40.102   9.936  65.971  1.00  0.00     0.049 C 
HETATM   11  C8  UNL     1      38.934  10.664  65.294  1.00  0.00     0.052 C 
HETATM   12  C10 UNL     1      37.012  11.800  66.214  1.00  0.00     0.056 C 
BRANCH   6  13
HETATM   13  O2  UNL     1      39.000  12.027  70.926  1.00  0.00    -0.339 OA
ATOM     14  H2  UNL     1      38.348  12.718  70.945  1.00  0.00     0.220 HD
ENDBRANCH   6  13
BRANCH   7  15
HETATM   15  O1  UNL     1      41.662  11.360  70.458  1.00  0.00    -0.348 OA
HETATM   16  C1  UNL     1      41.986  12.656  70.878  1.00  0.00     0.210 C 
ENDBRANCH   7  15
ENDBRANCH   1   2
BRANCH   1  17
HETATM   17  N1  UNL     1      36.570   8.433  66.431  1.00  0.00    -0.263 N 
HETATM   18  C11 UNL     1      36.449   7.581  65.257  1.00  0.00     0.182 C 
BRANCH  17  19
HETATM   19  C12 UNL     1      35.463   8.255  67.357  1.00  0.00     0.296 C 
BRANCH  19  20
HETATM   20  O6  UNL     1      35.858   8.655  68.608  1.00  0.00    -0.370 OA
ATOM     21  H6  UNL     1      35.111   8.626  69.194  1.00  0.00     0.212 HD
ENDBRANCH  19  20
BRANCH  19  22
HETATM   22  C13 UNL     1      34.223   9.056  66.936  1.00  0.00     0.311 C 
BRANCH  22  23
HETATM   23  O7  UNL     1      33.134   8.155  66.844  1.00  0.00    -0.367 OA
ATOM     24  H7  UNL     1      33.229   7.512  67.538  1.00  0.00     0.212 HD
ENDBRANCH  22  23
BRANCH  22  25
HETATM   25  O8  UNL     1      34.078  10.122  67.549  1.00  0.00    -0.319 OA
BRANCH  25  26
HETATM   26  C14 UNL     1      33.925  11.196  68.157  1.00  0.00     0.182 C 
HETATM   27  C15 UNL     1      33.698  12.362  67.166  1.00  0.00     0.081 C 
BRANCH  26  28
HETATM   28  O9  UNL     1      32.872  11.295  69.107  1.00  0.00    -0.364 OA
ATOM     29  H9  UNL     1      32.231  11.990  69.006  1.00  0.00     0.213 HD
ENDBRANCH  26  28
BRANCH  26  30
HETATM   30  C16 UNL     1      35.153  11.664  69.003  1.00  0.00     0.232 C 
BRANCH  30  31
HETATM   31  O10 UNL     1      35.611  12.893  68.543  1.00  0.00    -0.396 OA
ATOM     32  H10 UNL     1      36.403  12.776  68.032  1.00  0.00     0.209 HD
ENDBRANCH  30  31
ENDBRANCH  26  30
ENDBRANCH  25  26
ENDBRANCH  22  25
ENDBRANCH  19  22
ENDBRANCH  17  19
ENDBRANCH   1  17
TORSDOF 13
ENDMDL
MODEL 2
REMARK VINA RESULT: -5.346648791      2.961      7.514
REMARK  13 active torsions:
REMARK  status: ('A' for Active; 'I' for Inactive)
REMARK    1  A    between atoms: O1_2  and  C2_3 
REMARK    2  A    between atoms: C3_4  and  O2_5 
REMARK    3  A    between atoms: C9_14  and  O5_16 
REMARK    4  A    between atoms: O5_16  and  N1_17 
REMARK    5  A    between atoms: N1_17  and  C12_19 
REMARK    6  A    between atoms: C12_19  and  O6_20 
REMARK    7  A    between atoms: C12_19  and  C13_22 
REMARK    8  A    between atoms: C13_22  and  O7_23 
REMARK    9  A    between atoms: C13_22  and  O8_25 
REMARK   10  A    between atoms: O8_25  and  C14_26 
REMARK   11  A    between atoms: C14_26  and  O9_28 
REMARK   12  A    between atoms: C14_26  and  C16_30 
REMARK   13  A    between atoms: C16_30  and  O10_31 
ROOT
HETATM    1  O5  UNL     1      40.073  10.879  66.589  1.00  0.00    -0.263 OA
ENDROOT
BRANCH   1   2
HETATM    2  C9  UNL     1      39.301  10.690  67.553  1.00  0.00     0.135 C 
HETATM    3  C4  UNL     1      37.898  11.278  67.427  1.00  0.00     0.103 A 
HETATM    4  O3  UNL     1      37.421  12.483  67.628  1.00  0.00    -0.286 OA
HETATM    5  C5  UNL     1      37.019  10.304  67.020  1.00  0.00     0.028 A 
HETATM    6  C3  UNL     1      36.157  12.792  67.460  1.00  0.00     0.222 A 
HETATM    7  C2  UNL     1      35.226  11.846  67.050  1.00  0.00     0.178 A 
HETATM    8  C6  UNL     1      35.667  10.563  66.823  1.00  0.00     0.218 A 
HETATM    9  O4  UNL     1      34.865   9.678  66.451  1.00  0.00    -0.285 OA
HETATM   10  C7  UNL     1      37.764   9.046  66.858  1.00  0.00     0.049 C 
HETATM   11  C8  UNL     1      38.904   9.232  67.867  1.00  0.00     0.052 C 
HETATM   12  C10 UNL     1      39.783  11.211  68.936  1.00  0.00     0.056 C 
BRANCH   6  13
HETATM   13  O2  UNL     1      35.728  14.077  67.690  1.00  0.00    -0.339 OA
ATOM     14  H2  UNL     1      35.385  14.577  66.959  1.00  0.00     0.220 HD
ENDBRANCH   6  13
BRANCH   7  15
HETATM   15  O1  UNL     1      33.896  12.149  66.867  1.00  0.00    -0.348 OA
HETATM   16  C1  UNL     1      32.940  11.676  67.775  1.00  0.00     0.210 C 
ENDBRANCH   7  15
ENDBRANCH   1   2
BRANCH   1  17
HETATM   17  N1  UNL     1      40.801  11.010  65.658  1.00  0.00    -0.263 N 
HETATM   18  C11 UNL     1      40.489  10.425  64.362  1.00  0.00     0.182 C 
BRANCH  17  19
HETATM   19  C12 UNL     1      42.224  11.257  65.824  1.00  0.00     0.296 C 
BRANCH  19  20
HETATM   20  O6  UNL     1      42.407  12.150  66.848  1.00  0.00    -0.370 OA
ATOM     21  H6  UNL     1      42.302  13.033  66.514  1.00  0.00     0.212 HD
ENDBRANCH  19  20
BRANCH  19  22
HETATM   22  C13 UNL     1      43.001   9.968  66.128  1.00  0.00     0.311 C 
BRANCH  22  23
HETATM   23  O7  UNL     1      42.221   9.189  67.017  1.00  0.00    -0.367 OA
ATOM     24  H7  UNL     1      41.828   8.482  66.517  1.00  0.00     0.212 HD
ENDBRANCH  22  23
BRANCH  22  25
HETATM   25  O8  UNL     1      43.500   9.432  65.129  1.00  0.00    -0.319 OA
BRANCH  25  26
HETATM   26  C14 UNL     1      44.010   8.897  64.130  1.00  0.00     0.182 C 
HETATM   27  C15 UNL     1      42.979   8.777  62.982  1.00  0.00     0.081 C 
BRANCH  26  28
HETATM   28  O9  UNL     1      45.158   9.499  63.547  1.00  0.00    -0.364 OA
ATOM     29  H9  UNL     1      45.255   9.474  62.601  1.00  0.00     0.213 HD
ENDBRANCH  26  28
BRANCH  26  30
HETATM   30  C16 UNL     1      44.502   7.427  64.338  1.00  0.00     0.232 C 
BRANCH  30  31
HETATM   31  O10 UNL     1      45.675   7.209  63.627  1.00  0.00    -0.396 OA
ATOM     32  H10 UNL     1      46.206   6.554  64.064  1.00  0.00     0.209 HD
ENDBRANCH  30  31
ENDBRANCH  26  30
ENDBRANCH  25  26
ENDBRANCH  22  25
ENDBRANCH  19  22
ENDBRANCH  17  19
ENDBRANCH   1  17
TORSDOF 13
ENDMDL
MODEL 3
REMARK VINA RESULT: -4.828510314      2.102      6.771
REMARK  13 active torsions:
REMARK  status: ('A' for Active; 'I' for Inactive)
REMARK    1  A    between atoms: O1_2  and  C2_3 
REMARK    2  A    between atoms: C3_4  and  O2_5 
REMARK    3  A    between atoms: C9_14  and  O5_16 
REMARK    4  A    between atoms: O5_16  and  N1_17 
REMARK    5  A    between atoms: N1_17  and  C12_19 
REMARK    6  A    between atoms: C12_19  and  O6_20 
REMARK    7  A    between atoms: C12_19  and  C13_22 
REMARK    8  A    between atoms: C13_22  and  O7_23 
REMARK    9  A    between atoms: C13_22  and  O8_25 
REMARK   10  A    between atoms: O8_25  and  C14_26 
REMARK   11  A    between atoms: C14_26  and  O9_28 
REMARK   12  A    between atoms: C14_26  and  C16_30 
REMARK   13  A    between atoms: C16_30  and  O10_31 
ROOT
HETATM    1  O5  UNL     1      38.372  11.697  68.729  1.00  0.00    -0.263 OA
ENDROOT
BRANCH   1   2
HETATM    2  C9  UNL     1      37.284  11.779  68.121  1.00  0.00     0.135 C 
HETATM    3  C4  UNL     1      36.942  10.628  67.178  1.00  0.00     0.103 A 
HETATM    4  O3  UNL     1      37.303  10.355  65.948  1.00  0.00    -0.286 OA
HETATM    5  C5  UNL     1      36.093   9.750  67.804  1.00  0.00     0.028 A 
HETATM    6  C3  UNL     1      36.891   9.292  65.299  1.00  0.00     0.222 A 
HETATM    7  C2  UNL     1      36.032   8.370  65.884  1.00  0.00     0.178 A 
HETATM    8  C6  UNL     1      35.618   8.604  67.175  1.00  0.00     0.218 A 
HETATM    9  O4  UNL     1      34.845   7.801  67.744  1.00  0.00    -0.285 OA
HETATM   10  C7  UNL     1      35.825  10.251  69.161  1.00  0.00     0.049 C 
HETATM   11  C8  UNL     1      35.994  11.763  68.969  1.00  0.00     0.052 C 
HETATM   12  C10 UNL     1      37.084  13.040  67.232  1.00  0.00     0.056 C 
BRANCH   6  13
HETATM   13  O2  UNL     1      37.310   9.068  64.009  1.00  0.00    -0.339 OA
ATOM     14  H2  UNL     1      38.233   8.907  63.855  1.00  0.00     0.220 HD
ENDBRANCH   6  13
BRANCH   7  15
HETATM   15  O1  UNL     1      35.588   7.248  65.222  1.00  0.00    -0.348 OA
HETATM   16  C1  UNL     1      34.497   7.339  64.347  1.00  0.00     0.210 C 
ENDBRANCH   7  15
ENDBRANCH   1   2
BRANCH   1  17
HETATM   17  N1  UNL     1      39.429  11.648  69.272  1.00  0.00    -0.263 N 
HETATM   18  C11 UNL     1      39.625  10.866  70.484  1.00  0.00     0.182 C 
BRANCH  17  19
HETATM   19  C12 UNL     1      40.411  12.711  69.137  1.00  0.00     0.296 C 
BRANCH  19  20
HETATM   20  O6  UNL     1      40.970  12.964  70.364  1.00  0.00    -0.370 OA
ATOM     21  H6  UNL     1      41.915  12.997  70.275  1.00  0.00     0.212 HD
ENDBRANCH  19  20
BRANCH  19  22
HETATM   22  C13 UNL     1      41.520  12.350  68.139  1.00  0.00     0.311 C 
BRANCH  22  23
HETATM   23  O7  UNL     1      42.760  12.436  68.818  1.00  0.00    -0.367 OA
ATOM     24  H7  UNL     1      43.139  13.286  68.625  1.00  0.00     0.212 HD
ENDBRANCH  22  23
BRANCH  22  25
HETATM   25  O8  UNL     1      41.274  11.350  67.452  1.00  0.00    -0.319 OA
BRANCH  25  26
HETATM   26  C14 UNL     1      41.032  10.339  66.769  1.00  0.00     0.182 C 
HETATM   27  C15 UNL     1      42.315   9.501  66.553  1.00  0.00     0.081 C 
BRANCH  26  28
HETATM   28  O9  UNL     1      40.053   9.420  67.236  1.00  0.00    -0.364 OA
ATOM     29  H9  UNL     1      40.344   8.590  67.598  1.00  0.00     0.213 HD
ENDBRANCH  26  28
BRANCH  26  30
HETATM   30  C16 UNL     1      40.527  10.621  65.317  1.00  0.00     0.232 C 
BRANCH  30  31
HETATM   31  O10 UNL     1      41.594  10.602  64.427  1.00  0.00    -0.396 OA
ATOM     32  H10 UNL     1      42.277  10.024  64.746  1.00  0.00     0.209 HD
ENDBRANCH  30  31
ENDBRANCH  26  30
ENDBRANCH  25  26
ENDBRANCH  22  25
ENDBRANCH  19  22
ENDBRANCH  17  19
ENDBRANCH   1  17
TORSDOF 13
ENDMDL
MODEL 4
REMARK VINA RESULT: -4.592434563      1.678      3.537
REMARK  13 active torsions:
REMARK  status: ('A' for Active; 'I' for Inactive)
REMARK    1  A    between atoms: O1_2  and  C2_3 
REMARK    2  A    between atoms: C3_4  and  O2_5 
REMARK    3  A    between atoms: C9_14  and  O5_16 
REMARK    4  A    between atoms: O5_16  and  N1_17 
REMARK    5  A    between atoms: N1_17  and  C12_19 
REMARK    6  A    between atoms: C12_19  and  O6_20 
REMARK    7  A    between atoms: C12_19  and  C13_22 
REMARK    8  A    between atoms: C13_22  and  O7_23 
REMARK    9  A    between atoms: C13_22  and  O8_25 
REMARK   10  A    between atoms: O8_25  and  C14_26 
REMARK   11  A    between atoms: C14_26  and  O9_28 
REMARK   12  A    between atoms: C14_26  and  C16_30 
REMARK   13  A    between atoms: C16_30  and  O10_31 
ROOT
HETATM    1  O5  UNL     1      36.647  11.787  67.329  1.00  0.00    -0.263 OA
ENDROOT
BRANCH   1   2
HETATM    2  C9  UNL     1      37.488  10.889  67.547  1.00  0.00     0.135 C 
HETATM    3  C4  UNL     1      38.839  11.340  68.095  1.00  0.00     0.103 A 
HETATM    4  O3  UNL     1      39.910  11.829  67.518  1.00  0.00    -0.286 OA
HETATM    5  C5  UNL     1      38.868  11.174  69.458  1.00  0.00     0.028 A 
HETATM    6  C3  UNL     1      40.993  12.162  68.179  1.00  0.00     0.222 A 
HETATM    7  C2  UNL     1      41.076  12.016  69.558  1.00  0.00     0.178 A 
HETATM    8  C6  UNL     1      39.983  11.507  70.220  1.00  0.00     0.218 A 
HETATM    9  O4  UNL     1      40.012  11.358  71.462  1.00  0.00    -0.285 OA
HETATM   10  C7  UNL     1      37.575  10.618  69.885  1.00  0.00     0.049 C 
HETATM   11  C8  UNL     1      37.144   9.846  68.632  1.00  0.00     0.052 C 
HETATM   12  C10 UNL     1      37.874   9.995  66.335  1.00  0.00     0.056 C 
BRANCH   6  13
HETATM   13  O2  UNL     1      42.079  12.669  67.508  1.00  0.00    -0.339 OA
ATOM     14  H2  UNL     1      42.219  12.402  66.607  1.00  0.00     0.220 HD
ENDBRANCH   6  13
BRANCH   7  15
HETATM   15  O1  UNL     1      42.202  12.360  70.271  1.00  0.00    -0.348 OA
HETATM   16  C1  UNL     1      42.180  13.476  71.117  1.00  0.00     0.210 C 
ENDBRANCH   7  15
ENDBRANCH   1   2
BRANCH   1  17
HETATM   17  N1  UNL     1      35.814  12.617  67.152  1.00  0.00    -0.263 N 
HETATM   18  C11 UNL     1      36.160  14.025  67.025  1.00  0.00     0.182 C 
BRANCH  17  19
HETATM   19  C12 UNL     1      34.436  12.423  67.571  1.00  0.00     0.296 C 
BRANCH  19  20
HETATM   20  O6  UNL     1      33.626  12.423  66.464  1.00  0.00    -0.370 OA
ATOM     21  H6  UNL     1      32.801  12.841  66.682  1.00  0.00     0.212 HD
ENDBRANCH  19  20
BRANCH  19  22
HETATM   22  C13 UNL     1      34.245  11.108  68.339  1.00  0.00     0.311 C 
BRANCH  22  23
HETATM   23  O7  UNL     1      33.189  11.294  69.264  1.00  0.00    -0.367 OA
ATOM     24  H7  UNL     1      33.454  10.907  70.091  1.00  0.00     0.212 HD
ENDBRANCH  22  23
BRANCH  22  25
HETATM   25  O8  UNL     1      34.252  10.099  67.622  1.00  0.00    -0.319 OA
BRANCH  25  26
HETATM   26  C14 UNL     1      34.268   9.089  66.897  1.00  0.00     0.182 C 
HETATM   27  C15 UNL     1      35.229   8.018  67.468  1.00  0.00     0.081 C 
BRANCH  26  28
HETATM   28  O9  UNL     1      33.045   8.408  66.649  1.00  0.00    -0.364 OA
ATOM     29  H9  UNL     1      32.456   8.250  67.378  1.00  0.00     0.213 HD
ENDBRANCH  26  28
BRANCH  26  30
HETATM   30  C16 UNL     1      34.796   9.320  65.444  1.00  0.00     0.232 C 
BRANCH  30  31
HETATM   31  O10 UNL     1      35.195   8.113  64.881  1.00  0.00    -0.396 OA
ATOM     32  H10 UNL     1      35.128   8.155  63.935  1.00  0.00     0.209 HD
ENDBRANCH  30  31
ENDBRANCH  26  30
ENDBRANCH  25  26
ENDBRANCH  22  25
ENDBRANCH  19  22
ENDBRANCH  17  19
ENDBRANCH   1  17
TORSDOF 13
ENDMDL
MODEL 5
REMARK VINA RESULT: -4.261345441      1.692      2.336
REMARK  13 active torsions:
REMARK  status: ('A' for Active; 'I' for Inactive)
REMARK    1  A    between atoms: O1_2  and  C2_3 
REMARK    2  A    between atoms: C3_4  and  O2_5 
REMARK    3  A    between atoms: C9_14  and  O5_16 
REMARK    4  A    between atoms: O5_16  and  N1_17 
REMARK    5  A    between atoms: N1_17  and  C12_19 
REMARK    6  A    between atoms: C12_19  and  O6_20 
REMARK    7  A    between atoms: C12_19  and  C13_22 
REMARK    8  A    between atoms: C13_22  and  O7_23 
REMARK    9  A    between atoms: C13_22  and  O8_25 
REMARK   10  A    between atoms: O8_25  and  C14_26 
REMARK   11  A    between atoms: C14_26  and  O9_28 
REMARK   12  A    between atoms: C14_26  and  C16_30 
REMARK   13  A    between atoms: C16_30  and  O10_31 
ROOT
HETATM    1  O5  UNL     1      39.195   9.952  66.509  1.00  0.00    -0.263 OA
ENDROOT
BRANCH   1   2
HETATM    2  C9  UNL     1      40.371  10.314  66.726  1.00  0.00     0.135 C 
HETATM    3  C4  UNL     1      40.605  11.155  67.978  1.00  0.00     0.103 A 
HETATM    4  O3  UNL     1      40.451  12.433  68.228  1.00  0.00    -0.286 OA
HETATM    5  C5  UNL     1      41.061  10.356  68.997  1.00  0.00     0.028 A 
HETATM    6  C3  UNL     1      40.712  12.972  69.395  1.00  0.00     0.222 A 
HETATM    7  C2  UNL     1      41.175  12.211  70.460  1.00  0.00     0.178 A 
HETATM    8  C6  UNL     1      41.357  10.863  70.259  1.00  0.00     0.218 A 
HETATM    9  O4  UNL     1      41.773  10.137  71.190  1.00  0.00    -0.285 OA
HETATM   10  C7  UNL     1      41.158   8.976  68.498  1.00  0.00     0.049 C 
HETATM   11  C8  UNL     1      41.411   9.207  67.004  1.00  0.00     0.052 C 
HETATM   12  C10 UNL     1      41.056  11.144  65.605  1.00  0.00     0.056 C 
BRANCH   6  13
HETATM   13  O2  UNL     1      40.526  14.321  69.585  1.00  0.00    -0.339 OA
ATOM     14  H2  UNL     1      40.079  14.815  68.909  1.00  0.00     0.220 HD
ENDBRANCH   6  13
BRANCH   7  15
HETATM   15  O1  UNL     1      41.454  12.758  71.693  1.00  0.00    -0.348 OA
HETATM   16  C1  UNL     1      40.519  13.594  72.315  1.00  0.00     0.210 C 
ENDBRANCH   7  15
ENDBRANCH   1   2
BRANCH   1  17
HETATM   17  N1  UNL     1      38.059   9.654  66.319  1.00  0.00    -0.263 N 
HETATM   18  C11 UNL     1      37.323  10.159  65.169  1.00  0.00     0.182 C 
BRANCH  17  19
HETATM   19  C12 UNL     1      37.179   9.253  67.404  1.00  0.00     0.296 C 
BRANCH  19  20
HETATM   20  O6  UNL     1      37.485   9.984  68.523  1.00  0.00    -0.370 OA
ATOM     21  H6  UNL     1      38.200  10.576  68.321  1.00  0.00     0.212 HD
ENDBRANCH  19  20
BRANCH  19  22
HETATM   22  C13 UNL     1      35.699   9.458  67.052  1.00  0.00     0.311 C 
BRANCH  22  23
HETATM   23  O7  UNL     1      34.992   8.298  67.454  1.00  0.00    -0.367 OA
ATOM     24  H7  UNL     1      34.905   7.732  66.696  1.00  0.00     0.212 HD
ENDBRANCH  22  23
BRANCH  22  25
HETATM   25  O8  UNL     1      35.257  10.573  67.359  1.00  0.00    -0.319 OA
BRANCH  25  26
HETATM   26  C14 UNL     1      34.824  11.697  67.670  1.00  0.00     0.182 C 
HETATM   27  C15 UNL     1      33.282  11.744  67.551  1.00  0.00     0.081 C 
BRANCH  26  28
HETATM   28  O9  UNL     1      35.120  12.206  68.964  1.00  0.00    -0.364 OA
ATOM     29  H9  UNL     1      35.962  11.998  69.354  1.00  0.00     0.213 HD
ENDBRANCH  26  28
BRANCH  26  30
HETATM   30  C16 UNL     1      35.301  12.871  66.756  1.00  0.00     0.232 C 
BRANCH  30  31
HETATM   31  O10 UNL     1      34.284  13.807  66.609  1.00  0.00    -0.396 OA
ATOM     32  H10 UNL     1      33.535  13.412  66.179  1.00  0.00     0.209 HD
ENDBRANCH  30  31
ENDBRANCH  26  30
ENDBRANCH  25  26
ENDBRANCH  22  25
ENDBRANCH  19  22
ENDBRANCH  17  19
ENDBRANCH   1  17
TORSDOF 13
ENDMDL
