MODEL 1
REMARK VINA RESULT: -7.691788247      0.000      0.000
REMARK  10 active torsions:
REMARK  status: ('A' for Active; 'I' for Inactive)
REMARK    1  A    between atoms: O1_2  and  C2_3 
REMARK    2  A    between atoms: C2_3  and  C3_7 
REMARK    3  A    between atoms: C4_9  and  C5_10 
REMARK    4  A    between atoms: N3_12  and  C7_13 
REMARK    5  A    between atoms: C7_13  and  C8_14 
REMARK    6  A    between atoms: C8_14  and  C10_16 
REMARK    7  A    between atoms: C10_16  and  O2_17 
REMARK    8  A    between atoms: C10_16  and  N4_19 
REMARK    9  A    between atoms: C10_16  and  O3_27 
REMARK       I    between atoms: C11_21  and  N6_23 
REMARK   10  A    between atoms: O3_27  and  C13_28 
ROOT
HETATM    1  N4  UNL     1      36.814   9.977  68.146  1.00  0.00    -0.309 N 
ATOM      2  H4  UNL     1      37.026   9.769  69.122  1.00  0.00     0.167 HD
HETATM    3  C11 UNL     1      35.840   9.358  67.667  1.00  0.00     0.201 C 
HETATM    4  N5  UNL     1      35.118   8.442  68.468  1.00  0.00    -0.063 NA
HETATM    5  N6  UNL     1      35.423   9.537  66.329  1.00  0.00    -0.267 N 
ATOM      6  H6  UNL     1      35.088  10.457  66.040  1.00  0.00     0.180 HD
HETATM    7  C12 UNL     1      35.450   8.514  65.390  1.00  0.00     0.184 C 
HETATM    8  N7  UNL     1      35.456   7.652  64.602  1.00  0.00    -0.172 NA
ENDROOT
BRANCH   1   9
HETATM    9  C10 UNL     1      37.684  10.947  67.520  1.00  0.00     0.254 C 
BRANCH   9  10
HETATM   10  C8  UNL     1      38.956  10.892  68.397  1.00  0.00     0.087 C 
HETATM   11  C9  UNL     1      38.481  10.871  69.850  1.00  0.00     0.019 C 
BRANCH  10  12
HETATM   12  C7  UNL     1      39.798  12.112  68.221  1.00  0.00     0.161 C 
BRANCH  12  13
HETATM   13  N3  UNL     1      41.074  11.696  67.699  1.00  0.00    -0.286 N 
HETATM   14  C6  UNL     1      41.388  10.652  66.893  1.00  0.00     0.142 A 
HETATM   15  C5  UNL     1      42.745  10.679  66.674  1.00  0.00     0.068 A 
HETATM   16  N9  UNL     1      43.227  11.724  67.341  1.00  0.00    -0.285 N 
HETATM   17  N8  UNL     1      42.214  12.311  67.943  1.00  0.00    -0.240 N 
ATOM     18  H9  UNL     1      44.203  12.017  67.380  1.00  0.00     0.188 HD
ATOM     19  H8  UNL     1      42.300  13.143  68.527  1.00  0.00     0.208 HD
BRANCH  15  20
HETATM   20  C4  UNL     1      43.470   9.702  65.845  1.00  0.00     0.063 C 
HETATM   21  C3  UNL     1      43.077   9.535  64.592  1.00  0.00     0.099 C 
HETATM   22  N2  UNL     1      41.968  10.301  64.079  1.00  0.00    -0.098 NA
BRANCH  21  23
HETATM   23  C2  UNL     1      43.734   8.595  63.708  1.00  0.00     0.160 C 
HETATM   24  N1  UNL     1      44.557   7.725  64.147  1.00  0.00    -0.379 N 
ATOM     25  H12 UNL     1      45.020   7.063  63.524  1.00  0.00     0.158 HD
ATOM     26  H11 UNL     1      44.750   7.697  65.148  1.00  0.00     0.158 HD
BRANCH  23  27
HETATM   27  O1  UNL     1      43.468   8.634  62.330  1.00  0.00    -0.340 OA
HETATM   28  C1  UNL     1      42.144   8.738  61.834  1.00  0.00     0.211 C 
ENDBRANCH  23  27
ENDBRANCH  21  23
ENDBRANCH  15  20
ENDBRANCH  12  13
ENDBRANCH  10  12
ENDBRANCH   9  10
BRANCH   9  29
HETATM   29  O2  UNL     1      38.083  10.428  66.302  1.00  0.00    -0.348 OA
ATOM     30  H2  UNL     1      37.714  11.023  65.659  1.00  0.00     0.215 HD
ENDBRANCH   9  29
BRANCH   9  31
HETATM   31  O3  UNL     1      37.290  12.223  67.533  1.00  0.00    -0.328 OA
BRANCH  31  32
HETATM   32  C13 UNL     1      36.025  12.612  67.737  1.00  0.00     0.055 C 
HETATM   33  C14 UNL     1      35.350  12.203  68.994  1.00  0.00     0.045 C 
HETATM   34  C15 UNL     1      35.065  12.316  66.598  1.00  0.00     0.045 C 
HETATM   35  C16 UNL     1      36.067  14.158  67.778  1.00  0.00     0.045 C 
ENDBRANCH  31  32
ENDBRANCH   9  31
ENDBRANCH   1   9
TORSDOF 10
ENDMDL
MODEL 2
REMARK VINA RESULT: -7.545044003      0.946      1.154
REMARK  10 active torsions:
REMARK  status: ('A' for Active; 'I' for Inactive)
REMARK    1  A    between atoms: O1_2  and  C2_3 
REMARK    2  A    between atoms: C2_3  and  C3_7 
REMARK    3  A    between atoms: C4_9  and  C5_10 
REMARK    4  A    between atoms: N3_12  and  C7_13 
REMARK    5  A    between atoms: C7_13  and  C8_14 
REMARK    6  A    between atoms: C8_14  and  C10_16 
REMARK    7  A    between atoms: C10_16  and  O2_17 
REMARK    8  A    between atoms: C10_16  and  N4_19 
REMARK    9  A    between atoms: C10_16  and  O3_27 
REMARK       I    between atoms: C11_21  and  N6_23 
REMARK   10  A    between atoms: O3_27  and  C13_28 
ROOT
HETATM    1  N4  UNL     1      36.964  10.016  68.485  1.00  0.00    -0.309 N 
ATOM      2  H4  UNL     1      37.193   9.902  69.472  1.00  0.00     0.167 HD
HETATM    3  C11 UNL     1      36.032   9.296  68.066  1.00  0.00     0.201 C 
HETATM    4  N5  UNL     1      35.375   8.403  68.946  1.00  0.00    -0.063 NA
HETATM    5  N6  UNL     1      35.598   9.337  66.722  1.00  0.00    -0.267 N 
ATOM      6  H6  UNL     1      35.201  10.206  66.362  1.00  0.00     0.180 HD
HETATM    7  C12 UNL     1      35.690   8.245  65.869  1.00  0.00     0.184 C 
HETATM    8  N7  UNL     1      35.750   7.324  65.154  1.00  0.00    -0.172 NA
ENDROOT
BRANCH   1   9
HETATM    9  C10 UNL     1      37.764  10.986  67.774  1.00  0.00     0.254 C 
BRANCH   9  10
HETATM   10  C8  UNL     1      39.122  10.927  68.511  1.00  0.00     0.087 C 
HETATM   11  C9  UNL     1      38.818  11.138  69.995  1.00  0.00     0.019 C 
BRANCH  10  12
HETATM   12  C7  UNL     1      40.030  12.031  68.081  1.00  0.00     0.161 C 
BRANCH  12  13
HETATM   13  N3  UNL     1      41.155  11.437  67.404  1.00  0.00    -0.286 N 
HETATM   14  C6  UNL     1      41.198  10.702  66.265  1.00  0.00     0.142 A 
HETATM   15  C5  UNL     1      42.510  10.366  66.028  1.00  0.00     0.068 A 
HETATM   16  N9  UNL     1      43.231  10.895  67.012  1.00  0.00    -0.285 N 
HETATM   17  N8  UNL     1      42.403  11.526  67.817  1.00  0.00    -0.240 N 
ATOM     18  H9  UNL     1      44.243  10.825  67.123  1.00  0.00     0.188 HD
ATOM     19  H8  UNL     1      42.691  12.024  68.659  1.00  0.00     0.208 HD
BRANCH  15  20
HETATM   20  C4  UNL     1      42.964   9.566  64.879  1.00  0.00     0.063 C 
HETATM   21  C3  UNL     1      42.228   9.580  63.779  1.00  0.00     0.099 C 
HETATM   22  N2  UNL     1      41.019  10.364  63.735  1.00  0.00    -0.098 NA
BRANCH  21  23
HETATM   23  C2  UNL     1      42.603   8.822  62.604  1.00  0.00     0.160 C 
HETATM   24  N1  UNL     1      41.933   8.891  61.521  1.00  0.00    -0.379 N 
ATOM     25  H12 UNL     1      42.196   8.357  60.693  1.00  0.00     0.158 HD
ATOM     26  H11 UNL     1      41.114   9.498  61.491  1.00  0.00     0.158 HD
BRANCH  23  27
HETATM   27  O1  UNL     1      43.730   7.986  62.645  1.00  0.00    -0.340 OA
HETATM   28  C1  UNL     1      44.646   8.030  63.727  1.00  0.00     0.211 C 
ENDBRANCH  23  27
ENDBRANCH  21  23
ENDBRANCH  15  20
ENDBRANCH  12  13
ENDBRANCH  10  12
ENDBRANCH   9  10
BRANCH   9  29
HETATM   29  O2  UNL     1      38.032  10.472  66.519  1.00  0.00    -0.348 OA
ATOM     30  H2  UNL     1      37.352  10.836  65.963  1.00  0.00     0.215 HD
ENDBRANCH   9  29
BRANCH   9  31
HETATM   31  O3  UNL     1      37.376  12.263  67.833  1.00  0.00    -0.328 OA
BRANCH  31  32
HETATM   32  C13 UNL     1      36.098  12.659  67.776  1.00  0.00     0.055 C 
HETATM   33  C14 UNL     1      35.203  12.328  68.914  1.00  0.00     0.045 C 
HETATM   34  C15 UNL     1      35.359  12.285  66.504  1.00  0.00     0.045 C 
HETATM   35  C16 UNL     1      36.143  14.204  67.726  1.00  0.00     0.045 C 
ENDBRANCH  31  32
ENDBRANCH   9  31
ENDBRANCH   1   9
TORSDOF 10
ENDMDL
MODEL 3
REMARK VINA RESULT: -7.510194518      1.554      2.825
REMARK  10 active torsions:
REMARK  status: ('A' for Active; 'I' for Inactive)
REMARK    1  A    between atoms: O1_2  and  C2_3 
REMARK    2  A    between atoms: C2_3  and  C3_7 
REMARK    3  A    between atoms: C4_9  and  C5_10 
REMARK    4  A    between atoms: N3_12  and  C7_13 
REMARK    5  A    between atoms: C7_13  and  C8_14 
REMARK    6  A    between atoms: C8_14  and  C10_16 
REMARK    7  A    between atoms: C10_16  and  O2_17 
REMARK    8  A    between atoms: C10_16  and  N4_19 
REMARK    9  A    between atoms: C10_16  and  O3_27 
REMARK       I    between atoms: C11_21  and  N6_23 
REMARK   10  A    between atoms: O3_27  and  C13_28 
ROOT
HETATM    1  N4  UNL     1      36.942  12.226  67.826  1.00  0.00    -0.309 N 
ATOM      2  H4  UNL     1      37.612  12.883  68.224  1.00  0.00     0.167 HD
HETATM    3  C11 UNL     1      35.896  12.739  67.372  1.00  0.00     0.201 C 
HETATM    4  N5  UNL     1      35.710  14.140  67.432  1.00  0.00    -0.063 NA
HETATM    5  N6  UNL     1      34.871  11.961  66.789  1.00  0.00    -0.267 N 
ATOM      6  H6  UNL     1      35.080  11.432  65.941  1.00  0.00     0.180 HD
HETATM    7  C12 UNL     1      33.591  11.885  67.321  1.00  0.00     0.184 C 
HETATM    8  N7  UNL     1      32.508  11.832  67.756  1.00  0.00    -0.172 NA
ENDROOT
BRANCH   1   9
HETATM    9  C10 UNL     1      37.339  10.837  67.870  1.00  0.00     0.254 C 
BRANCH   9  10
HETATM   10  C8  UNL     1      38.765  10.900  68.462  1.00  0.00     0.087 C 
HETATM   11  C9  UNL     1      38.600  11.027  69.978  1.00  0.00     0.019 C 
BRANCH  10  12
HETATM   12  C7  UNL     1      39.504  12.108  67.992  1.00  0.00     0.161 C 
BRANCH  12  13
HETATM   13  N3  UNL     1      40.816  11.687  67.573  1.00  0.00    -0.286 N 
HETATM   14  C6  UNL     1      41.186  10.672  66.754  1.00  0.00     0.142 A 
HETATM   15  C5  UNL     1      42.558  10.679  66.663  1.00  0.00     0.068 A 
HETATM   16  N9  UNL     1      42.993  11.685  67.417  1.00  0.00    -0.285 N 
HETATM   17  N8  UNL     1      41.938  12.268  67.948  1.00  0.00    -0.240 N 
ATOM     18  H9  UNL     1      43.966  11.955  67.559  1.00  0.00     0.188 HD
ATOM     19  H8  UNL     1      41.984  13.072  68.573  1.00  0.00     0.208 HD
BRANCH  15  20
HETATM   20  C4  UNL     1      43.340   9.723  65.862  1.00  0.00     0.063 C 
HETATM   21  C3  UNL     1      43.003   9.550  64.594  1.00  0.00     0.099 C 
HETATM   22  N2  UNL     1      41.897  10.289  64.038  1.00  0.00    -0.098 NA
BRANCH  21  23
HETATM   23  C2  UNL     1      43.719   8.630  63.736  1.00  0.00     0.160 C 
HETATM   24  N1  UNL     1      44.557   7.791  64.204  1.00  0.00    -0.379 N 
ATOM     25  H12 UNL     1      45.061   7.143  63.600  1.00  0.00     0.158 HD
ATOM     26  H11 UNL     1      44.720   7.774  65.211  1.00  0.00     0.158 HD
BRANCH  23  27
HETATM   27  O1  UNL     1      43.494   8.653  62.350  1.00  0.00    -0.340 OA
HETATM   28  C1  UNL     1      42.184   8.735  61.814  1.00  0.00     0.211 C 
ENDBRANCH  23  27
ENDBRANCH  21  23
ENDBRANCH  15  20
ENDBRANCH  12  13
ENDBRANCH  10  12
ENDBRANCH   9  10
BRANCH   9  29
HETATM   29  O2  UNL     1      36.586  10.216  68.849  1.00  0.00    -0.348 OA
ATOM     30  H2  UNL     1      36.077   9.565  68.380  1.00  0.00     0.215 HD
ENDBRANCH   9  29
BRANCH   9  31
HETATM   31  O3  UNL     1      37.459  10.197  66.704  1.00  0.00    -0.328 OA
BRANCH  31  32
HETATM   32  C13 UNL     1      36.719   9.137  66.353  1.00  0.00     0.055 C 
HETATM   33  C14 UNL     1      36.169   9.081  64.976  1.00  0.00     0.045 C 
HETATM   34  C15 UNL     1      35.582   8.799  67.301  1.00  0.00     0.045 C 
HETATM   35  C16 UNL     1      37.660   7.915  66.470  1.00  0.00     0.045 C 
ENDBRANCH  31  32
ENDBRANCH   9  31
ENDBRANCH   1   9
TORSDOF 10
ENDMDL
MODEL 4
REMARK VINA RESULT: -7.445981582      1.792      3.051
REMARK  10 active torsions:
REMARK  status: ('A' for Active; 'I' for Inactive)
REMARK    1  A    between atoms: O1_2  and  C2_3 
REMARK    2  A    between atoms: C2_3  and  C3_7 
REMARK    3  A    between atoms: C4_9  and  C5_10 
REMARK    4  A    between atoms: N3_12  and  C7_13 
REMARK    5  A    between atoms: C7_13  and  C8_14 
REMARK    6  A    between atoms: C8_14  and  C10_16 
REMARK    7  A    between atoms: C10_16  and  O2_17 
REMARK    8  A    between atoms: C10_16  and  N4_19 
REMARK    9  A    between atoms: C10_16  and  O3_27 
REMARK       I    between atoms: C11_21  and  N6_23 
REMARK   10  A    between atoms: O3_27  and  C13_28 
ROOT
HETATM    1  N4  UNL     1      36.948  12.190  67.853  1.00  0.00    -0.309 N 
ATOM      2  H4  UNL     1      37.628  12.828  68.267  1.00  0.00     0.167 HD
HETATM    3  C11 UNL     1      35.924  12.731  67.385  1.00  0.00     0.201 C 
HETATM    4  N5  UNL     1      35.769  14.136  67.451  1.00  0.00    -0.063 NA
HETATM    5  N6  UNL     1      34.890  11.981  66.780  1.00  0.00    -0.267 N 
ATOM      6  H6  UNL     1      35.101  11.452  65.933  1.00  0.00     0.180 HD
HETATM    7  C12 UNL     1      33.599  11.932  67.291  1.00  0.00     0.184 C 
HETATM    8  N7  UNL     1      32.509  11.903  67.707  1.00  0.00    -0.172 NA
ENDROOT
BRANCH   1   9
HETATM    9  C10 UNL     1      37.312  10.792  67.894  1.00  0.00     0.254 C 
BRANCH   9  10
HETATM   10  C8  UNL     1      38.753  10.821  68.452  1.00  0.00     0.087 C 
HETATM   11  C9  UNL     1      38.633  11.104  69.950  1.00  0.00     0.019 C 
BRANCH  10  12
HETATM   12  C7  UNL     1      39.552  11.929  67.852  1.00  0.00     0.161 C 
BRANCH  12  13
HETATM   13  N3  UNL     1      40.736  11.353  67.267  1.00  0.00    -0.286 N 
HETATM   14  C6  UNL     1      40.887  10.651  66.116  1.00  0.00     0.142 A 
HETATM   15  C5  UNL     1      42.215  10.319  65.994  1.00  0.00     0.068 A 
HETATM   16  N9  UNL     1      42.840  10.816  67.057  1.00  0.00    -0.285 N 
HETATM   17  N8  UNL     1      41.939  11.426  67.798  1.00  0.00    -0.240 N 
ATOM     18  H9  UNL     1      43.837  10.740  67.260  1.00  0.00     0.188 HD
ATOM     19  H8  UNL     1      42.147  11.898  68.678  1.00  0.00     0.208 HD
BRANCH  15  20
HETATM   20  C4  UNL     1      42.776   9.551  64.870  1.00  0.00     0.063 C 
HETATM   21  C3  UNL     1      42.124   9.566  63.718  1.00  0.00     0.099 C 
HETATM   22  N2  UNL     1      40.901  10.319  63.595  1.00  0.00    -0.098 NA
BRANCH  21  23
HETATM   23  C2  UNL     1      42.606   8.839  62.562  1.00  0.00     0.160 C 
HETATM   24  N1  UNL     1      41.968   8.838  61.458  1.00  0.00    -0.379 N 
ATOM     25  H12 UNL     1      42.307   8.326  60.644  1.00  0.00     0.158 HD
ATOM     26  H11 UNL     1      41.097   9.365  61.396  1.00  0.00     0.158 HD
BRANCH  23  27
HETATM   27  O1  UNL     1      43.805   8.113  62.647  1.00  0.00    -0.340 OA
HETATM   28  C1  UNL     1      44.581   8.102  63.833  1.00  0.00     0.211 C 
ENDBRANCH  23  27
ENDBRANCH  21  23
ENDBRANCH  15  20
ENDBRANCH  12  13
ENDBRANCH  10  12
ENDBRANCH   9  10
BRANCH   9  29
HETATM   29  O2  UNL     1      36.568  10.194  68.895  1.00  0.00    -0.348 OA
ATOM     30  H2  UNL     1      36.619   9.264  68.705  1.00  0.00     0.215 HD
ENDBRANCH   9  29
BRANCH   9  31
HETATM   31  O3  UNL     1      37.388  10.143  66.729  1.00  0.00    -0.328 OA
BRANCH  31  32
HETATM   32  C13 UNL     1      36.606   9.107  66.398  1.00  0.00     0.055 C 
HETATM   33  C14 UNL     1      36.052   9.048  65.022  1.00  0.00     0.045 C 
HETATM   34  C15 UNL     1      35.459   8.830  67.353  1.00  0.00     0.045 C 
HETATM   35  C16 UNL     1      37.500   7.853  66.535  1.00  0.00     0.045 C 
ENDBRANCH  31  32
ENDBRANCH   9  31
ENDBRANCH   1   9
TORSDOF 10
ENDMDL
MODEL 5
REMARK VINA RESULT: -7.256772661      1.316      1.957
REMARK  10 active torsions:
REMARK  status: ('A' for Active; 'I' for Inactive)
REMARK    1  A    between atoms: O1_2  and  C2_3 
REMARK    2  A    between atoms: C2_3  and  C3_7 
REMARK    3  A    between atoms: C4_9  and  C5_10 
REMARK    4  A    between atoms: N3_12  and  C7_13 
REMARK    5  A    between atoms: C7_13  and  C8_14 
REMARK    6  A    between atoms: C8_14  and  C10_16 
REMARK    7  A    between atoms: C10_16  and  O2_17 
REMARK    8  A    between atoms: C10_16  and  N4_19 
REMARK    9  A    between atoms: C10_16  and  O3_27 
REMARK       I    between atoms: C11_21  and  N6_23 
REMARK   10  A    between atoms: O3_27  and  C13_28 
ROOT
HETATM    1  N4  UNL     1      37.903  11.096  66.282  1.00  0.00    -0.309 N 
ATOM      2  H4  UNL     1      38.393  11.892  65.874  1.00  0.00     0.167 HD
HETATM    3  C11 UNL     1      37.892  10.059  65.584  1.00  0.00     0.201 C 
HETATM    4  N5  UNL     1      38.532  10.047  64.323  1.00  0.00    -0.063 NA
HETATM    5  N6  UNL     1      37.253   8.874  66.013  1.00  0.00    -0.267 N 
ATOM      6  H6  UNL     1      37.600   8.407  66.851  1.00  0.00     0.180 HD
HETATM    7  C12 UNL     1      36.173   8.318  65.340  1.00  0.00     0.184 C 
HETATM    8  N7  UNL     1      35.275   7.838  64.768  1.00  0.00    -0.172 NA
ENDROOT
BRANCH   1   9
HETATM    9  C10 UNL     1      37.323  11.332  67.585  1.00  0.00     0.254 C 
BRANCH   9  10
HETATM   10  C8  UNL     1      38.441  10.883  68.553  1.00  0.00     0.087 C 
HETATM   11  C9  UNL     1      37.755  10.524  69.871  1.00  0.00     0.019 C 
BRANCH  10  12
HETATM   12  C7  UNL     1      39.400  11.991  68.837  1.00  0.00     0.161 C 
BRANCH  12  13
HETATM   13  N3  UNL     1      40.638  11.686  68.165  1.00  0.00    -0.286 N 
HETATM   14  C6  UNL     1      41.012  10.570  67.491  1.00  0.00     0.142 A 
HETATM   15  C5  UNL     1      42.292  10.764  67.029  1.00  0.00     0.068 A 
HETATM   16  N9  UNL     1      42.670  11.977  67.424  1.00  0.00    -0.285 N 
HETATM   17  N8  UNL     1      41.669  12.503  68.098  1.00  0.00    -0.240 N 
ATOM     18  H9  UNL     1      43.570  12.418  67.238  1.00  0.00     0.188 HD
ATOM     19  H8  UNL     1      41.689  13.432  68.517  1.00  0.00     0.208 HD
BRANCH  15  20
HETATM   20  C4  UNL     1      43.049   9.773  66.247  1.00  0.00     0.063 C 
HETATM   21  C3  UNL     1      42.860   9.735  64.938  1.00  0.00     0.099 C 
HETATM   22  N2  UNL     1      41.932  10.649  64.320  1.00  0.00    -0.098 NA
BRANCH  21  23
HETATM   23  C2  UNL     1      43.564   8.791  64.095  1.00  0.00     0.160 C 
HETATM   24  N1  UNL     1      44.266   7.847  64.587  1.00  0.00    -0.379 N 
ATOM     25  H12 UNL     1      44.762   7.182  63.993  1.00  0.00     0.158 HD
ATOM     26  H11 UNL     1      44.327   7.761  65.601  1.00  0.00     0.158 HD
BRANCH  23  27
HETATM   27  O1  UNL     1      43.480   8.909  62.698  1.00  0.00    -0.340 OA
HETATM   28  C1  UNL     1      42.245   8.770  62.016  1.00  0.00     0.211 C 
ENDBRANCH  23  27
ENDBRANCH  21  23
ENDBRANCH  15  20
ENDBRANCH  12  13
ENDBRANCH  10  12
ENDBRANCH   9  10
BRANCH   9  29
HETATM   29  O2  UNL     1      37.240  12.700  67.765  1.00  0.00    -0.348 OA
ATOM     30  H2  UNL     1      36.674  12.806  68.521  1.00  0.00     0.215 HD
ENDBRANCH   9  29
BRANCH   9  31
HETATM   31  O3  UNL     1      36.247  10.613  67.917  1.00  0.00    -0.328 OA
BRANCH  31  32
HETATM   32  C13 UNL     1      34.987  11.043  67.772  1.00  0.00     0.055 C 
HETATM   33  C14 UNL     1      34.687  12.006  66.683  1.00  0.00     0.045 C 
HETATM   34  C15 UNL     1      34.338  11.581  69.034  1.00  0.00     0.045 C 
HETATM   35  C16 UNL     1      34.153   9.783  67.447  1.00  0.00     0.045 C 
ENDBRANCH  31  32
ENDBRANCH   9  31
ENDBRANCH   1   9
TORSDOF 10
ENDMDL
