MODEL 1
REMARK VINA RESULT: -8.854811408      0.000      0.000
REMARK  9 active torsions:
REMARK  status: ('A' for Active; 'I' for Inactive)
REMARK    1  A    between atoms: N1_1  and  C1_4 
REMARK    2  A    between atoms: C2_7  and  C3_8 
REMARK    3  A    between atoms: N3_9  and  O1_11 
REMARK    4  A    between atoms: O1_11  and  C4_12 
REMARK    5  A    between atoms: C4_12  and  C5_14 
REMARK    6  A    between atoms: C5_14  and  C6_15 
REMARK    7  A    between atoms: C6_15  and  O3_16 
REMARK    8  A    between atoms: O3_16  and  C7_17 
REMARK    9  A    between atoms: C12_30  and  N6_31 
ROOT
HETATM    1  C1  UNL     1      39.828  10.662  66.284  1.00  0.00     0.134 A 
HETATM    2  N2  UNL     1      38.611  10.622  66.832  1.00  0.00    -0.338 N 
ATOM      3  H2  UNL     1      37.834  10.301  66.253  1.00  0.00     0.167 HD
HETATM    4  C2  UNL     1      38.348  10.980  68.100  1.00  0.00     0.079 A 
HETATM    5  C8  UNL     1      39.364  11.418  68.923  1.00  0.00     0.083 A 
HETATM    6  N4  UNL     1      39.156  11.771  70.200  1.00  0.00    -0.305 N 
ATOM      7  H4  UNL     1      38.213  11.732  70.589  1.00  0.00     0.171 HD
HETATM    8  C9  UNL     1      40.195  12.182  70.985  1.00  0.00     0.327 A 
HETATM    9  O6  UNL     1      40.003  12.513  72.180  1.00  0.00    -0.247 OA
HETATM   10  N5  UNL     1      41.431  12.231  70.470  1.00  0.00    -0.275 N 
ATOM     11  H5  UNL     1      42.200  12.538  71.065  1.00  0.00     0.173 HD
HETATM   12  C10 UNL     1      41.698  11.886  69.185  1.00  0.00     0.264 A 
HETATM   13  O7  UNL     1      42.851  11.933  68.720  1.00  0.00    -0.267 OA
HETATM   14  C11 UNL     1      40.654  11.471  68.384  1.00  0.00     0.098 A 
HETATM   15  C12 UNL     1      40.911  11.101  67.064  1.00  0.00     0.164 A 
ENDROOT
BRANCH   4  16
HETATM   16  C3  UNL     1      36.981  10.939  68.625  1.00  0.00     0.146 C 
HETATM   17  N3  UNL     1      36.167  11.917  68.255  1.00  0.00    -0.267 N 
ATOM     18  H3  UNL     1      36.480  12.661  67.632  1.00  0.00     0.194 HD
BRANCH  17  19
HETATM   19  O1  UNL     1      34.864  11.886  68.754  1.00  0.00    -0.200 OA
BRANCH  19  20
HETATM   20  C4  UNL     1      33.904  11.029  68.241  1.00  0.00     0.283 C 
HETATM   21  O2  UNL     1      32.802  10.937  68.871  1.00  0.00    -0.263 OA
BRANCH  20  22
HETATM   22  C5  UNL     1      34.153  10.252  67.014  1.00  0.00     0.140 C 
BRANCH  22  23
HETATM   23  C6  UNL     1      34.437   8.808  67.202  1.00  0.00     0.192 C 
BRANCH  23  24
HETATM   24  O3  UNL     1      35.699   8.376  66.753  1.00  0.00    -0.295 OA
BRANCH  24  25
HETATM   25  C7  UNL     1      35.975   8.478  65.401  1.00  0.00     0.332 C 
HETATM   26  O4  UNL     1      37.060   9.070  65.084  1.00  0.00    -0.624 OA
HETATM   27  O5  UNL     1      35.172   7.991  64.410  1.00  0.00    -0.624 OA
ENDBRANCH  24  25
ENDBRANCH  23  24
ENDBRANCH  22  23
ENDBRANCH  20  22
ENDBRANCH  19  20
ENDBRANCH  17  19
ENDBRANCH   4  16
BRANCH   1  28
HETATM   28  N1  UNL     1      40.047  10.307  65.061  1.00  0.00    -0.383 N 
ATOM     29  H12 UNL     1      39.325   9.782  64.567  1.00  0.00     0.157 HD
ATOM     30  H11 UNL     1      40.914  10.536  64.574  1.00  0.00     0.157 HD
ENDBRANCH   1  28
BRANCH  15  31
HETATM   31  N6  UNL     1      42.195  11.208  66.483  1.00  0.00    -0.111 N 
HETATM   32  O8  UNL     1      42.609  12.301  66.100  1.00  0.00    -0.532 OA
HETATM   33  O9  UNL     1      42.994  10.102  66.347  1.00  0.00    -0.532 OA
ENDBRANCH  15  31
TORSDOF 9
ENDMDL
MODEL 2
REMARK VINA RESULT: -8.392740686      1.912      7.433
REMARK  9 active torsions:
REMARK  status: ('A' for Active; 'I' for Inactive)
REMARK    1  A    between atoms: N1_1  and  C1_4 
REMARK    2  A    between atoms: C2_7  and  C3_8 
REMARK    3  A    between atoms: N3_9  and  O1_11 
REMARK    4  A    between atoms: O1_11  and  C4_12 
REMARK    5  A    between atoms: C4_12  and  C5_14 
REMARK    6  A    between atoms: C5_14  and  C6_15 
REMARK    7  A    between atoms: C6_15  and  O3_16 
REMARK    8  A    between atoms: O3_16  and  C7_17 
REMARK    9  A    between atoms: C12_30  and  N6_31 
ROOT
HETATM    1  C1  UNL     1      35.941  12.068  68.250  1.00  0.00     0.134 A 
HETATM    2  N2  UNL     1      37.183  11.810  67.832  1.00  0.00    -0.338 N 
ATOM      3  H2  UNL     1      37.918  12.474  68.072  1.00  0.00     0.167 HD
HETATM    4  C2  UNL     1      37.520  10.726  67.113  1.00  0.00     0.079 A 
HETATM    5  C8  UNL     1      36.563   9.796  66.765  1.00  0.00     0.083 A 
HETATM    6  N4  UNL     1      36.852   8.691  66.063  1.00  0.00    -0.305 N 
ATOM      7  H4  UNL     1      37.811   8.523  65.756  1.00  0.00     0.171 HD
HETATM    8  C9  UNL     1      35.875   7.788  65.756  1.00  0.00     0.327 A 
HETATM    9  O6  UNL     1      36.143   6.752  65.099  1.00  0.00    -0.247 OA
HETATM   10  N5  UNL     1      34.618   8.013  66.163  1.00  0.00    -0.275 N 
ATOM     11  H5  UNL     1      33.896   7.331  65.929  1.00  0.00     0.173 HD
HETATM   12  C10 UNL     1      34.270   9.114  66.875  1.00  0.00     0.264 A 
HETATM   13  O7  UNL     1      33.100   9.309  67.249  1.00  0.00    -0.267 OA
HETATM   14  C11 UNL     1      35.250  10.033  67.188  1.00  0.00     0.098 A 
HETATM   15  C12 UNL     1      34.914  11.165  67.929  1.00  0.00     0.164 A 
ENDROOT
BRANCH   4  16
HETATM   16  C3  UNL     1      38.900  10.523  66.663  1.00  0.00     0.146 C 
HETATM   17  N3  UNL     1      39.692   9.819  67.457  1.00  0.00    -0.267 N 
ATOM     18  H3  UNL     1      39.355   9.435  68.339  1.00  0.00     0.194 HD
BRANCH  17  19
HETATM   19  O1  UNL     1      41.009   9.625  67.037  1.00  0.00    -0.200 OA
BRANCH  19  20
HETATM   20  C4  UNL     1      41.788  10.670  66.566  1.00  0.00     0.283 C 
HETATM   21  O2  UNL     1      41.821  10.856  65.307  1.00  0.00    -0.263 OA
BRANCH  20  22
HETATM   22  C5  UNL     1      42.550  11.530  67.489  1.00  0.00     0.140 C 
BRANCH  22  23
HETATM   23  C6  UNL     1      41.760  12.228  68.532  1.00  0.00     0.192 C 
BRANCH  23  24
HETATM   24  O3  UNL     1      41.884  11.707  69.834  1.00  0.00    -0.295 OA
BRANCH  24  25
HETATM   25  C7  UNL     1      40.825  10.975  70.342  1.00  0.00     0.332 C 
HETATM   26  O4  UNL     1      41.124   9.983  71.087  1.00  0.00    -0.624 OA
HETATM   27  O5  UNL     1      39.510  11.248  70.098  1.00  0.00    -0.624 OA
ENDBRANCH  24  25
ENDBRANCH  23  24
ENDBRANCH  22  23
ENDBRANCH  20  22
ENDBRANCH  19  20
ENDBRANCH  17  19
ENDBRANCH   4  16
BRANCH   1  28
HETATM   28  N1  UNL     1      35.651  13.119  68.943  1.00  0.00    -0.383 N 
ATOM     29  H12 UNL     1      36.366  13.519  69.550  1.00  0.00     0.157 HD
ATOM     30  H11 UNL     1      34.733  13.563  68.901  1.00  0.00     0.157 HD
ENDBRANCH   1  28
BRANCH  15  31
HETATM   31  N6  UNL     1      33.583  11.454  68.311  1.00  0.00    -0.111 N 
HETATM   32  O8  UNL     1      33.167  11.098  69.412  1.00  0.00    -0.532 OA
HETATM   33  O9  UNL     1      32.748  12.136  67.465  1.00  0.00    -0.532 OA
ENDBRANCH  15  31
TORSDOF 9
ENDMDL
MODEL 3
REMARK VINA RESULT: -8.141956909      2.389      7.512
REMARK  9 active torsions:
REMARK  status: ('A' for Active; 'I' for Inactive)
REMARK    1  A    between atoms: N1_1  and  C1_4 
REMARK    2  A    between atoms: C2_7  and  C3_8 
REMARK    3  A    between atoms: N3_9  and  O1_11 
REMARK    4  A    between atoms: O1_11  and  C4_12 
REMARK    5  A    between atoms: C4_12  and  C5_14 
REMARK    6  A    between atoms: C5_14  and  C6_15 
REMARK    7  A    between atoms: C6_15  and  O3_16 
REMARK    8  A    between atoms: O3_16  and  C7_17 
REMARK    9  A    between atoms: C12_30  and  N6_31 
ROOT
HETATM    1  C1  UNL     1      35.883  11.995  68.406  1.00  0.00     0.134 A 
HETATM    2  N2  UNL     1      37.138  11.768  68.007  1.00  0.00    -0.338 N 
ATOM      3  H2  UNL     1      37.859  12.431  68.291  1.00  0.00     0.167 HD
HETATM    4  C2  UNL     1      37.505  10.717  67.255  1.00  0.00     0.079 A 
HETATM    5  C8  UNL     1      36.568   9.791  66.848  1.00  0.00     0.083 A 
HETATM    6  N4  UNL     1      36.887   8.718  66.110  1.00  0.00    -0.305 N 
ATOM      7  H4  UNL     1      37.855   8.573  65.819  1.00  0.00     0.171 HD
HETATM    8  C9  UNL     1      35.929   7.816  65.745  1.00  0.00     0.327 A 
HETATM    9  O6  UNL     1      36.225   6.811  65.054  1.00  0.00    -0.247 OA
HETATM   10  N5  UNL     1      34.660   8.010  66.131  1.00  0.00    -0.275 N 
ATOM     11  H5  UNL     1      33.953   7.330  65.853  1.00  0.00     0.173 HD
HETATM   12  C10 UNL     1      34.282   9.078  66.877  1.00  0.00     0.264 A 
HETATM   13  O7  UNL     1      33.101   9.245  67.231  1.00  0.00    -0.267 OA
HETATM   14  C11 UNL     1      35.243   9.995  67.249  1.00  0.00     0.098 A 
HETATM   15  C12 UNL     1      34.875  11.093  68.026  1.00  0.00     0.164 A 
ENDROOT
BRANCH   4  16
HETATM   16  C3  UNL     1      38.897  10.548  66.829  1.00  0.00     0.146 C 
HETATM   17  N3  UNL     1      39.743  10.060  67.724  1.00  0.00    -0.267 N 
ATOM     18  H3  UNL     1      39.436   9.812  68.664  1.00  0.00     0.194 HD
BRANCH  17  19
HETATM   19  O1  UNL     1      41.071   9.900  67.327  1.00  0.00    -0.200 OA
BRANCH  19  20
HETATM   20  C4  UNL     1      41.627  10.660  66.310  1.00  0.00     0.283 C 
HETATM   21  O2  UNL     1      42.625  11.394  66.603  1.00  0.00    -0.263 OA
BRANCH  20  22
HETATM   22  C5  UNL     1      41.081  10.619  64.941  1.00  0.00     0.140 C 
BRANCH  22  23
HETATM   23  C6  UNL     1      41.815   9.769  63.972  1.00  0.00     0.192 C 
BRANCH  23  24
HETATM   24  O3  UNL     1      43.077   9.316  64.399  1.00  0.00    -0.295 OA
BRANCH  24  25
HETATM   25  C7  UNL     1      43.854   8.613  63.494  1.00  0.00     0.332 C 
HETATM   26  O4  UNL     1      43.385   8.495  62.313  1.00  0.00    -0.624 OA
HETATM   27  O5  UNL     1      45.063   8.052  63.786  1.00  0.00    -0.624 OA
ENDBRANCH  24  25
ENDBRANCH  23  24
ENDBRANCH  22  23
ENDBRANCH  20  22
ENDBRANCH  19  20
ENDBRANCH  17  19
ENDBRANCH   4  16
BRANCH   1  28
HETATM   28  N1  UNL     1      35.564  13.014  69.133  1.00  0.00    -0.383 N 
ATOM     29  H12 UNL     1      35.382  12.870  70.126  1.00  0.00     0.157 HD
ATOM     30  H11 UNL     1      35.492  13.956  68.748  1.00  0.00     0.157 HD
ENDBRANCH   1  28
BRANCH  15  31
HETATM   31  N6  UNL     1      33.533  11.351  68.387  1.00  0.00    -0.111 N 
HETATM   32  O8  UNL     1      33.082  10.905  69.441  1.00  0.00    -0.532 OA
HETATM   33  O9  UNL     1      32.724  12.103  67.576  1.00  0.00    -0.532 OA
ENDBRANCH  15  31
TORSDOF 9
ENDMDL
MODEL 4
REMARK VINA RESULT: -7.815334997      1.569      2.515
REMARK  9 active torsions:
REMARK  status: ('A' for Active; 'I' for Inactive)
REMARK    1  A    between atoms: N1_1  and  C1_4 
REMARK    2  A    between atoms: C2_7  and  C3_8 
REMARK    3  A    between atoms: N3_9  and  O1_11 
REMARK    4  A    between atoms: O1_11  and  C4_12 
REMARK    5  A    between atoms: C4_12  and  C5_14 
REMARK    6  A    between atoms: C5_14  and  C6_15 
REMARK    7  A    between atoms: C6_15  and  O3_16 
REMARK    8  A    between atoms: O3_16  and  C7_17 
REMARK    9  A    between atoms: C12_30  and  N6_31 
ROOT
HETATM    1  C1  UNL     1      40.040  10.575  65.965  1.00  0.00     0.134 A 
HETATM    2  N2  UNL     1      38.804  10.396  66.440  1.00  0.00    -0.338 N 
ATOM      3  H2  UNL     1      38.088  10.056  65.798  1.00  0.00     0.167 HD
HETATM    4  C2  UNL     1      38.449  10.639  67.712  1.00  0.00     0.079 A 
HETATM    5  C8  UNL     1      39.380  11.098  68.619  1.00  0.00     0.083 A 
HETATM    6  N4  UNL     1      39.079  11.340  69.904  1.00  0.00    -0.305 N 
ATOM      7  H4  UNL     1      38.125  11.196  70.235  1.00  0.00     0.171 HD
HETATM    8  C9  UNL     1      40.039  11.776  70.771  1.00  0.00     0.327 A 
HETATM    9  O6  UNL     1      39.760  12.004  71.974  1.00  0.00    -0.247 OA
HETATM   10  N5  UNL     1      41.291  11.963  70.331  1.00  0.00    -0.275 N 
ATOM     11  H5  UNL     1      42.000  12.288  70.988  1.00  0.00     0.173 HD
HETATM   12  C10 UNL     1      41.650  11.734  69.042  1.00  0.00     0.264 A 
HETATM   13  O7  UNL     1      42.817  11.908  68.647  1.00  0.00    -0.267 OA
HETATM   14  C11 UNL     1      40.687  11.295  68.158  1.00  0.00     0.098 A 
HETATM   15  C12 UNL     1      41.040  11.043  66.833  1.00  0.00     0.164 A 
ENDROOT
BRANCH   4  16
HETATM   16  C3  UNL     1      37.065  10.449  68.155  1.00  0.00     0.146 C 
HETATM   17  N3  UNL     1      36.617   9.204  68.205  1.00  0.00    -0.267 N 
ATOM     18  H3  UNL     1      37.211   8.415  67.949  1.00  0.00     0.194 HD
BRANCH  17  19
HETATM   19  O1  UNL     1      35.299   9.015  68.623  1.00  0.00    -0.200 OA
BRANCH  19  20
HETATM   20  C4  UNL     1      34.229   9.580  67.946  1.00  0.00     0.283 C 
HETATM   21  O2  UNL     1      33.643   8.862  67.073  1.00  0.00    -0.263 OA
BRANCH  20  22
HETATM   22  C5  UNL     1      33.791  10.959  68.226  1.00  0.00     0.140 C 
BRANCH  22  23
HETATM   23  C6  UNL     1      33.777  11.886  67.068  1.00  0.00     0.192 C 
BRANCH  23  24
HETATM   24  O3  UNL     1      35.033  12.391  66.683  1.00  0.00    -0.295 OA
BRANCH  24  25
HETATM   25  C7  UNL     1      35.320  13.712  66.983  1.00  0.00     0.332 C 
HETATM   26  O4  UNL     1      36.189  13.912  67.896  1.00  0.00    -0.624 OA
HETATM   27  O5  UNL     1      34.741  14.786  66.371  1.00  0.00    -0.624 OA
ENDBRANCH  24  25
ENDBRANCH  23  24
ENDBRANCH  22  23
ENDBRANCH  20  22
ENDBRANCH  19  20
ENDBRANCH  17  19
ENDBRANCH   4  16
BRANCH   1  28
HETATM   28  N1  UNL     1      40.349  10.328  64.735  1.00  0.00    -0.383 N 
ATOM     29  H12 UNL     1      41.254  10.642  64.385  1.00  0.00     0.157 HD
ATOM     30  H11 UNL     1      39.721   9.828  64.106  1.00  0.00     0.157 HD
ENDBRANCH   1  28
BRANCH  15  31
HETATM   31  N6  UNL     1      42.339  11.296  66.333  1.00  0.00    -0.111 N 
HETATM   32  O8  UNL     1      42.683  12.446  66.067  1.00  0.00    -0.532 OA
HETATM   33  O9  UNL     1      43.227  10.269  66.147  1.00  0.00    -0.532 OA
ENDBRANCH  15  31
TORSDOF 9
ENDMDL
MODEL 5
REMARK VINA RESULT: -7.786168132      1.693      4.135
REMARK  9 active torsions:
REMARK  status: ('A' for Active; 'I' for Inactive)
REMARK    1  A    between atoms: N1_1  and  C1_4 
REMARK    2  A    between atoms: C2_7  and  C3_8 
REMARK    3  A    between atoms: N3_9  and  O1_11 
REMARK    4  A    between atoms: O1_11  and  C4_12 
REMARK    5  A    between atoms: C4_12  and  C5_14 
REMARK    6  A    between atoms: C5_14  and  C6_15 
REMARK    7  A    between atoms: C6_15  and  O3_16 
REMARK    8  A    between atoms: O3_16  and  C7_17 
REMARK    9  A    between atoms: C12_30  and  N6_31 
ROOT
HETATM    1  C1  UNL     1      39.454  11.118  69.247  1.00  0.00     0.134 A 
HETATM    2  N2  UNL     1      38.363  10.818  68.538  1.00  0.00    -0.338 N 
ATOM      3  H2  UNL     1      37.466  10.792  69.024  1.00  0.00     0.167 HD
HETATM    4  C2  UNL     1      38.377  10.548  67.222  1.00  0.00     0.079 A 
HETATM    5  C8  UNL     1      39.563  10.572  66.519  1.00  0.00     0.083 A 
HETATM    6  N4  UNL     1      39.627  10.325  65.203  1.00  0.00    -0.305 N 
ATOM      7  H4  UNL     1      38.776  10.096  64.689  1.00  0.00     0.171 HD
HETATM    8  C9  UNL     1      40.822  10.378  64.544  1.00  0.00     0.327 A 
HETATM    9  O6  UNL     1      40.885  10.147  63.312  1.00  0.00    -0.247 OA
HETATM   10  N5  UNL     1      41.937  10.680  65.224  1.00  0.00    -0.275 N 
ATOM     11  H5  UNL     1      42.824  10.717  64.721  1.00  0.00     0.173 HD
HETATM   12  C10 UNL     1      41.929  10.937  66.556  1.00  0.00     0.264 A 
HETATM   13  O7  UNL     1      42.972  11.219  67.174  1.00  0.00    -0.267 OA
HETATM   14  C11 UNL     1      40.728  10.885  67.230  1.00  0.00     0.098 A 
HETATM   15  C12 UNL     1      40.698  11.158  68.597  1.00  0.00     0.164 A 
ENDROOT
BRANCH   4  16
HETATM   16  C3  UNL     1      37.143  10.197  66.514  1.00  0.00     0.146 C 
HETATM   17  N3  UNL     1      36.194   9.603  67.221  1.00  0.00    -0.267 N 
ATOM     18  H3  UNL     1      36.317   9.404  68.213  1.00  0.00     0.194 HD
BRANCH  17  19
HETATM   19  O1  UNL     1      35.017   9.262  66.553  1.00  0.00    -0.200 OA
BRANCH  19  20
HETATM   20  C4  UNL     1      33.775   9.358  67.161  1.00  0.00     0.283 C 
HETATM   21  O2  UNL     1      32.931   8.437  66.919  1.00  0.00    -0.263 OA
BRANCH  20  22
HETATM   22  C5  UNL     1      33.448  10.485  68.053  1.00  0.00     0.140 C 
BRANCH  22  23
HETATM   23  C6  UNL     1      33.304  11.810  67.403  1.00  0.00     0.192 C 
BRANCH  23  24
HETATM   24  O3  UNL     1      34.485  12.347  66.857  1.00  0.00    -0.295 OA
BRANCH  24  25
HETATM   25  C7  UNL     1      35.361  12.991  67.714  1.00  0.00     0.332 C 
HETATM   26  O4  UNL     1      35.728  14.166  67.376  1.00  0.00    -0.624 OA
HETATM   27  O5  UNL     1      35.842  12.455  68.874  1.00  0.00    -0.624 OA
ENDBRANCH  24  25
ENDBRANCH  23  24
ENDBRANCH  22  23
ENDBRANCH  20  22
ENDBRANCH  19  20
ENDBRANCH  17  19
ENDBRANCH   4  16
BRANCH   1  28
HETATM   28  N1  UNL     1      39.405  11.376  70.512  1.00  0.00    -0.383 N 
ATOM     29  H12 UNL     1      39.808  10.705  71.166  1.00  0.00     0.157 HD
ATOM     30  H11 UNL     1      38.980  12.229  70.878  1.00  0.00     0.157 HD
ENDBRANCH   1  28
BRANCH  15  31
HETATM   31  N6  UNL     1      41.871  11.413  69.345  1.00  0.00    -0.111 N 
HETATM   32  O8  UNL     1      42.316  10.554  70.104  1.00  0.00    -0.532 OA
HETATM   33  O9  UNL     1      42.527  12.611  69.226  1.00  0.00    -0.532 OA
ENDBRANCH  15  31
TORSDOF 9
ENDMDL
