MODEL 1
REMARK VINA RESULT: -8.312864906      0.000      0.000
REMARK  11 active torsions:
REMARK  status: ('A' for Active; 'I' for Inactive)
REMARK    1  A    between atoms: O1_2  and  C2_3 
REMARK    2  A    between atoms: C4_5  and  N1_6 
REMARK       I    between atoms: N1_6  and  C5_8 
REMARK    3  A    between atoms: C5_8  and  C6_10 
REMARK    4  A    between atoms: C6_10  and  C7_11 
REMARK    5  A    between atoms: C7_11  and  N2_12 
REMARK    6  A    between atoms: C7_11  and  N3_15 
REMARK    7  A    between atoms: N3_15  and  N4_17 
REMARK    8  A    between atoms: N4_17  and  C8_18 
REMARK    9  A    between atoms: N7_24  and  N8_25 
REMARK   10  A    between atoms: C10_28  and  N9_29 
REMARK   11  A    between atoms: C12_33  and  N10_34 
ROOT
HETATM    1  N1  UNL     1      38.304  10.360  65.497  1.00  0.00    -0.325 N 
ATOM      2  H1  UNL     1      38.300  10.131  64.503  1.00  0.00     0.169 HD
HETATM    3  C5  UNL     1      39.548  10.342  66.146  1.00  0.00     0.229 C 
HETATM    4  O2  UNL     1      39.691  10.590  67.346  1.00  0.00    -0.273 OA
ENDROOT
BRANCH   3   5
HETATM    5  C6  UNL     1      40.811  10.003  65.362  1.00  0.00     0.181 C 
BRANCH   5   6
HETATM    6  C7  UNL     1      42.010  10.191  66.181  1.00  0.00     0.110 C 
BRANCH   6   7
HETATM    7  N2  UNL     1      42.855   9.258  66.326  1.00  0.00    -0.387 N 
ATOM      8  H22 UNL     1      42.520   8.343  66.625  1.00  0.00     0.157 HD
ATOM      9  H21 UNL     1      43.848   9.415  66.149  1.00  0.00     0.157 HD
ENDBRANCH   6   7
BRANCH   6  10
HETATM   10  N3  UNL     1      42.256  11.446  66.842  1.00  0.00    -0.220 N 
ATOM     11  H3  UNL     1      42.643  12.195  66.268  1.00  0.00     0.203 HD
BRANCH  10  12
HETATM   12  N4  UNL     1      42.040  11.725  68.077  1.00  0.00    -0.283 NA
BRANCH  12  13
HETATM   13  C8  UNL     1      41.836  11.978  69.205  1.00  0.00     0.318 A 
HETATM   14  N5  UNL     1      42.164  13.126  69.891  1.00  0.00    -0.307 N 
HETATM   15  C9  UNL     1      41.759  13.019  71.150  1.00  0.00     0.203 A 
ATOM     16  H5  UNL     1      42.643  13.933  69.494  1.00  0.00     0.171 HD
HETATM   17  N6  UNL     1      41.176  11.831  71.297  1.00  0.00    -0.272 N 
HETATM   18  N7  UNL     1      41.214  11.202  70.155  1.00  0.00    -0.154 N 
ATOM     19  H6  UNL     1      40.768  11.472  72.160  1.00  0.00     0.190 HD
BRANCH  18  20
HETATM   20  N8  UNL     1      40.693   9.909  69.899  1.00  0.00    -0.320 N 
ATOM     21  H82 UNL     1      40.117   9.642  69.101  1.00  0.00     0.179 HD
ATOM     22  H81 UNL     1      40.852   9.103  70.504  1.00  0.00     0.179 HD
ENDBRANCH  18  20
ENDBRANCH  12  13
ENDBRANCH  10  12
ENDBRANCH   6  10
ENDBRANCH   5   6
ENDBRANCH   3   5
BRANCH   1  23
HETATM   23  C4  UNL     1      37.068  10.662  66.082  1.00  0.00     0.070 A 
HETATM   24  C3  UNL     1      36.732  11.859  66.673  1.00  0.00     0.071 A 
HETATM   25  C2  UNL     1      35.516  12.127  67.273  1.00  0.00     0.103 A 
HETATM   26  C12 UNL     1      34.525  11.154  67.311  1.00  0.00     0.138 A 
HETATM   27  C11 UNL     1      34.819   9.959  66.737  1.00  0.00     0.077 A 
HETATM   28  C10 UNL     1      36.058   9.686  66.125  1.00  0.00     0.132 A 
BRANCH  25  29
HETATM   29  O1  UNL     1      35.221  13.335  67.850  1.00  0.00    -0.353 OA
HETATM   30  C1  UNL     1      35.490  14.533  67.146  1.00  0.00     0.210 C 
ENDBRANCH  25  29
BRANCH  26  31
HETATM   31  N10 UNL     1      33.274  11.407  67.906  1.00  0.00    -0.113 N 
HETATM   32  O5  UNL     1      32.449  12.113  67.313  1.00  0.00    -0.532 OA
HETATM   33  O6  UNL     1      32.966  10.882  69.123  1.00  0.00    -0.532 OA
ENDBRANCH  26  31
BRANCH  28  34
HETATM   34  N9  UNL     1      36.259   8.412  65.557  1.00  0.00    -0.113 N 
HETATM   35  O3  UNL     1      36.153   7.298  66.049  1.00  0.00    -0.532 OA
HETATM   36  O4  UNL     1      36.702   8.407  64.222  1.00  0.00    -0.532 OA
ENDBRANCH  28  34
ENDBRANCH   1  23
TORSDOF 11
ENDMDL
MODEL 2
REMARK VINA RESULT: -7.814019765      0.893      1.088
REMARK  11 active torsions:
REMARK  status: ('A' for Active; 'I' for Inactive)
REMARK    1  A    between atoms: O1_2  and  C2_3 
REMARK    2  A    between atoms: C4_5  and  N1_6 
REMARK       I    between atoms: N1_6  and  C5_8 
REMARK    3  A    between atoms: C5_8  and  C6_10 
REMARK    4  A    between atoms: C6_10  and  C7_11 
REMARK    5  A    between atoms: C7_11  and  N2_12 
REMARK    6  A    between atoms: C7_11  and  N3_15 
REMARK    7  A    between atoms: N3_15  and  N4_17 
REMARK    8  A    between atoms: N4_17  and  C8_18 
REMARK    9  A    between atoms: N7_24  and  N8_25 
REMARK   10  A    between atoms: C10_28  and  N9_29 
REMARK   11  A    between atoms: C12_33  and  N10_34 
ROOT
HETATM    1  N1  UNL     1      38.364   9.902  66.233  1.00  0.00    -0.325 N 
ATOM      2  H1  UNL     1      38.378   9.066  65.650  1.00  0.00     0.169 HD
HETATM    3  C5  UNL     1      39.607  10.468  66.560  1.00  0.00     0.229 C 
HETATM    4  O2  UNL     1      39.731  11.472  67.264  1.00  0.00    -0.273 OA
ENDROOT
BRANCH   3   5
HETATM    5  C6  UNL     1      40.892   9.835  66.036  1.00  0.00     0.181 C 
BRANCH   5   6
HETATM    6  C7  UNL     1      42.054  10.282  66.806  1.00  0.00     0.110 C 
BRANCH   6   7
HETATM    7  N2  UNL     1      43.042  10.836  66.236  1.00  0.00    -0.387 N 
ATOM      8  H22 UNL     1      43.495  10.344  65.466  1.00  0.00     0.157 HD
ATOM      9  H21 UNL     1      43.376  11.752  66.536  1.00  0.00     0.157 HD
ENDBRANCH   6   7
BRANCH   6  10
HETATM   10  N3  UNL     1      42.102  10.101  68.233  1.00  0.00    -0.220 N 
ATOM     11  H3  UNL     1      42.499   9.222  68.567  1.00  0.00     0.203 HD
BRANCH  10  12
HETATM   12  N4  UNL     1      41.700  10.925  69.132  1.00  0.00    -0.283 NA
BRANCH  12  13
HETATM   13  C8  UNL     1      41.325  11.675  69.954  1.00  0.00     0.318 A 
HETATM   14  N5  UNL     1      42.033  12.682  70.570  1.00  0.00    -0.307 N 
HETATM   15  C9  UNL     1      41.249  13.305  71.440  1.00  0.00     0.203 A 
ATOM     16  H5  UNL     1      43.009  12.914  70.387  1.00  0.00     0.171 HD
HETATM   17  N6  UNL     1      40.050  12.727  71.403  1.00  0.00    -0.272 N 
HETATM   18  N7  UNL     1      40.078  11.760  70.528  1.00  0.00    -0.154 N 
ATOM     19  H6  UNL     1      39.243  12.996  71.966  1.00  0.00     0.190 HD
BRANCH  18  20
HETATM   20  N8  UNL     1      38.996  10.908  70.193  1.00  0.00    -0.320 N 
ATOM     21  H82 UNL     1      38.089  11.205  69.834  1.00  0.00     0.179 HD
ATOM     22  H81 UNL     1      39.025   9.893  70.279  1.00  0.00     0.179 HD
ENDBRANCH  18  20
ENDBRANCH  12  13
ENDBRANCH  10  12
ENDBRANCH   6  10
ENDBRANCH   5   6
ENDBRANCH   3   5
BRANCH   1  23
HETATM   23  C4  UNL     1      37.108  10.377  66.631  1.00  0.00     0.070 A 
HETATM   24  C3  UNL     1      36.841  11.643  67.101  1.00  0.00     0.071 A 
HETATM   25  C2  UNL     1      35.599  12.083  67.518  1.00  0.00     0.103 A 
HETATM   26  C12 UNL     1      34.505  11.227  67.480  1.00  0.00     0.138 A 
HETATM   27  C11 UNL     1      34.728   9.969  67.021  1.00  0.00     0.077 A 
HETATM   28  C10 UNL     1      35.995   9.521  66.596  1.00  0.00     0.132 A 
BRANCH  25  29
HETATM   29  O1  UNL     1      35.376  13.354  67.980  1.00  0.00    -0.353 OA
HETATM   30  C1  UNL     1      35.546  14.457  67.109  1.00  0.00     0.210 C 
ENDBRANCH  25  29
BRANCH  26  31
HETATM   31  N10 UNL     1      33.227  11.655  67.889  1.00  0.00    -0.113 N 
HETATM   32  O5  UNL     1      32.513  12.282  67.096  1.00  0.00    -0.532 OA
HETATM   33  O6  UNL     1      32.773  11.385  69.142  1.00  0.00    -0.532 OA
ENDBRANCH  26  31
BRANCH  28  34
HETATM   34  N9  UNL     1      36.117   8.195  66.133  1.00  0.00    -0.113 N 
HETATM   35  O3  UNL     1      36.903   7.702  65.339  1.00  0.00    -0.532 OA
HETATM   36  O4  UNL     1      35.153   7.293  66.618  1.00  0.00    -0.532 OA
ENDBRANCH  28  34
ENDBRANCH   1  23
TORSDOF 11
ENDMDL
MODEL 3
REMARK VINA RESULT: -7.521990610      0.880      1.381
REMARK  11 active torsions:
REMARK  status: ('A' for Active; 'I' for Inactive)
REMARK    1  A    between atoms: O1_2  and  C2_3 
REMARK    2  A    between atoms: C4_5  and  N1_6 
REMARK       I    between atoms: N1_6  and  C5_8 
REMARK    3  A    between atoms: C5_8  and  C6_10 
REMARK    4  A    between atoms: C6_10  and  C7_11 
REMARK    5  A    between atoms: C7_11  and  N2_12 
REMARK    6  A    between atoms: C7_11  and  N3_15 
REMARK    7  A    between atoms: N3_15  and  N4_17 
REMARK    8  A    between atoms: N4_17  and  C8_18 
REMARK    9  A    between atoms: N7_24  and  N8_25 
REMARK   10  A    between atoms: C10_28  and  N9_29 
REMARK   11  A    between atoms: C12_33  and  N10_34 
ROOT
HETATM    1  N1  UNL     1      38.243  10.053  65.732  1.00  0.00    -0.325 N 
ATOM      2  H1  UNL     1      38.220   9.283  65.064  1.00  0.00     0.169 HD
HETATM    3  C5  UNL     1      39.504  10.596  66.029  1.00  0.00     0.229 C 
HETATM    4  O2  UNL     1      39.673  11.523  66.825  1.00  0.00    -0.273 OA
ENDROOT
BRANCH   3   5
HETATM    5  C6  UNL     1      40.751  10.037  65.354  1.00  0.00     0.181 C 
BRANCH   5   6
HETATM    6  C7  UNL     1      41.779   9.696  66.338  1.00  0.00     0.110 C 
BRANCH   6   7
HETATM    7  N2  UNL     1      43.009   9.709  66.031  1.00  0.00    -0.387 N 
ATOM      8  H22 UNL     1      43.289  10.191  65.177  1.00  0.00     0.157 HD
ATOM      9  H21 UNL     1      43.704   9.253  66.622  1.00  0.00     0.157 HD
ENDBRANCH   6   7
BRANCH   6  10
HETATM   10  N3  UNL     1      41.414   9.334  67.683  1.00  0.00    -0.220 N 
ATOM     11  H3  UNL     1      41.339   8.336  67.881  1.00  0.00     0.203 HD
BRANCH  10  12
HETATM   12  N4  UNL     1      41.173  10.131  68.661  1.00  0.00    -0.283 NA
BRANCH  12  13
HETATM   13  C8  UNL     1      40.948  10.863  69.551  1.00  0.00     0.318 A 
HETATM   14  N5  UNL     1      40.046  10.700  70.578  1.00  0.00    -0.307 N 
HETATM   15  C9  UNL     1      40.095  11.754  71.381  1.00  0.00     0.203 A 
ATOM     16  H5  UNL     1      39.435   9.893  70.702  1.00  0.00     0.171 HD
HETATM   17  N6  UNL     1      41.007  12.597  70.901  1.00  0.00    -0.272 N 
HETATM   18  N7  UNL     1      41.521  12.085  69.817  1.00  0.00    -0.154 N 
ATOM     19  H6  UNL     1      41.261  13.495  71.312  1.00  0.00     0.190 HD
BRANCH  18  20
HETATM   20  N8  UNL     1      42.529  12.676  69.014  1.00  0.00    -0.320 N 
ATOM     21  H82 UNL     1      43.333  13.204  69.353  1.00  0.00     0.179 HD
ATOM     22  H81 UNL     1      42.546  12.624  67.996  1.00  0.00     0.179 HD
ENDBRANCH  18  20
ENDBRANCH  12  13
ENDBRANCH  10  12
ENDBRANCH   6  10
ENDBRANCH   5   6
ENDBRANCH   3   5
BRANCH   1  23
HETATM   23  C4  UNL     1      37.016  10.468  66.264  1.00  0.00     0.070 A 
HETATM   24  C3  UNL     1      36.743  11.721  66.765  1.00  0.00     0.071 A 
HETATM   25  C2  UNL     1      35.533  12.102  67.314  1.00  0.00     0.103 A 
HETATM   26  C12 UNL     1      34.483  11.196  67.391  1.00  0.00     0.138 A 
HETATM   27  C11 UNL     1      34.714   9.949  66.906  1.00  0.00     0.077 A 
HETATM   28  C10 UNL     1      35.947   9.560  66.346  1.00  0.00     0.132 A 
BRANCH  25  29
HETATM   29  O1  UNL     1      35.301  13.363  67.802  1.00  0.00    -0.353 OA
HETATM   30  C1  UNL     1      35.525  14.488  66.973  1.00  0.00     0.210 C 
ENDBRANCH  25  29
BRANCH  26  31
HETATM   31  N10 UNL     1      33.237  11.564  67.936  1.00  0.00    -0.113 N 
HETATM   32  O5  UNL     1      32.447  12.227  67.254  1.00  0.00    -0.532 OA
HETATM   33  O6  UNL     1      32.898  11.196  69.201  1.00  0.00    -0.532 OA
ENDBRANCH  26  31
BRANCH  28  34
HETATM   34  N9  UNL     1      36.081   8.241  65.868  1.00  0.00    -0.113 N 
HETATM   35  O3  UNL     1      36.756   7.794  64.952  1.00  0.00    -0.532 OA
HETATM   36  O4  UNL     1      35.277   7.281  66.507  1.00  0.00    -0.532 OA
ENDBRANCH  28  34
ENDBRANCH   1  23
TORSDOF 11
ENDMDL
MODEL 4
REMARK VINA RESULT: -7.495694638      1.663      3.131
REMARK  11 active torsions:
REMARK  status: ('A' for Active; 'I' for Inactive)
REMARK    1  A    between atoms: O1_2  and  C2_3 
REMARK    2  A    between atoms: C4_5  and  N1_6 
REMARK       I    between atoms: N1_6  and  C5_8 
REMARK    3  A    between atoms: C5_8  and  C6_10 
REMARK    4  A    between atoms: C6_10  and  C7_11 
REMARK    5  A    between atoms: C7_11  and  N2_12 
REMARK    6  A    between atoms: C7_11  and  N3_15 
REMARK    7  A    between atoms: N3_15  and  N4_17 
REMARK    8  A    between atoms: N4_17  and  C8_18 
REMARK    9  A    between atoms: N7_24  and  N8_25 
REMARK   10  A    between atoms: C10_28  and  N9_29 
REMARK   11  A    between atoms: C12_33  and  N10_34 
ROOT
HETATM    1  N1  UNL     1      39.768  10.447  66.457  1.00  0.00    -0.325 N 
ATOM      2  H1  UNL     1      40.355  10.584  67.280  1.00  0.00     0.169 HD
HETATM    3  C5  UNL     1      40.408  10.482  65.208  1.00  0.00     0.229 C 
HETATM    4  O2  UNL     1      39.813  10.339  64.137  1.00  0.00    -0.273 OA
ENDROOT
BRANCH   3   5
HETATM    5  C6  UNL     1      41.914  10.705  65.131  1.00  0.00     0.181 C 
BRANCH   5   6
HETATM    6  C7  UNL     1      42.558  10.426  66.415  1.00  0.00     0.110 C 
BRANCH   6   7
HETATM    7  N2  UNL     1      42.819   9.237  66.771  1.00  0.00    -0.387 N 
ATOM      8  H22 UNL     1      43.747   8.865  66.570  1.00  0.00     0.157 HD
ATOM      9  H21 UNL     1      42.122   8.665  67.248  1.00  0.00     0.157 HD
ENDBRANCH   6   7
BRANCH   6  10
HETATM   10  N3  UNL     1      42.909  11.499  67.308  1.00  0.00    -0.220 N 
ATOM     11  H3  UNL     1      43.648  12.128  66.995  1.00  0.00     0.203 HD
BRANCH  10  12
HETATM   12  N4  UNL     1      42.392  11.751  68.457  1.00  0.00    -0.283 NA
BRANCH  12  13
HETATM   13  C8  UNL     1      41.916  11.976  69.506  1.00  0.00     0.318 A 
HETATM   14  N5  UNL     1      41.900  13.168  70.194  1.00  0.00    -0.307 N 
HETATM   15  C9  UNL     1      41.261  13.005  71.345  1.00  0.00     0.203 A 
ATOM     16  H5  UNL     1      42.316  14.040  69.870  1.00  0.00     0.171 HD
HETATM   17  N6  UNL     1      40.861  11.738  71.419  1.00  0.00    -0.272 N 
HETATM   18  N7  UNL     1      41.241  11.114  70.338  1.00  0.00    -0.154 N 
ATOM     19  H6  UNL     1      40.342  11.323  72.194  1.00  0.00     0.190 HD
BRANCH  18  20
HETATM   20  N8  UNL     1      41.002   9.750  70.037  1.00  0.00    -0.320 N 
ATOM     21  H82 UNL     1      41.030   9.328  69.109  1.00  0.00     0.179 HD
ATOM     22  H81 UNL     1      40.777   9.045  70.738  1.00  0.00     0.179 HD
ENDBRANCH  18  20
ENDBRANCH  12  13
ENDBRANCH  10  12
ENDBRANCH   6  10
ENDBRANCH   5   6
ENDBRANCH   3   5
BRANCH   1  23
HETATM   23  C4  UNL     1      38.401  10.242  66.683  1.00  0.00     0.070 A 
HETATM   24  C3  UNL     1      37.574   9.446  65.922  1.00  0.00     0.071 A 
HETATM   25  C2  UNL     1      36.220   9.281  66.143  1.00  0.00     0.103 A 
HETATM   26  C12 UNL     1      35.596   9.940  67.196  1.00  0.00     0.138 A 
HETATM   27  C11 UNL     1      36.380  10.733  67.970  1.00  0.00     0.077 A 
HETATM   28  C10 UNL     1      37.761  10.903  67.744  1.00  0.00     0.132 A 
BRANCH  25  29
HETATM   29  O1  UNL     1      35.431   8.477  65.361  1.00  0.00    -0.353 OA
HETATM   30  C1  UNL     1      35.680   7.085  65.309  1.00  0.00     0.210 C 
ENDBRANCH  25  29
BRANCH  26  31
HETATM   31  N10 UNL     1      34.221   9.779  67.448  1.00  0.00    -0.113 N 
HETATM   32  O5  UNL     1      33.682   8.691  67.207  1.00  0.00    -0.532 OA
HETATM   33  O6  UNL     1      33.482  10.804  67.953  1.00  0.00    -0.532 OA
ENDBRANCH  26  31
BRANCH  28  34
HETATM   34  N9  UNL     1      38.484  11.748  68.610  1.00  0.00    -0.113 N 
HETATM   35  O3  UNL     1      39.187  12.717  68.367  1.00  0.00    -0.532 OA
HETATM   36  O4  UNL     1      38.437  11.403  69.973  1.00  0.00    -0.532 OA
ENDBRANCH  28  34
ENDBRANCH   1  23
TORSDOF 11
ENDMDL
MODEL 5
REMARK VINA RESULT: -7.314321340      1.888      3.986
REMARK  11 active torsions:
REMARK  status: ('A' for Active; 'I' for Inactive)
REMARK    1  A    between atoms: O1_2  and  C2_3 
REMARK    2  A    between atoms: C4_5  and  N1_6 
REMARK       I    between atoms: N1_6  and  C5_8 
REMARK    3  A    between atoms: C5_8  and  C6_10 
REMARK    4  A    between atoms: C6_10  and  C7_11 
REMARK    5  A    between atoms: C7_11  and  N2_12 
REMARK    6  A    between atoms: C7_11  and  N3_15 
REMARK    7  A    between atoms: N3_15  and  N4_17 
REMARK    8  A    between atoms: N4_17  and  C8_18 
REMARK    9  A    between atoms: N7_24  and  N8_25 
REMARK   10  A    between atoms: C10_28  and  N9_29 
REMARK   11  A    between atoms: C12_33  and  N10_34 
ROOT
HETATM    1  N1  UNL     1      38.842  10.298  67.411  1.00  0.00    -0.325 N 
ATOM      2  H1  UNL     1      39.118   9.615  66.706  1.00  0.00     0.169 HD
HETATM    3  C5  UNL     1      39.815  10.660  68.358  1.00  0.00     0.229 C 
HETATM    4  O2  UNL     1      39.609  11.467  69.267  1.00  0.00    -0.273 OA
ENDROOT
BRANCH   3   5
HETATM    5  C6  UNL     1      41.207  10.043  68.291  1.00  0.00     0.181 C 
BRANCH   5   6
HETATM    6  C7  UNL     1      42.134  10.906  67.556  1.00  0.00     0.110 C 
BRANCH   6   7
HETATM    7  N2  UNL     1      42.117  12.164  67.709  1.00  0.00    -0.387 N 
ATOM      8  H22 UNL     1      41.417  12.567  68.334  1.00  0.00     0.157 HD
ATOM      9  H21 UNL     1      42.784  12.763  67.223  1.00  0.00     0.157 HD
ENDBRANCH   6   7
BRANCH   6  10
HETATM   10  N3  UNL     1      43.090  10.342  66.638  1.00  0.00    -0.220 N 
ATOM     11  H3  UNL     1      44.044  10.241  66.982  1.00  0.00     0.203 HD
BRANCH  10  12
HETATM   12  N4  UNL     1      42.870   9.954  65.434  1.00  0.00    -0.283 NA
BRANCH  12  13
HETATM   13  C8  UNL     1      42.670   9.592  64.336  1.00  0.00     0.318 A 
HETATM   14  N5  UNL     1      41.593   9.879  63.529  1.00  0.00    -0.307 N 
HETATM   15  C9  UNL     1      41.745   9.277  62.357  1.00  0.00     0.203 A 
ATOM     16  H5  UNL     1      40.800  10.463  63.792  1.00  0.00     0.171 HD
HETATM   17  N6  UNL     1      42.896   8.608  62.383  1.00  0.00    -0.272 N 
HETATM   18  N7  UNL     1      43.456   8.783  63.548  1.00  0.00    -0.154 N 
ATOM     19  H6  UNL     1      43.276   8.049  61.618  1.00  0.00     0.190 HD
BRANCH  18  20
HETATM   20  N8  UNL     1      44.695   8.237  63.966  1.00  0.00    -0.320 N 
ATOM     21  H82 UNL     1      45.617   8.634  63.783  1.00  0.00     0.179 HD
ATOM     22  H81 UNL     1      44.783   7.377  64.506  1.00  0.00     0.179 HD
ENDBRANCH  18  20
ENDBRANCH  12  13
ENDBRANCH  10  12
ENDBRANCH   6  10
ENDBRANCH   5   6
ENDBRANCH   3   5
BRANCH   1  23
HETATM   23  C4  UNL     1      37.532  10.787  67.342  1.00  0.00     0.070 A 
HETATM   24  C3  UNL     1      37.143  12.080  67.610  1.00  0.00     0.071 A 
HETATM   25  C2  UNL     1      35.839  12.535  67.565  1.00  0.00     0.103 A 
HETATM   26  C12 UNL     1      34.806  11.667  67.232  1.00  0.00     0.138 A 
HETATM   27  C11 UNL     1      35.150  10.383  66.959  1.00  0.00     0.077 A 
HETATM   28  C10 UNL     1      36.480   9.919  67.005  1.00  0.00     0.132 A 
BRANCH  25  29
HETATM   29  O1  UNL     1      35.494  13.833  67.839  1.00  0.00    -0.353 OA
HETATM   30  C1  UNL     1      35.823  14.856  66.917  1.00  0.00     0.210 C 
ENDBRANCH  25  29
BRANCH  26  31
HETATM   31  N10 UNL     1      33.471  12.110  67.169  1.00  0.00    -0.113 N 
HETATM   32  O5  UNL     1      33.131  12.894  66.273  1.00  0.00    -0.532 OA
HETATM   33  O6  UNL     1      32.554  11.684  68.080  1.00  0.00    -0.532 OA
ENDBRANCH  26  31
BRANCH  28  34
HETATM   34  N9  UNL     1      36.729   8.565  66.701  1.00  0.00    -0.113 N 
HETATM   35  O3  UNL     1      37.783   7.974  66.518  1.00  0.00    -0.532 OA
HETATM   36  O4  UNL     1      35.587   7.762  66.528  1.00  0.00    -0.532 OA
ENDBRANCH  28  34
ENDBRANCH   1  23
TORSDOF 11
ENDMDL
