MODEL 1
REMARK VINA RESULT: -8.893712313      0.000      0.000
REMARK  8 active torsions:
REMARK  status: ('A' for Active; 'I' for Inactive)
REMARK    1  A    between atoms: N1_2  and  N2_4 
REMARK    2  A    between atoms: N3_6  and  C2_8 
REMARK    3  A    between atoms: C4_10  and  N4_11 
REMARK    4  A    between atoms: C5_14  and  N5_15 
REMARK    5  A    between atoms: N5_15  and  S1_17 
REMARK    6  A    between atoms: S1_17  and  C6_20 
REMARK    7  A    between atoms: C6_20  and  N6_21 
REMARK    8  A    between atoms: C8_28  and  N9_29 
ROOT
HETATM    1  S1  UNL     1      39.052  10.279  66.691  1.00  0.00     0.270 S 
HETATM    2  O3  UNL     1      39.460  10.320  65.207  1.00  0.00    -0.200 OA
HETATM    3  O4  UNL     1      38.565  11.698  67.048  1.00  0.00    -0.200 OA
ENDROOT
BRANCH   1   4
HETATM    4  N5  UNL     1      37.753   9.227  66.878  1.00  0.00    -0.257 N 
ATOM      5  H5  UNL     1      37.980   8.233  66.851  1.00  0.00     0.181 HD
BRANCH   4   6
HETATM    6  C5  UNL     1      36.380   9.544  67.069  1.00  0.00     0.193 A 
HETATM    7  C4  UNL     1      35.377   8.846  66.389  1.00  0.00     0.158 A 
HETATM    8  C3  UNL     1      34.177   9.391  66.791  1.00  0.00     0.098 A 
HETATM    9  C2  UNL     1      34.482  10.388  67.687  1.00  0.00     0.168 A 
HETATM   10  O6  UNL     1      35.765  10.407  67.788  1.00  0.00    -0.272 OA
BRANCH   7  11
HETATM   11  N4  UNL     1      35.514   7.788  65.454  1.00  0.00    -0.111 N 
HETATM   12  O1  UNL     1      35.898   6.682  65.852  1.00  0.00    -0.532 OA
HETATM   13  O2  UNL     1      35.224   7.990  64.141  1.00  0.00    -0.532 OA
ENDBRANCH   7  11
BRANCH   9  14
HETATM   14  N3  UNL     1      33.508  11.211  68.348  1.00  0.00    -0.265 N 
HETATM   15  N2  UNL     1      33.209  12.363  67.904  1.00  0.00    -0.246 N 
ATOM     16  H2  UNL     1      32.513  12.916  68.405  1.00  0.00     0.208 HD
ATOM     17  H3  UNL     1      33.048  10.865  69.190  1.00  0.00     0.190 HD
BRANCH  15  18
HETATM   18  N1  UNL     1      33.795  12.903  66.758  1.00  0.00    -0.326 N 
HETATM   19  C1  UNL     1      34.950  13.778  66.805  1.00  0.00     0.169 C 
ATOM     20  H1  UNL     1      33.394  12.671  65.849  1.00  0.00     0.181 HD
ENDBRANCH  15  18
ENDBRANCH   9  14
ENDBRANCH   4   6
ENDBRANCH   1   4
BRANCH   1  21
HETATM   21  C6  UNL     1      40.513  10.039  67.587  1.00  0.00     0.251 C 
BRANCH  21  22
HETATM   22  N6  UNL     1      40.899  10.985  68.581  1.00  0.00    -0.093 N 
HETATM   23  C7  UNL     1      40.249  11.188  69.742  1.00  0.00     0.701 A 
HETATM   24  N7  UNL     1      39.181  10.552  69.999  1.00  0.00    -0.233 N 
HETATM   25  N8  UNL     1      40.688  12.097  70.670  1.00  0.00    -0.022 N 
ATOM     26  H72 UNL     1      38.855   9.876  69.308  1.00  0.00     0.174 HD
ATOM     27  H71 UNL     1      38.689  10.706  70.879  1.00  0.00     0.174 HD
HETATM   28  C8  UNL     1      41.789  12.824  70.452  1.00  0.00     0.694 A 
ATOM     29  H8  UNL     1      40.166  12.221  71.538  1.00  0.00     0.203 HD
HETATM   30  N10 UNL     1      42.442  12.631  69.299  1.00  0.00    -0.140 N 
HETATM   31  C9  UNL     1      42.020  11.754  68.403  1.00  0.00     0.359 A 
ATOM     32  H10 UNL     1      43.285  13.172  69.107  1.00  0.00     0.189 HD
HETATM   33  O5  UNL     1      42.665  11.604  67.332  1.00  0.00    -0.245 OA
BRANCH  28  34
HETATM   34  N9  UNL     1      42.197  13.683  71.339  1.00  0.00    -0.234 N 
ATOM     35  H92 UNL     1      42.527  13.393  72.260  1.00  0.00     0.174 HD
ATOM     36  H91 UNL     1      42.195  14.681  71.130  1.00  0.00     0.174 HD
ENDBRANCH  28  34
ENDBRANCH  21  22
ENDBRANCH   1  21
TORSDOF 8
ENDMDL
MODEL 2
REMARK VINA RESULT: -8.710865077      0.874      1.554
REMARK  8 active torsions:
REMARK  status: ('A' for Active; 'I' for Inactive)
REMARK    1  A    between atoms: N1_2  and  N2_4 
REMARK    2  A    between atoms: N3_6  and  C2_8 
REMARK    3  A    between atoms: C4_10  and  N4_11 
REMARK    4  A    between atoms: C5_14  and  N5_15 
REMARK    5  A    between atoms: N5_15  and  S1_17 
REMARK    6  A    between atoms: S1_17  and  C6_20 
REMARK    7  A    between atoms: C6_20  and  N6_21 
REMARK    8  A    between atoms: C8_28  and  N9_29 
ROOT
HETATM    1  S1  UNL     1      39.135  10.303  66.954  1.00  0.00     0.270 S 
HETATM    2  O3  UNL     1      39.682  10.393  65.517  1.00  0.00    -0.200 OA
HETATM    3  O4  UNL     1      38.657  11.721  67.326  1.00  0.00    -0.200 OA
ENDROOT
BRANCH   1   4
HETATM    4  N5  UNL     1      37.796   9.286  66.973  1.00  0.00    -0.257 N 
ATOM      5  H5  UNL     1      37.993   8.291  66.868  1.00  0.00     0.181 HD
BRANCH   4   6
HETATM    6  C5  UNL     1      36.425   9.634  67.116  1.00  0.00     0.193 A 
HETATM    7  C4  UNL     1      35.429   8.954  66.407  1.00  0.00     0.158 A 
HETATM    8  C3  UNL     1      34.229   9.527  66.766  1.00  0.00     0.098 A 
HETATM    9  C2  UNL     1      34.526  10.523  67.665  1.00  0.00     0.168 A 
HETATM   10  O6  UNL     1      35.805  10.515  67.809  1.00  0.00    -0.272 OA
BRANCH   7  11
HETATM   11  N4  UNL     1      35.574   7.886  65.484  1.00  0.00    -0.111 N 
HETATM   12  O1  UNL     1      35.953   6.784  65.896  1.00  0.00    -0.532 OA
HETATM   13  O2  UNL     1      35.296   8.076  64.166  1.00  0.00    -0.532 OA
ENDBRANCH   7  11
BRANCH   9  14
HETATM   14  N3  UNL     1      33.549  11.372  68.289  1.00  0.00    -0.265 N 
HETATM   15  N2  UNL     1      33.278  12.521  67.819  1.00  0.00    -0.246 N 
ATOM     16  H2  UNL     1      32.579  13.092  68.294  1.00  0.00     0.208 HD
ATOM     17  H3  UNL     1      33.063  11.047  69.125  1.00  0.00     0.190 HD
BRANCH  15  18
HETATM   18  N1  UNL     1      33.900  13.032  66.679  1.00  0.00    -0.326 N 
HETATM   19  C1  UNL     1      35.020  13.951  66.741  1.00  0.00     0.169 C 
ATOM     20  H1  UNL     1      33.553  12.748  65.763  1.00  0.00     0.181 HD
ENDBRANCH  15  18
ENDBRANCH   9  14
ENDBRANCH   4   6
ENDBRANCH   1   4
BRANCH   1  21
HETATM   21  C6  UNL     1      40.498   9.980  67.970  1.00  0.00     0.251 C 
BRANCH  21  22
HETATM   22  N6  UNL     1      41.017  11.009  68.810  1.00  0.00    -0.093 N 
HETATM   23  C7  UNL     1      42.037  11.824  68.486  1.00  0.00     0.701 A 
HETATM   24  N7  UNL     1      42.650  11.678  67.385  1.00  0.00    -0.233 N 
HETATM   25  N8  UNL     1      42.472  12.813  69.331  1.00  0.00    -0.022 N 
ATOM     26  H72 UNL     1      42.327  10.942  66.756  1.00  0.00     0.174 HD
ATOM     27  H71 UNL     1      43.424  12.297  67.139  1.00  0.00     0.174 HD
HETATM   28  C8  UNL     1      41.891  13.004  70.521  1.00  0.00     0.694 A 
ATOM     29  H8  UNL     1      43.248  13.410  69.048  1.00  0.00     0.203 HD
HETATM   30  N10 UNL     1      40.876  12.198  70.853  1.00  0.00    -0.140 N 
HETATM   31  C9  UNL     1      40.455  11.243  70.038  1.00  0.00     0.359 A 
ATOM     32  H10 UNL     1      40.416  12.321  71.754  1.00  0.00     0.189 HD
HETATM   33  O5  UNL     1      39.497  10.506  70.391  1.00  0.00    -0.245 OA
BRANCH  28  34
HETATM   34  N9  UNL     1      42.311  13.946  71.313  1.00  0.00    -0.234 N 
ATOM     35  H92 UNL     1      42.116  13.936  72.315  1.00  0.00     0.174 HD
ATOM     36  H91 UNL     1      42.851  14.728  70.944  1.00  0.00     0.174 HD
ENDBRANCH  28  34
ENDBRANCH  21  22
ENDBRANCH   1  21
TORSDOF 8
ENDMDL
MODEL 3
REMARK VINA RESULT: -8.550800241      3.786      6.146
REMARK  8 active torsions:
REMARK  status: ('A' for Active; 'I' for Inactive)
REMARK    1  A    between atoms: N1_2  and  N2_4 
REMARK    2  A    between atoms: N3_6  and  C2_8 
REMARK    3  A    between atoms: C4_10  and  N4_11 
REMARK    4  A    between atoms: C5_14  and  N5_15 
REMARK    5  A    between atoms: N5_15  and  S1_17 
REMARK    6  A    between atoms: S1_17  and  C6_20 
REMARK    7  A    between atoms: C6_20  and  N6_21 
REMARK    8  A    between atoms: C8_28  and  N9_29 
ROOT
HETATM    1  S1  UNL     1      42.440  10.848  66.847  1.00  0.00     0.270 S 
HETATM    2  O3  UNL     1      41.781  11.811  65.841  1.00  0.00    -0.200 OA
HETATM    3  O4  UNL     1      43.749  11.525  67.302  1.00  0.00    -0.200 OA
ENDROOT
BRANCH   1   4
HETATM    4  N5  UNL     1      41.447  10.691  68.194  1.00  0.00    -0.257 N 
ATOM      5  H5  UNL     1      41.897  10.339  69.038  1.00  0.00     0.181 HD
BRANCH   4   6
HETATM    6  C5  UNL     1      40.060  10.986  68.309  1.00  0.00     0.193 A 
HETATM    7  C4  UNL     1      39.465  11.182  69.559  1.00  0.00     0.158 A 
HETATM    8  C3  UNL     1      38.134  11.445  69.325  1.00  0.00     0.098 A 
HETATM    9  C2  UNL     1      37.962  11.399  67.961  1.00  0.00     0.168 A 
HETATM   10  O6  UNL     1      39.115  11.131  67.457  1.00  0.00    -0.272 OA
BRANCH   7  11
HETATM   11  N4  UNL     1      40.066  11.124  70.844  1.00  0.00    -0.111 N 
HETATM   12  O1  UNL     1      39.755  11.971  71.689  1.00  0.00    -0.532 OA
HETATM   13  O2  UNL     1      40.968  10.150  71.136  1.00  0.00    -0.532 OA
ENDBRANCH   7  11
BRANCH   9  14
HETATM   14  N3  UNL     1      36.709  11.619  67.293  1.00  0.00    -0.265 N 
HETATM   15  N2  UNL     1      36.310  10.843  66.370  1.00  0.00    -0.246 N 
ATOM     16  H2  UNL     1      35.415  11.036  65.920  1.00  0.00     0.208 HD
ATOM     17  H3  UNL     1      36.129  12.412  67.564  1.00  0.00     0.190 HD
BRANCH  15  18
HETATM   18  N1  UNL     1      37.048   9.736  65.946  1.00  0.00    -0.326 N 
HETATM   19  C1  UNL     1      36.461   8.422  65.769  1.00  0.00     0.169 C 
ATOM     20  H1  UNL     1      38.042   9.857  65.752  1.00  0.00     0.181 HD
ENDBRANCH  15  18
ENDBRANCH   9  14
ENDBRANCH   4   6
ENDBRANCH   1   4
BRANCH   1  21
HETATM   21  C6  UNL     1      42.917   9.455  65.938  1.00  0.00     0.251 C 
BRANCH  21  22
HETATM   22  N6  UNL     1      42.613   9.376  64.548  1.00  0.00    -0.093 N 
HETATM   23  C7  UNL     1      41.471   9.809  63.985  1.00  0.00     0.701 A 
HETATM   24  N7  UNL     1      40.541  10.285  64.705  1.00  0.00    -0.233 N 
HETATM   25  N8  UNL     1      41.251   9.727  62.634  1.00  0.00    -0.022 N 
ATOM     26  H72 UNL     1      40.704  10.345  65.711  1.00  0.00     0.174 HD
ATOM     27  H71 UNL     1      39.674  10.613  64.279  1.00  0.00     0.174 HD
HETATM   28  C8  UNL     1      42.175   9.208  61.817  1.00  0.00     0.694 A 
ATOM     29  H8  UNL     1      40.371  10.067  62.246  1.00  0.00     0.203 HD
HETATM   30  N10 UNL     1      43.316   8.774  62.368  1.00  0.00    -0.140 N 
HETATM   31  C9  UNL     1      43.529   8.852  63.672  1.00  0.00     0.359 A 
ATOM     32  H10 UNL     1      44.037   8.373  61.769  1.00  0.00     0.189 HD
HETATM   33  O5  UNL     1      44.616   8.431  64.147  1.00  0.00    -0.245 OA
BRANCH  28  34
HETATM   34  N9  UNL     1      41.957   9.137  60.538  1.00  0.00    -0.234 N 
ATOM     35  H92 UNL     1      41.048   8.872  60.158  1.00  0.00     0.174 HD
ATOM     36  H91 UNL     1      42.703   9.348  59.874  1.00  0.00     0.174 HD
ENDBRANCH  28  34
ENDBRANCH  21  22
ENDBRANCH   1  21
TORSDOF 8
ENDMDL
MODEL 4
REMARK VINA RESULT: -8.442201647      1.914      6.253
REMARK  8 active torsions:
REMARK  status: ('A' for Active; 'I' for Inactive)
REMARK    1  A    between atoms: N1_2  and  N2_4 
REMARK    2  A    between atoms: N3_6  and  C2_8 
REMARK    3  A    between atoms: C4_10  and  N4_11 
REMARK    4  A    between atoms: C5_14  and  N5_15 
REMARK    5  A    between atoms: N5_15  and  S1_17 
REMARK    6  A    between atoms: S1_17  and  C6_20 
REMARK    7  A    between atoms: C6_20  and  N6_21 
REMARK    8  A    between atoms: C8_28  and  N9_29 
ROOT
HETATM    1  S1  UNL     1      37.689   9.533  66.605  1.00  0.00     0.270 S 
HETATM    2  O3  UNL     1      37.528  10.297  65.277  1.00  0.00    -0.200 OA
HETATM    3  O4  UNL     1      36.999   8.167  66.407  1.00  0.00    -0.200 OA
ENDROOT
BRANCH   1   4
HETATM    4  N5  UNL     1      39.322   9.248  66.884  1.00  0.00    -0.257 N 
ATOM      5  H5  UNL     1      39.617   8.273  66.838  1.00  0.00     0.181 HD
BRANCH   4   6
HETATM    6  C5  UNL     1      40.346  10.191  67.176  1.00  0.00     0.193 A 
HETATM    7  C4  UNL     1      41.254  10.598  66.193  1.00  0.00     0.158 A 
HETATM    8  C3  UNL     1      42.103  11.502  66.792  1.00  0.00     0.098 A 
HETATM    9  C2  UNL     1      41.695  11.613  68.100  1.00  0.00     0.168 A 
HETATM   10  O6  UNL     1      40.683  10.829  68.234  1.00  0.00    -0.272 OA
BRANCH   7  11
HETATM   11  N4  UNL     1      41.333  10.188  64.837  1.00  0.00    -0.111 N 
HETATM   12  O1  UNL     1      40.352  10.353  64.102  1.00  0.00    -0.532 OA
HETATM   13  O2  UNL     1      42.473   9.624  64.357  1.00  0.00    -0.532 OA
ENDBRANCH   7  11
BRANCH   9  14
HETATM   14  N3  UNL     1      42.320  12.461  69.077  1.00  0.00    -0.265 N 
HETATM   15  N2  UNL     1      41.673  12.903  70.077  1.00  0.00    -0.246 N 
ATOM     16  H2  UNL     1      42.154  13.504  70.745  1.00  0.00     0.208 HD
ATOM     17  H3  UNL     1      43.302  12.714  68.966  1.00  0.00     0.190 HD
BRANCH  15  18
HETATM   18  N1  UNL     1      40.328  12.599  70.295  1.00  0.00    -0.326 N 
HETATM   19  C1  UNL     1      39.893  11.622  71.274  1.00  0.00     0.169 C 
ATOM     20  H1  UNL     1      39.621  13.086  69.744  1.00  0.00     0.181 HD
ENDBRANCH  15  18
ENDBRANCH   9  14
ENDBRANCH   4   6
ENDBRANCH   1   4
BRANCH   1  21
HETATM   21  C6  UNL     1      36.733  10.383  67.770  1.00  0.00     0.251 C 
BRANCH  21  22
HETATM   22  N6  UNL     1      36.171  11.650  67.438  1.00  0.00    -0.093 N 
HETATM   23  C7  UNL     1      34.961  11.832  66.879  1.00  0.00     0.701 A 
HETATM   24  N7  UNL     1      34.245  10.834  66.559  1.00  0.00    -0.233 N 
HETATM   25  N8  UNL     1      34.467  13.082  66.608  1.00  0.00    -0.022 N 
ATOM     26  H72 UNL     1      34.613   9.903  66.761  1.00  0.00     0.174 HD
ATOM     27  H71 UNL     1      33.327  10.972  66.136  1.00  0.00     0.174 HD
HETATM   28  C8  UNL     1      35.180  14.179  66.891  1.00  0.00     0.694 A 
ATOM     29  H8  UNL     1      33.544  13.177  66.184  1.00  0.00     0.203 HD
HETATM   30  N10 UNL     1      36.386  14.008  67.446  1.00  0.00    -0.140 N 
HETATM   31  C9  UNL     1      36.863  12.802  67.708  1.00  0.00     0.359 A 
ATOM     32  H10 UNL     1      36.950  14.827  67.671  1.00  0.00     0.189 HD
HETATM   33  O5  UNL     1      38.003  12.688  68.231  1.00  0.00    -0.245 OA
BRANCH  28  34
HETATM   34  N9  UNL     1      34.701  15.359  66.630  1.00  0.00    -0.234 N 
ATOM     35  H92 UNL     1      34.946  15.866  65.779  1.00  0.00     0.174 HD
ATOM     36  H91 UNL     1      34.061  15.812  67.283  1.00  0.00     0.174 HD
ENDBRANCH  28  34
ENDBRANCH  21  22
ENDBRANCH   1  21
TORSDOF 8
ENDMDL
MODEL 5
REMARK VINA RESULT: -8.417436743      2.611      3.721
REMARK  8 active torsions:
REMARK  status: ('A' for Active; 'I' for Inactive)
REMARK    1  A    between atoms: N1_2  and  N2_4 
REMARK    2  A    between atoms: N3_6  and  C2_8 
REMARK    3  A    between atoms: C4_10  and  N4_11 
REMARK    4  A    between atoms: C5_14  and  N5_15 
REMARK    5  A    between atoms: N5_15  and  S1_17 
REMARK    6  A    between atoms: S1_17  and  C6_20 
REMARK    7  A    between atoms: C6_20  and  N6_21 
REMARK    8  A    between atoms: C8_28  and  N9_29 
ROOT
HETATM    1  S1  UNL     1      39.370  10.347  66.916  1.00  0.00     0.270 S 
HETATM    2  O3  UNL     1      38.996  11.457  67.915  1.00  0.00    -0.200 OA
HETATM    3  O4  UNL     1      40.148   9.284  67.718  1.00  0.00    -0.200 OA
ENDROOT
BRANCH   1   4
HETATM    4  N5  UNL     1      37.964   9.627  66.338  1.00  0.00    -0.257 N 
ATOM      5  H5  UNL     1      38.095   8.891  65.645  1.00  0.00     0.181 HD
BRANCH   4   6
HETATM    6  C5  UNL     1      36.616   9.912  66.691  1.00  0.00     0.193 A 
HETATM    7  C4  UNL     1      35.568   9.093  66.259  1.00  0.00     0.158 A 
HETATM    8  C3  UNL     1      34.408   9.638  66.765  1.00  0.00     0.098 A 
HETATM    9  C2  UNL     1      34.780  10.754  67.476  1.00  0.00     0.168 A 
HETATM   10  O6  UNL     1      36.061  10.837  67.382  1.00  0.00    -0.272 OA
BRANCH   7  11
HETATM   11  N4  UNL     1      35.631   7.928  65.452  1.00  0.00    -0.111 N 
HETATM   12  O1  UNL     1      36.090   6.888  65.936  1.00  0.00    -0.532 OA
HETATM   13  O2  UNL     1      35.190   7.960  64.166  1.00  0.00    -0.532 OA
ENDBRANCH   7  11
BRANCH   9  14
HETATM   14  N3  UNL     1      33.864  11.618  68.169  1.00  0.00    -0.265 N 
HETATM   15  N2  UNL     1      33.613  12.788  67.743  1.00  0.00    -0.246 N 
ATOM     16  H2  UNL     1      32.958  13.370  68.266  1.00  0.00     0.208 HD
ATOM     17  H3  UNL     1      33.408  11.286  69.018  1.00  0.00     0.190 HD
BRANCH  15  18
HETATM   18  N1  UNL     1      34.198  13.311  66.588  1.00  0.00    -0.326 N 
HETATM   19  C1  UNL     1      35.257  14.300  66.624  1.00  0.00     0.169 C 
ATOM     20  H1  UNL     1      33.867  12.982  65.681  1.00  0.00     0.181 HD
ENDBRANCH  15  18
ENDBRANCH   9  14
ENDBRANCH   4   6
ENDBRANCH   1   4
BRANCH   1  21
HETATM   21  C6  UNL     1      40.513  11.047  65.822  1.00  0.00     0.251 C 
BRANCH  21  22
HETATM   22  N6  UNL     1      41.625  10.279  65.370  1.00  0.00    -0.093 N 
HETATM   23  C7  UNL     1      42.666   9.908  66.138  1.00  0.00     0.701 A 
HETATM   24  N7  UNL     1      42.736  10.284  67.348  1.00  0.00    -0.233 N 
HETATM   25  N8  UNL     1      43.694   9.145  65.647  1.00  0.00    -0.022 N 
ATOM     26  H72 UNL     1      41.971  10.852  67.713  1.00  0.00     0.174 HD
ATOM     27  H71 UNL     1      43.525  10.002  67.930  1.00  0.00     0.174 HD
HETATM   28  C8  UNL     1      43.700   8.738  64.373  1.00  0.00     0.694 A 
ATOM     29  H8  UNL     1      44.465   8.885  66.263  1.00  0.00     0.203 HD
HETATM   30  N10 UNL     1      42.670   9.103  63.600  1.00  0.00    -0.140 N 
HETATM   31  C9  UNL     1      41.677   9.839  64.072  1.00  0.00     0.359 A 
ATOM     32  H10 UNL     1      42.650   8.807  62.624  1.00  0.00     0.189 HD
HETATM   33  O5  UNL     1      40.727  10.160  63.310  1.00  0.00    -0.245 OA
BRANCH  28  34
HETATM   34  N9  UNL     1      44.680   8.014  63.918  1.00  0.00    -0.234 N 
ATOM     35  H92 UNL     1      44.887   7.948  62.921  1.00  0.00     0.174 HD
ATOM     36  H91 UNL     1      45.273   7.487  64.560  1.00  0.00     0.174 HD
ENDBRANCH  28  34
ENDBRANCH  21  22
ENDBRANCH   1  21
TORSDOF 8
ENDMDL
