MODEL 1
REMARK VINA RESULT: -5.795529036      0.000      0.000
REMARK  10 active torsions:
REMARK  status: ('A' for Active; 'I' for Inactive)
REMARK    1  A    between atoms: O1_2  and  C2_3 
REMARK    2  A    between atoms: C4_5  and  C5_6 
REMARK    3  A    between atoms: C5_6  and  N1_7 
REMARK    4  A    between atoms: N1_7  and  C6_9 
REMARK    5  A    between atoms: C7_12  and  N3_13 
REMARK    6  A    between atoms: N6_21  and  N7_22 
REMARK    7  A    between atoms: N7_22  and  N8_24 
REMARK    8  A    between atoms: N8_24  and  N9_25 
REMARK    9  A    between atoms: C12_32  and  O2_33 
REMARK   10  A    between atoms: C14_35  and  O3_36 
ROOT
HETATM    1  C6  UNL     1      37.059   9.692  66.058  1.00  0.00     0.681 A 
HETATM    2  N2  UNL     1      36.349   8.632  66.481  1.00  0.00    -0.175 N 
ATOM      3  H2  UNL     1      36.710   7.692  66.320  1.00  0.00     0.186 HD
HETATM    4  C7  UNL     1      35.173   8.788  67.111  1.00  0.00     0.147 A 
HETATM    5  C8  UNL     1      34.728  10.078  67.306  1.00  0.00     0.142 A 
HETATM    6  N4  UNL     1      33.625  10.586  67.884  1.00  0.00    -0.278 N 
ATOM      7  H4  UNL     1      32.878  10.036  68.308  1.00  0.00     0.189 HD
HETATM    8  N5  UNL     1      33.657  11.897  67.820  1.00  0.00    -0.218 N 
ATOM      9  H5  UNL     1      32.931  12.510  68.191  1.00  0.00     0.210 HD
HETATM   10  N6  UNL     1      34.776  12.330  67.198  1.00  0.00    -0.147 N 
HETATM   11  C10 UNL     1      35.438  11.192  66.881  1.00  0.00     0.195 A 
HETATM   12  N10 UNL     1      36.601  10.974  66.260  1.00  0.00    -0.171 N 
ATOM     13  H10 UNL     1      37.155  11.766  65.932  1.00  0.00     0.186 HD
ENDROOT
BRANCH   1  14
HETATM   14  N1  UNL     1      38.184   9.623  65.452  1.00  0.00    -0.222 N 
ATOM     15  H1  UNL     1      38.660   8.723  65.526  1.00  0.00     0.178 HD
BRANCH  14  16
HETATM   16  C5  UNL     1      38.870  10.605  64.693  1.00  0.00     0.176 C 
BRANCH  16  17
HETATM   17  C4  UNL     1      40.333  10.249  64.579  1.00  0.00    -0.035 A 
HETATM   18  C3  UNL     1      41.162  10.510  65.637  1.00  0.00     0.048 A 
HETATM   19  C2  UNL     1      42.503  10.206  65.583  1.00  0.00     0.104 A 
HETATM   20  C14 UNL     1      42.999   9.632  64.440  1.00  0.00     0.135 A 
HETATM   21  C12 UNL     1      42.173   9.366  63.370  1.00  0.00     0.104 A 
HETATM   22  C11 UNL     1      40.835   9.674  63.438  1.00  0.00     0.048 A 
BRANCH  19  23
HETATM   23  O1  UNL     1      43.348  10.479  66.681  1.00  0.00    -0.353 OA
HETATM   24  C1  UNL     1      43.083  11.534  67.559  1.00  0.00     0.210 C 
ENDBRANCH  19  23
BRANCH  20  25
HETATM   25  O3  UNL     1      44.358   9.320  64.376  1.00  0.00    -0.351 OA
HETATM   26  C15 UNL     1      44.723   8.004  64.015  1.00  0.00     0.210 C 
ENDBRANCH  20  25
BRANCH  21  27
HETATM   27  O2  UNL     1      42.758   8.786  62.260  1.00  0.00    -0.353 OA
HETATM   28  C13 UNL     1      42.215   8.870  60.964  1.00  0.00     0.210 C 
ENDBRANCH  21  27
ENDBRANCH  16  17
ENDBRANCH  14  16
ENDBRANCH   1  14
BRANCH   4  29
HETATM   29  N3  UNL     1      34.523   7.754  67.502  1.00  0.00    -0.383 N 
ATOM     30  H32 UNL     1      34.972   6.875  67.758  1.00  0.00     0.157 HD
ATOM     31  H31 UNL     1      33.505   7.795  67.563  1.00  0.00     0.157 HD
ENDBRANCH   4  29
BRANCH  10  32
HETATM   32  N7  UNL     1      35.102  13.665  66.973  1.00  0.00    -0.199 N 
HETATM   33  C9  UNL     1      36.232  14.247  67.666  1.00  0.00     0.199 C 
BRANCH  32  34
HETATM   34  N8  UNL     1      34.393  14.469  66.111  1.00  0.00    -0.010 NA
BRANCH  34  35
HETATM   35  N9  UNL     1      34.570  15.822  66.324  1.00  0.00    -0.327 N 
ATOM     36  H92 UNL     1      33.823  16.417  66.683  1.00  0.00     0.174 HD
ATOM     37  H91 UNL     1      35.504  16.163  66.094  1.00  0.00     0.174 HD
ENDBRANCH  34  35
ENDBRANCH  32  34
ENDBRANCH  10  32
TORSDOF 10
ENDMDL
MODEL 2
REMARK VINA RESULT: -5.590089387      0.138      2.480
REMARK  10 active torsions:
REMARK  status: ('A' for Active; 'I' for Inactive)
REMARK    1  A    between atoms: O1_2  and  C2_3 
REMARK    2  A    between atoms: C4_5  and  C5_6 
REMARK    3  A    between atoms: C5_6  and  N1_7 
REMARK    4  A    between atoms: N1_7  and  C6_9 
REMARK    5  A    between atoms: C7_12  and  N3_13 
REMARK    6  A    between atoms: N6_21  and  N7_22 
REMARK    7  A    between atoms: N7_22  and  N8_24 
REMARK    8  A    between atoms: N8_24  and  N9_25 
REMARK    9  A    between atoms: C12_32  and  O2_33 
REMARK   10  A    between atoms: C14_35  and  O3_36 
ROOT
HETATM    1  C6  UNL     1      36.960   9.630  65.930  1.00  0.00     0.681 A 
HETATM    2  N2  UNL     1      36.261   8.560  66.347  1.00  0.00    -0.175 N 
ATOM      3  H2  UNL     1      36.615   7.624  66.150  1.00  0.00     0.186 HD
HETATM    4  C7  UNL     1      35.106   8.701  67.017  1.00  0.00     0.147 A 
HETATM    5  C8  UNL     1      34.670   9.986  67.259  1.00  0.00     0.142 A 
HETATM    6  N4  UNL     1      33.586  10.480  67.884  1.00  0.00    -0.278 N 
ATOM      7  H4  UNL     1      32.851   9.920  68.316  1.00  0.00     0.189 HD
HETATM    8  N5  UNL     1      33.618  11.792  67.853  1.00  0.00    -0.218 N 
ATOM      9  H5  UNL     1      32.905  12.395  68.263  1.00  0.00     0.210 HD
HETATM   10  N6  UNL     1      34.718  12.240  67.209  1.00  0.00    -0.147 N 
HETATM   11  C10 UNL     1      35.368  11.110  66.842  1.00  0.00     0.195 A 
HETATM   12  N10 UNL     1      36.511  10.907  66.179  1.00  0.00    -0.171 N 
ATOM     13  H10 UNL     1      37.056  11.706  65.856  1.00  0.00     0.186 HD
ENDROOT
BRANCH   1  14
HETATM   14  N1  UNL     1      38.065   9.575  65.288  1.00  0.00    -0.222 N 
ATOM     15  H1  UNL     1      38.496   8.651  65.248  1.00  0.00     0.178 HD
BRANCH  14  16
HETATM   16  C5  UNL     1      38.783  10.603  64.624  1.00  0.00     0.176 C 
BRANCH  16  17
HETATM   17  C4  UNL     1      40.260  10.289  64.619  1.00  0.00    -0.035 A 
HETATM   18  C3  UNL     1      40.808   9.701  63.511  1.00  0.00     0.048 A 
HETATM   19  C2  UNL     1      42.148   9.394  63.457  1.00  0.00     0.104 A 
HETATM   20  C14 UNL     1      42.933   9.690  64.542  1.00  0.00     0.135 A 
HETATM   21  C12 UNL     1      42.391  10.282  65.662  1.00  0.00     0.104 A 
HETATM   22  C11 UNL     1      41.050  10.584  65.702  1.00  0.00     0.048 A 
BRANCH  19  23
HETATM   23  O1  UNL     1      42.703   8.788  62.308  1.00  0.00    -0.353 OA
HETATM   24  C1  UNL     1      42.040   8.818  61.078  1.00  0.00     0.210 C 
ENDBRANCH  19  23
BRANCH  20  25
HETATM   25  O3  UNL     1      44.294   9.383  64.497  1.00  0.00    -0.351 OA
HETATM   26  C15 UNL     1      44.671   8.097  64.050  1.00  0.00     0.210 C 
ENDBRANCH  20  25
BRANCH  21  27
HETATM   27  O2  UNL     1      43.254  10.546  66.708  1.00  0.00    -0.353 OA
HETATM   28  C13 UNL     1      42.972  11.467  67.735  1.00  0.00     0.210 C 
ENDBRANCH  21  27
ENDBRANCH  16  17
ENDBRANCH  14  16
ENDBRANCH   1  14
BRANCH   4  29
HETATM   29  N3  UNL     1      34.465   7.658  67.400  1.00  0.00    -0.383 N 
ATOM     30  H32 UNL     1      34.292   6.855  66.795  1.00  0.00     0.157 HD
ATOM     31  H31 UNL     1      34.102   7.613  68.352  1.00  0.00     0.157 HD
ENDBRANCH   4  29
BRANCH  10  32
HETATM   32  N7  UNL     1      35.040  13.580  67.009  1.00  0.00    -0.199 N 
HETATM   33  C9  UNL     1      36.194  14.141  67.678  1.00  0.00     0.199 C 
BRANCH  32  34
HETATM   34  N8  UNL     1      34.304  14.408  66.193  1.00  0.00    -0.010 NA
BRANCH  34  35
HETATM   35  N9  UNL     1      34.616  15.748  66.318  1.00  0.00    -0.327 N 
ATOM     36  H92 UNL     1      35.324  16.080  66.973  1.00  0.00     0.174 HD
ATOM     37  H91 UNL     1      34.082  16.361  65.702  1.00  0.00     0.174 HD
ENDBRANCH  34  35
ENDBRANCH  32  34
ENDBRANCH  10  32
TORSDOF 10
ENDMDL
MODEL 3
REMARK VINA RESULT: -5.519243913      4.881      8.045
REMARK  10 active torsions:
REMARK  status: ('A' for Active; 'I' for Inactive)
REMARK    1  A    between atoms: O1_2  and  C2_3 
REMARK    2  A    between atoms: C4_5  and  C5_6 
REMARK    3  A    between atoms: C5_6  and  N1_7 
REMARK    4  A    between atoms: N1_7  and  C6_9 
REMARK    5  A    between atoms: C7_12  and  N3_13 
REMARK    6  A    between atoms: N6_21  and  N7_22 
REMARK    7  A    between atoms: N7_22  and  N8_24 
REMARK    8  A    between atoms: N8_24  and  N9_25 
REMARK    9  A    between atoms: C12_32  and  O2_33 
REMARK   10  A    between atoms: C14_35  and  O3_36 
ROOT
HETATM    1  C6  UNL     1      39.616   9.921  66.929  1.00  0.00     0.681 A 
HETATM    2  N2  UNL     1      40.383  10.013  65.828  1.00  0.00    -0.175 N 
ATOM      3  H2  UNL     1      40.091   9.539  64.974  1.00  0.00     0.186 HD
HETATM    4  C7  UNL     1      41.526  10.718  65.833  1.00  0.00     0.147 A 
HETATM    5  C8  UNL     1      41.878  11.342  67.011  1.00  0.00     0.142 A 
HETATM    6  N4  UNL     1      42.926  12.107  67.361  1.00  0.00    -0.278 N 
ATOM      7  H4  UNL     1      43.696  12.367  66.744  1.00  0.00     0.189 HD
HETATM    8  N5  UNL     1      42.809  12.469  68.618  1.00  0.00    -0.218 N 
ATOM      9  H5  UNL     1      43.481  13.054  69.114  1.00  0.00     0.210 HD
HETATM   10  N6  UNL     1      41.682  11.966  69.169  1.00  0.00    -0.147 N 
HETATM   11  C10 UNL     1      41.108  11.265  68.163  1.00  0.00     0.195 A 
HETATM   12  N10 UNL     1      39.981  10.549  68.097  1.00  0.00    -0.171 N 
ATOM     13  H10 UNL     1      39.386  10.468  68.921  1.00  0.00     0.186 HD
ENDROOT
BRANCH   1  14
HETATM   14  N1  UNL     1      38.517   9.269  67.000  1.00  0.00    -0.222 N 
ATOM     15  H1  UNL     1      38.391   8.727  67.855  1.00  0.00     0.178 HD
BRANCH  14  16
HETATM   16  C5  UNL     1      37.448   9.186  66.072  1.00  0.00     0.176 C 
BRANCH  16  17
HETATM   17  C4  UNL     1      36.218   9.862  66.630  1.00  0.00    -0.035 A 
HETATM   18  C3  UNL     1      36.262  11.206  66.887  1.00  0.00     0.048 A 
HETATM   19  C2  UNL     1      35.169  11.868  67.397  1.00  0.00     0.104 A 
HETATM   20  C14 UNL     1      34.025  11.154  67.644  1.00  0.00     0.135 A 
HETATM   21  C12 UNL     1      33.972   9.801  67.388  1.00  0.00     0.104 A 
HETATM   22  C11 UNL     1      35.071   9.151  66.879  1.00  0.00     0.048 A 
BRANCH  19  23
HETATM   23  O1  UNL     1      35.225  13.255  67.658  1.00  0.00    -0.353 OA
HETATM   24  C1  UNL     1      35.407  14.183  66.628  1.00  0.00     0.210 C 
ENDBRANCH  19  23
BRANCH  20  25
HETATM   25  O3  UNL     1      32.911  11.817  68.161  1.00  0.00    -0.351 OA
HETATM   26  C15 UNL     1      32.743  11.843  69.563  1.00  0.00     0.210 C 
ENDBRANCH  20  25
BRANCH  21  27
HETATM   27  O2  UNL     1      32.779   9.160  67.667  1.00  0.00    -0.353 OA
HETATM   28  C13 UNL     1      32.086   8.369  66.731  1.00  0.00     0.210 C 
ENDBRANCH  21  27
ENDBRANCH  16  17
ENDBRANCH  14  16
ENDBRANCH   1  14
BRANCH   4  29
HETATM   29  N3  UNL     1      42.233  10.785  64.765  1.00  0.00    -0.383 N 
ATOM     30  H32 UNL     1      42.691   9.976  64.346  1.00  0.00     0.157 HD
ATOM     31  H31 UNL     1      42.355  11.684  64.299  1.00  0.00     0.157 HD
ENDBRANCH   4  29
BRANCH  10  32
HETATM   32  N7  UNL     1      41.274  12.169  70.485  1.00  0.00    -0.199 N 
HETATM   33  C9  UNL     1      40.023  11.598  70.937  1.00  0.00     0.199 C 
BRANCH  32  34
HETATM   34  N8  UNL     1      42.014  12.895  71.390  1.00  0.00    -0.010 NA
BRANCH  34  35
HETATM   35  N9  UNL     1      41.651  14.225  71.479  1.00  0.00    -0.327 N 
ATOM     36  H92 UNL     1      41.828  14.780  72.316  1.00  0.00     0.174 HD
ATOM     37  H91 UNL     1      41.198  14.590  70.641  1.00  0.00     0.174 HD
ENDBRANCH  34  35
ENDBRANCH  32  34
ENDBRANCH  10  32
TORSDOF 10
ENDMDL
MODEL 4
REMARK VINA RESULT: -5.511103263      1.653      3.418
REMARK  10 active torsions:
REMARK  status: ('A' for Active; 'I' for Inactive)
REMARK    1  A    between atoms: O1_2  and  C2_3 
REMARK    2  A    between atoms: C4_5  and  C5_6 
REMARK    3  A    between atoms: C5_6  and  N1_7 
REMARK    4  A    between atoms: N1_7  and  C6_9 
REMARK    5  A    between atoms: C7_12  and  N3_13 
REMARK    6  A    between atoms: N6_21  and  N7_22 
REMARK    7  A    between atoms: N7_22  and  N8_24 
REMARK    8  A    between atoms: N8_24  and  N9_25 
REMARK    9  A    between atoms: C12_32  and  O2_33 
REMARK   10  A    between atoms: C14_35  and  O3_36 
ROOT
HETATM    1  C6  UNL     1      36.671   9.444  65.824  1.00  0.00     0.681 A 
HETATM    2  N2  UNL     1      35.883   8.437  66.236  1.00  0.00    -0.175 N 
ATOM      3  H2  UNL     1      36.139   7.476  66.010  1.00  0.00     0.186 HD
HETATM    4  C7  UNL     1      34.763   8.673  66.941  1.00  0.00     0.147 A 
HETATM    5  C8  UNL     1      34.461   9.987  67.223  1.00  0.00     0.142 A 
HETATM    6  N4  UNL     1      33.446  10.568  67.888  1.00  0.00    -0.278 N 
ATOM      7  H4  UNL     1      32.671  10.072  68.327  1.00  0.00     0.189 HD
HETATM    8  N5  UNL     1      33.605  11.872  67.884  1.00  0.00    -0.218 N 
ATOM      9  H5  UNL     1      32.964  12.531  68.326  1.00  0.00     0.210 HD
HETATM   10  N6  UNL     1      34.727  12.226  67.220  1.00  0.00    -0.147 N 
HETATM   11  C10 UNL     1      35.254  11.049  66.811  1.00  0.00     0.195 A 
HETATM   12  N10 UNL     1      36.355  10.752  66.113  1.00  0.00    -0.171 N 
ATOM     13  H10 UNL     1      36.967  11.502  65.792  1.00  0.00     0.186 HD
ENDROOT
BRANCH   1  14
HETATM   14  N1  UNL     1      37.750   9.298  65.151  1.00  0.00    -0.222 N 
ATOM     15  H1  UNL     1      37.963   8.338  64.879  1.00  0.00     0.178 HD
BRANCH  14  16
HETATM   16  C5  UNL     1      38.694  10.267  64.725  1.00  0.00     0.176 C 
BRANCH  16  17
HETATM   17  C4  UNL     1      39.682  10.555  65.829  1.00  0.00    -0.035 A 
HETATM   18  C3  UNL     1      41.010  10.297  65.613  1.00  0.00     0.048 A 
HETATM   19  C2  UNL     1      41.949  10.541  66.587  1.00  0.00     0.104 A 
HETATM   20  C14 UNL     1      41.531  11.051  67.790  1.00  0.00     0.135 A 
HETATM   21  C12 UNL     1      40.198  11.313  68.017  1.00  0.00     0.104 A 
HETATM   22  C11 UNL     1      39.269  11.065  67.034  1.00  0.00     0.048 A 
BRANCH  19  23
HETATM   23  O1  UNL     1      43.316  10.272  66.353  1.00  0.00    -0.353 OA
HETATM   24  C1  UNL     1      43.719   9.218  65.528  1.00  0.00     0.210 C 
ENDBRANCH  19  23
BRANCH  20  25
HETATM   25  O3  UNL     1      42.478  11.301  68.785  1.00  0.00    -0.351 OA
HETATM   26  C15 UNL     1      42.403  12.527  69.482  1.00  0.00     0.210 C 
ENDBRANCH  20  25
BRANCH  21  27
HETATM   27  O2  UNL     1      39.865  11.826  69.257  1.00  0.00    -0.353 OA
HETATM   28  C13 UNL     1      39.383  11.037  70.318  1.00  0.00     0.210 C 
ENDBRANCH  21  27
ENDBRANCH  16  17
ENDBRANCH  14  16
ENDBRANCH   1  14
BRANCH   4  29
HETATM   29  N3  UNL     1      34.034   7.687  67.319  1.00  0.00    -0.383 N 
ATOM     30  H32 UNL     1      33.380   7.207  66.701  1.00  0.00     0.157 HD
ATOM     31  H31 UNL     1      34.097   7.356  68.281  1.00  0.00     0.157 HD
ENDBRANCH   4  29
BRANCH  10  32
HETATM   32  N7  UNL     1      35.172  13.534  67.040  1.00  0.00    -0.199 N 
HETATM   33  C9  UNL     1      36.318  14.003  67.789  1.00  0.00     0.199 C 
BRANCH  32  34
HETATM   34  N8  UNL     1      34.567  14.413  66.172  1.00  0.00    -0.010 NA
BRANCH  34  35
HETATM   35  N9  UNL     1      34.651  15.737  66.558  1.00  0.00    -0.327 N 
ATOM     36  H92 UNL     1      34.246  16.490  66.003  1.00  0.00     0.174 HD
ATOM     37  H91 UNL     1      35.148  15.885  67.437  1.00  0.00     0.174 HD
ENDBRANCH  34  35
ENDBRANCH  32  34
ENDBRANCH  10  32
TORSDOF 10
ENDMDL
MODEL 5
REMARK VINA RESULT: -5.460329194      4.882      8.177
REMARK  10 active torsions:
REMARK  status: ('A' for Active; 'I' for Inactive)
REMARK    1  A    between atoms: O1_2  and  C2_3 
REMARK    2  A    between atoms: C4_5  and  C5_6 
REMARK    3  A    between atoms: C5_6  and  N1_7 
REMARK    4  A    between atoms: N1_7  and  C6_9 
REMARK    5  A    between atoms: C7_12  and  N3_13 
REMARK    6  A    between atoms: N6_21  and  N7_22 
REMARK    7  A    between atoms: N7_22  and  N8_24 
REMARK    8  A    between atoms: N8_24  and  N9_25 
REMARK    9  A    between atoms: C12_32  and  O2_33 
REMARK   10  A    between atoms: C14_35  and  O3_36 
ROOT
HETATM    1  C6  UNL     1      39.643   9.910  66.926  1.00  0.00     0.681 A 
HETATM    2  N2  UNL     1      40.405   9.995  65.822  1.00  0.00    -0.175 N 
ATOM      3  H2  UNL     1      40.107   9.518  64.971  1.00  0.00     0.186 HD
HETATM    4  C7  UNL     1      41.550  10.696  65.819  1.00  0.00     0.147 A 
HETATM    5  C8  UNL     1      41.909  11.324  66.992  1.00  0.00     0.142 A 
HETATM    6  N4  UNL     1      42.962  12.087  67.334  1.00  0.00    -0.278 N 
ATOM      7  H4  UNL     1      43.729  12.342  66.713  1.00  0.00     0.189 HD
HETATM    8  N5  UNL     1      42.851  12.455  68.590  1.00  0.00    -0.218 N 
ATOM      9  H5  UNL     1      43.527  13.040  69.081  1.00  0.00     0.210 HD
HETATM   10  N6  UNL     1      41.726  11.957  69.148  1.00  0.00    -0.147 N 
HETATM   11  C10 UNL     1      41.145  11.254  68.148  1.00  0.00     0.195 A 
HETATM   12  N10 UNL     1      40.015  10.542  68.091  1.00  0.00    -0.171 N 
ATOM     13  H10 UNL     1      39.423  10.466  68.918  1.00  0.00     0.186 HD
ENDROOT
BRANCH   1  14
HETATM   14  N1  UNL     1      38.542   9.262  67.006  1.00  0.00    -0.222 N 
ATOM     15  H1  UNL     1      38.422   8.718  67.860  1.00  0.00     0.178 HD
BRANCH  14  16
HETATM   16  C5  UNL     1      37.465   9.184  66.086  1.00  0.00     0.176 C 
BRANCH  16  17
HETATM   17  C4  UNL     1      36.263   9.921  66.627  1.00  0.00    -0.035 A 
HETATM   18  C3  UNL     1      35.127   9.213  66.914  1.00  0.00     0.048 A 
HETATM   19  C2  UNL     1      34.005   9.838  67.408  1.00  0.00     0.104 A 
HETATM   20  C14 UNL     1      34.044  11.194  67.609  1.00  0.00     0.135 A 
HETATM   21  C12 UNL     1      35.182  11.915  67.322  1.00  0.00     0.104 A 
HETATM   22  C11 UNL     1      36.297  11.278  66.830  1.00  0.00     0.048 A 
BRANCH  19  23
HETATM   23  O1  UNL     1      32.838   9.097  67.702  1.00  0.00    -0.353 OA
HETATM   24  C1  UNL     1      32.147   8.403  66.704  1.00  0.00     0.210 C 
ENDBRANCH  19  23
BRANCH  20  25
HETATM   25  O3  UNL     1      32.910  11.836  68.109  1.00  0.00    -0.351 OA
HETATM   26  C15 UNL     1      32.709  11.840  69.506  1.00  0.00     0.210 C 
ENDBRANCH  20  25
BRANCH  21  27
HETATM   27  O2  UNL     1      35.133  13.276  67.555  1.00  0.00    -0.353 OA
HETATM   28  C13 UNL     1      35.469  14.242  66.587  1.00  0.00     0.210 C 
ENDBRANCH  21  27
ENDBRANCH  16  17
ENDBRANCH  14  16
ENDBRANCH   1  14
BRANCH   4  29
HETATM   29  N3  UNL     1      42.252  10.756  64.747  1.00  0.00    -0.383 N 
ATOM     30  H32 UNL     1      42.069  10.180  63.926  1.00  0.00     0.157 HD
ATOM     31  H31 UNL     1      43.037  11.406  64.696  1.00  0.00     0.157 HD
ENDBRANCH   4  29
BRANCH  10  32
HETATM   32  N7  UNL     1      41.324  12.167  70.466  1.00  0.00    -0.199 N 
HETATM   33  C9  UNL     1      40.083  11.586  70.931  1.00  0.00     0.199 C 
BRANCH  32  34
HETATM   34  N8  UNL     1      42.062  12.910  71.359  1.00  0.00    -0.010 NA
BRANCH  34  35
HETATM   35  N9  UNL     1      41.705  14.243  71.416  1.00  0.00    -0.327 N 
ATOM     36  H92 UNL     1      41.435  14.767  70.584  1.00  0.00     0.174 HD
ATOM     37  H91 UNL     1      41.736  14.644  72.353  1.00  0.00     0.174 HD
ENDBRANCH  34  35
ENDBRANCH  32  34
ENDBRANCH  10  32
TORSDOF 10
ENDMDL
