MODEL 1
REMARK VINA RESULT: -7.446070757      0.000      0.000
REMARK  8 active torsions:
REMARK  status: ('A' for Active; 'I' for Inactive)
REMARK    1  A    between atoms: C3_4  and  N2_5 
REMARK    2  A    between atoms: N3_7  and  N4_9 
REMARK    3  A    between atoms: N4_9  and  C4_11 
REMARK    4  A    between atoms: C5_14  and  N6_15 
REMARK    5  A    between atoms: C6_20  and  N8_21 
REMARK    6  A    between atoms: N8_21  and  N9_23 
REMARK    7  A    between atoms: C7_25  and  C8_27 
REMARK    8  A    between atoms: N13_34  and  O2_35 
ROOT
HETATM    1  N1  UNL     1      28.625  42.339  46.433  1.00  0.00    -0.190 NA
HETATM    2  C1  UNL     1      29.617  41.906  46.844  1.00  0.00     0.126 C 
HETATM    3  C2  UNL     1      30.858  41.383  47.339  1.00  0.00     0.216 A 
HETATM    4  C3  UNL     1      31.048  40.813  48.584  1.00  0.00     0.186 A 
HETATM    5  N12 UNL     1      32.356  40.469  48.610  1.00  0.00    -0.219 N 
ATOM      6  H12 UNL     1      32.835  40.020  49.390  1.00  0.00     0.198 HD
HETATM    7  O1  UNL     1      32.900  40.804  47.483  1.00  0.00    -0.126 OA
HETATM    8  N13 UNL     1      32.039  41.356  46.686  1.00  0.00    -0.087 N 
ENDROOT
BRANCH   4   9
HETATM    9  N2  UNL     1      30.098  40.621  49.616  1.00  0.00    -0.267 N 
HETATM   10  N3  UNL     1      29.842  41.579  50.391  1.00  0.00    -0.227 N 
ATOM     11  H3  UNL     1      29.161  41.465  51.142  1.00  0.00     0.209 HD
ATOM     12  H2  UNL     1      29.629  39.723  49.730  1.00  0.00     0.190 HD
BRANCH  10  13
HETATM   13  N4  UNL     1      30.492  42.790  50.217  1.00  0.00    -0.116 N 
ATOM     14  H4  UNL     1      31.511  42.832  50.191  1.00  0.00     0.207 HD
BRANCH  13  15
HETATM   15  C4  UNL     1      29.789  43.865  50.088  1.00  0.00     0.727 A 
HETATM   16  N5  UNL     1      30.216  44.977  50.707  1.00  0.00    -0.020 N 
HETATM   17  C5  UNL     1      29.496  46.100  50.583  1.00  0.00     0.705 A 
ATOM     18  H5  UNL     1      31.071  44.966  51.262  1.00  0.00     0.203 HD
HETATM   19  N7  UNL     1      28.359  46.112  49.844  1.00  0.00    -0.020 N 
HETATM   20  C6  UNL     1      27.929  45.001  49.222  1.00  0.00     0.726 A 
ATOM     21  H7  UNL     1      27.823  46.976  49.760  1.00  0.00     0.203 HD
HETATM   22  N11 UNL     1      28.658  43.889  49.357  1.00  0.00    -0.018 N 
ATOM     23  H11 UNL     1      28.349  43.035  48.892  1.00  0.00     0.203 HD
BRANCH  17  24
HETATM   24  N6  UNL     1      29.891  47.164  51.169  1.00  0.00    -0.234 N 
ATOM     25  H62 UNL     1      29.860  47.230  52.186  1.00  0.00     0.174 HD
ATOM     26  H61 UNL     1      30.237  47.943  50.609  1.00  0.00     0.174 HD
ENDBRANCH  17  24
BRANCH  20  27
HETATM   27  N8  UNL     1      26.861  44.953  48.510  1.00  0.00    -0.130 N 
ATOM     28  H8  UNL     1      25.969  44.866  48.997  1.00  0.00     0.205 HD
BRANCH  27  29
HETATM   29  N9  UNL     1      26.837  45.011  47.131  1.00  0.00    -0.276 N 
HETATM   30  C7  UNL     1      26.847  46.116  46.495  1.00  0.00     0.118 C 
HETATM   31  N10 UNL     1      26.882  47.325  47.228  1.00  0.00    -0.085 NA
ATOM     32  H9  UNL     1      26.810  44.139  46.602  1.00  0.00     0.188 HD
BRANCH  30  33
HETATM   33  C8  UNL     1      26.821  46.215  45.015  1.00  0.00     0.160 C 
HETATM   34  S1  UNL     1      25.140  46.570  44.411  1.00  0.00    -0.090 SA
ENDBRANCH  30  33
ENDBRANCH  27  29
ENDBRANCH  20  27
ENDBRANCH  13  15
ENDBRANCH  10  13
ENDBRANCH   4   9
BRANCH   8  35
HETATM   35  O2  UNL     1      32.272  41.828  45.425  1.00  0.00    -0.260 OA
ATOM     36  H2  UNL     1      32.346  41.302  44.637  1.00  0.00     0.247 HD
ENDBRANCH   8  35
TORSDOF 8
ENDMDL
MODEL 2
REMARK VINA RESULT: -7.393757036      5.276      8.282
REMARK  8 active torsions:
REMARK  status: ('A' for Active; 'I' for Inactive)
REMARK    1  A    between atoms: C3_4  and  N2_5 
REMARK    2  A    between atoms: N3_7  and  N4_9 
REMARK    3  A    between atoms: N4_9  and  C4_11 
REMARK    4  A    between atoms: C5_14  and  N6_15 
REMARK    5  A    between atoms: C6_20  and  N8_21 
REMARK    6  A    between atoms: N8_21  and  N9_23 
REMARK    7  A    between atoms: C7_25  and  C8_27 
REMARK    8  A    between atoms: N13_34  and  O2_35 
ROOT
HETATM    1  N1  UNL     1      26.502  48.997  48.648  1.00  0.00    -0.190 NA
HETATM    2  C1  UNL     1      26.367  47.918  48.252  1.00  0.00     0.126 C 
HETATM    3  C2  UNL     1      26.204  46.571  47.783  1.00  0.00     0.216 A 
HETATM    4  C3  UNL     1      25.474  46.192  46.671  1.00  0.00     0.186 A 
HETATM    5  N12 UNL     1      25.601  44.847  46.617  1.00  0.00    -0.219 N 
ATOM      6  H12 UNL     1      25.184  44.240  45.912  1.00  0.00     0.198 HD
HETATM    7  O1  UNL     1      26.339  44.455  47.607  1.00  0.00    -0.126 OA
HETATM    8  N13 UNL     1      26.726  45.456  48.335  1.00  0.00    -0.087 N 
ENDROOT
BRANCH   4   9
HETATM    9  N2  UNL     1      24.749  47.015  45.775  1.00  0.00    -0.267 N 
HETATM   10  N3  UNL     1      25.201  47.193  44.614  1.00  0.00    -0.227 N 
ATOM     11  H3  UNL     1      24.696  47.781  43.951  1.00  0.00     0.209 HD
ATOM     12  H2  UNL     1      23.876  47.454  46.065  1.00  0.00     0.190 HD
BRANCH  10  13
HETATM   13  N4  UNL     1      26.389  46.584  44.243  1.00  0.00    -0.116 N 
ATOM     14  H4  UNL     1      27.206  46.630  44.851  1.00  0.00     0.207 HD
BRANCH  13  15
HETATM   15  C4  UNL     1      26.447  45.958  43.116  1.00  0.00     0.727 A 
HETATM   16  N5  UNL     1      27.647  45.815  42.533  1.00  0.00    -0.020 N 
HETATM   17  C5  UNL     1      27.722  45.168  41.362  1.00  0.00     0.705 A 
ATOM     18  H5  UNL     1      28.486  46.192  42.973  1.00  0.00     0.203 HD
HETATM   19  N7  UNL     1      26.606  44.667  40.778  1.00  0.00    -0.020 N 
HETATM   20  C6  UNL     1      25.402  44.808  41.359  1.00  0.00     0.726 A 
ATOM     21  H7  UNL     1      26.680  44.177  39.887  1.00  0.00     0.203 HD
HETATM   22  N11 UNL     1      25.344  45.456  42.526  1.00  0.00    -0.018 N 
ATOM     23  H11 UNL     1      24.440  45.574  42.984  1.00  0.00     0.203 HD
BRANCH  17  24
HETATM   24  N6  UNL     1      28.859  45.026  40.798  1.00  0.00    -0.234 N 
ATOM     25  H62 UNL     1      29.716  45.234  41.312  1.00  0.00     0.174 HD
ATOM     26  H61 UNL     1      28.900  44.705  39.831  1.00  0.00     0.174 HD
ENDBRANCH  17  24
BRANCH  20  27
HETATM   27  N8  UNL     1      24.311  44.355  40.854  1.00  0.00    -0.130 N 
ATOM     28  H8  UNL     1      23.670  45.026  40.430  1.00  0.00     0.205 HD
BRANCH  27  29
HETATM   29  N9  UNL     1      23.947  43.024  40.843  1.00  0.00    -0.276 N 
HETATM   30  C7  UNL     1      22.919  42.603  40.217  1.00  0.00     0.118 C 
HETATM   31  N10 UNL     1      22.124  43.533  39.509  1.00  0.00    -0.085 NA
ATOM     32  H9  UNL     1      24.520  42.353  41.355  1.00  0.00     0.188 HD
BRANCH  30  33
HETATM   33  C8  UNL     1      22.499  41.181  40.185  1.00  0.00     0.160 C 
HETATM   34  S1  UNL     1      23.916  40.086  39.854  1.00  0.00    -0.090 SA
ENDBRANCH  30  33
ENDBRANCH  27  29
ENDBRANCH  20  27
ENDBRANCH  13  15
ENDBRANCH  10  13
ENDBRANCH   4   9
BRANCH   8  35
HETATM   35  O2  UNL     1      27.511  45.404  49.453  1.00  0.00    -0.260 OA
ATOM     36  H2  UNL     1      27.386  44.827  50.197  1.00  0.00     0.247 HD
ENDBRANCH   8  35
TORSDOF 8
ENDMDL
MODEL 3
REMARK VINA RESULT: -7.309761035      5.129      8.161
REMARK  8 active torsions:
REMARK  status: ('A' for Active; 'I' for Inactive)
REMARK    1  A    between atoms: C3_4  and  N2_5 
REMARK    2  A    between atoms: N3_7  and  N4_9 
REMARK    3  A    between atoms: N4_9  and  C4_11 
REMARK    4  A    between atoms: C5_14  and  N6_15 
REMARK    5  A    between atoms: C6_20  and  N8_21 
REMARK    6  A    between atoms: N8_21  and  N9_23 
REMARK    7  A    between atoms: C7_25  and  C8_27 
REMARK    8  A    between atoms: N13_34  and  O2_35 
ROOT
HETATM    1  N1  UNL     1      26.428  49.090  48.756  1.00  0.00    -0.190 NA
HETATM    2  C1  UNL     1      26.364  48.003  48.365  1.00  0.00     0.126 C 
HETATM    3  C2  UNL     1      26.290  46.646  47.901  1.00  0.00     0.216 A 
HETATM    4  C3  UNL     1      25.523  46.202  46.840  1.00  0.00     0.186 A 
HETATM    5  N12 UNL     1      25.766  44.874  46.771  1.00  0.00    -0.219 N 
ATOM      6  H12 UNL     1      25.357  44.231  46.093  1.00  0.00     0.198 HD
HETATM    7  O1  UNL     1      26.602  44.551  47.707  1.00  0.00    -0.126 OA
HETATM    8  N13 UNL     1      26.946  45.583  48.412  1.00  0.00    -0.087 N 
ENDROOT
BRANCH   4   9
HETATM    9  N2  UNL     1      24.668  46.956  45.999  1.00  0.00    -0.267 N 
HETATM   10  N3  UNL     1      25.076  47.283  44.855  1.00  0.00    -0.227 N 
ATOM     11  H3  UNL     1      24.478  47.826  44.232  1.00  0.00     0.209 HD
ATOM     12  H2  UNL     1      23.737  47.228  46.315  1.00  0.00     0.190 HD
BRANCH  10  13
HETATM   13  N4  UNL     1      26.344  46.902  44.447  1.00  0.00    -0.116 N 
ATOM     14  H4  UNL     1      27.160  47.126  45.017  1.00  0.00     0.207 HD
BRANCH  13  15
HETATM   15  C4  UNL     1      26.478  46.258  43.337  1.00  0.00     0.727 A 
HETATM   16  N5  UNL     1      25.439  45.529  42.901  1.00  0.00    -0.020 N 
HETATM   17  C5  UNL     1      25.564  44.855  41.749  1.00  0.00     0.705 A 
ATOM     18  H5  UNL     1      24.572  45.488  43.436  1.00  0.00     0.203 HD
HETATM   19  N7  UNL     1      26.717  44.911  41.039  1.00  0.00    -0.020 N 
HETATM   20  C6  UNL     1      27.759  45.640  41.472  1.00  0.00     0.726 A 
ATOM     21  H7  UNL     1      26.795  44.392  40.164  1.00  0.00     0.203 HD
HETATM   22  N11 UNL     1      27.619  46.306  42.623  1.00  0.00    -0.018 N 
ATOM     23  H11 UNL     1      28.398  46.866  42.969  1.00  0.00     0.203 HD
BRANCH  17  24
HETATM   24  N6  UNL     1      24.582  44.157  41.324  1.00  0.00    -0.234 N 
ATOM     25  H62 UNL     1      24.699  43.157  41.158  1.00  0.00     0.174 HD
ATOM     26  H61 UNL     1      23.684  44.609  41.154  1.00  0.00     0.174 HD
ENDBRANCH  17  24
BRANCH  20  27
HETATM   27  N8  UNL     1      28.875  45.730  40.843  1.00  0.00    -0.130 N 
ATOM     28  H8  UNL     1      29.653  45.158  41.171  1.00  0.00     0.205 HD
BRANCH  27  29
HETATM   29  N9  UNL     1      29.095  46.547  39.752  1.00  0.00    -0.276 N 
HETATM   30  C7  UNL     1      29.394  47.781  39.874  1.00  0.00     0.118 C 
HETATM   31  N10 UNL     1      29.505  48.331  41.171  1.00  0.00    -0.085 NA
ATOM     32  H9  UNL     1      29.014  46.151  38.816  1.00  0.00     0.188 HD
BRANCH  30  33
HETATM   33  C8  UNL     1      29.636  48.687  38.724  1.00  0.00     0.160 C 
HETATM   34  S1  UNL     1      30.798  47.943  37.536  1.00  0.00    -0.090 SA
ENDBRANCH  30  33
ENDBRANCH  27  29
ENDBRANCH  20  27
ENDBRANCH  13  15
ENDBRANCH  10  13
ENDBRANCH   4   9
BRANCH   8  35
HETATM   35  O2  UNL     1      27.807  45.603  49.473  1.00  0.00    -0.260 OA
ATOM     36  H2  UNL     1      27.928  46.323  50.081  1.00  0.00     0.247 HD
ENDBRANCH   8  35
TORSDOF 8
ENDMDL
MODEL 4
REMARK VINA RESULT: -7.286418119      4.999      7.975
REMARK  8 active torsions:
REMARK  status: ('A' for Active; 'I' for Inactive)
REMARK    1  A    between atoms: C3_4  and  N2_5 
REMARK    2  A    between atoms: N3_7  and  N4_9 
REMARK    3  A    between atoms: N4_9  and  C4_11 
REMARK    4  A    between atoms: C5_14  and  N6_15 
REMARK    5  A    between atoms: C6_20  and  N8_21 
REMARK    6  A    between atoms: N8_21  and  N9_23 
REMARK    7  A    between atoms: C7_25  and  C8_27 
REMARK    8  A    between atoms: N13_34  and  O2_35 
ROOT
HETATM    1  N1  UNL     1      24.806  43.445  46.945  1.00  0.00    -0.190 NA
HETATM    2  C1  UNL     1      25.306  44.437  47.271  1.00  0.00     0.126 C 
HETATM    3  C2  UNL     1      25.944  45.656  47.681  1.00  0.00     0.216 A 
HETATM    4  C3  UNL     1      25.621  46.922  47.228  1.00  0.00     0.186 A 
HETATM    5  N12 UNL     1      26.472  47.748  47.878  1.00  0.00    -0.219 N 
ATOM      6  H12 UNL     1      26.507  48.762  47.777  1.00  0.00     0.198 HD
HETATM    7  O1  UNL     1      27.235  47.041  48.650  1.00  0.00    -0.126 OA
HETATM    8  N13 UNL     1      26.955  45.778  48.566  1.00  0.00    -0.087 N 
ENDROOT
BRANCH   4   9
HETATM    9  N2  UNL     1      24.625  47.292  46.292  1.00  0.00    -0.267 N 
HETATM   10  N3  UNL     1      24.917  47.304  45.068  1.00  0.00    -0.227 N 
ATOM     11  H3  UNL     1      24.216  47.567  44.375  1.00  0.00     0.209 HD
ATOM     12  H2  UNL     1      23.688  47.544  46.604  1.00  0.00     0.190 HD
BRANCH  10  13
HETATM   13  N4  UNL     1      26.197  46.957  44.668  1.00  0.00    -0.116 N 
ATOM     14  H4  UNL     1      27.005  47.216  45.234  1.00  0.00     0.207 HD
BRANCH  13  15
HETATM   15  C4  UNL     1      26.353  46.301  43.567  1.00  0.00     0.727 A 
HETATM   16  N5  UNL     1      25.333  45.545  43.133  1.00  0.00    -0.020 N 
HETATM   17  C5  UNL     1      25.480  44.858  41.992  1.00  0.00     0.705 A 
ATOM     18  H5  UNL     1      24.462  45.494  43.661  1.00  0.00     0.203 HD
HETATM   19  N7  UNL     1      26.638  44.928  41.290  1.00  0.00    -0.020 N 
HETATM   20  C6  UNL     1      27.662  45.684  41.722  1.00  0.00     0.726 A 
ATOM     21  H7  UNL     1      26.734  44.398  40.423  1.00  0.00     0.203 HD
HETATM   22  N11 UNL     1      27.499  46.362  42.862  1.00  0.00    -0.018 N 
ATOM     23  H11 UNL     1      28.263  46.942  43.207  1.00  0.00     0.203 HD
BRANCH  17  24
HETATM   24  N6  UNL     1      24.516  44.135  41.568  1.00  0.00    -0.234 N 
ATOM     25  H62 UNL     1      23.808  43.794  42.218  1.00  0.00     0.174 HD
ATOM     26  H61 UNL     1      24.464  43.903  40.577  1.00  0.00     0.174 HD
ENDBRANCH  17  24
BRANCH  20  27
HETATM   27  N8  UNL     1      28.781  45.788  41.100  1.00  0.00    -0.130 N 
ATOM     28  H8  UNL     1      29.561  45.218  41.428  1.00  0.00     0.205 HD
BRANCH  27  29
HETATM   29  N9  UNL     1      29.001  46.617  40.019  1.00  0.00    -0.276 N 
HETATM   30  C7  UNL     1      29.363  47.832  40.154  1.00  0.00     0.118 C 
HETATM   31  N10 UNL     1      29.543  48.349  41.457  1.00  0.00    -0.085 NA
ATOM     32  H9  UNL     1      28.870  46.244  39.078  1.00  0.00     0.188 HD
BRANCH  30  33
HETATM   33  C8  UNL     1      29.607  48.750  39.015  1.00  0.00     0.160 C 
HETATM   34  S1  UNL     1      30.512  47.908  37.677  1.00  0.00    -0.090 SA
ENDBRANCH  30  33
ENDBRANCH  27  29
ENDBRANCH  20  27
ENDBRANCH  13  15
ENDBRANCH  10  13
ENDBRANCH   4   9
BRANCH   8  35
HETATM   35  O2  UNL     1      27.562  44.755  49.239  1.00  0.00    -0.260 OA
ATOM     36  H2  UNL     1      28.499  44.624  49.331  1.00  0.00     0.247 HD
ENDBRANCH   8  35
TORSDOF 8
ENDMDL
MODEL 5
REMARK VINA RESULT: -7.215249052      4.807      7.694
REMARK  8 active torsions:
REMARK  status: ('A' for Active; 'I' for Inactive)
REMARK    1  A    between atoms: C3_4  and  N2_5 
REMARK    2  A    between atoms: N3_7  and  N4_9 
REMARK    3  A    between atoms: N4_9  and  C4_11 
REMARK    4  A    between atoms: C5_14  and  N6_15 
REMARK    5  A    between atoms: C6_20  and  N8_21 
REMARK    6  A    between atoms: N8_21  and  N9_23 
REMARK    7  A    between atoms: C7_25  and  C8_27 
REMARK    8  A    between atoms: N13_34  and  O2_35 
ROOT
HETATM    1  N1  UNL     1      25.265  43.589  47.312  1.00  0.00    -0.190 NA
HETATM    2  C1  UNL     1      25.659  44.635  47.609  1.00  0.00     0.126 C 
HETATM    3  C2  UNL     1      26.169  45.924  47.984  1.00  0.00     0.216 A 
HETATM    4  C3  UNL     1      25.696  47.138  47.522  1.00  0.00     0.186 A 
HETATM    5  N12 UNL     1      26.466  48.064  48.137  1.00  0.00    -0.219 N 
ATOM      6  H12 UNL     1      26.385  49.074  48.021  1.00  0.00     0.198 HD
HETATM    7  O1  UNL     1      27.324  47.459  48.897  1.00  0.00    -0.126 OA
HETATM    8  N13 UNL     1      27.183  46.172  48.839  1.00  0.00    -0.087 N 
ENDROOT
BRANCH   4   9
HETATM    9  N2  UNL     1      24.640  47.380  46.610  1.00  0.00    -0.267 N 
HETATM   10  N3  UNL     1      24.877  47.310  45.376  1.00  0.00    -0.227 N 
ATOM     11  H3  UNL     1      24.133  47.480  44.699  1.00  0.00     0.209 HD
ATOM     12  H2  UNL     1      23.705  47.606  46.947  1.00  0.00     0.190 HD
BRANCH  10  13
HETATM   13  N4  UNL     1      26.156  47.000  44.943  1.00  0.00    -0.116 N 
ATOM     14  H4  UNL     1      26.959  47.533  45.277  1.00  0.00     0.207 HD
BRANCH  13  15
HETATM   15  C4  UNL     1      26.317  46.027  44.110  1.00  0.00     0.727 A 
HETATM   16  N5  UNL     1      27.409  45.259  44.239  1.00  0.00    -0.020 N 
HETATM   17  C5  UNL     1      27.589  44.246  43.381  1.00  0.00     0.705 A 
ATOM     18  H5  UNL     1      28.089  45.443  44.976  1.00  0.00     0.203 HD
HETATM   19  N7  UNL     1      26.684  44.002  42.402  1.00  0.00    -0.020 N 
HETATM   20  C6  UNL     1      25.588  44.769  42.269  1.00  0.00     0.726 A 
ATOM     21  H7  UNL     1      26.836  43.226  41.757  1.00  0.00     0.203 HD
HETATM   22  N11 UNL     1      25.424  45.776  43.133  1.00  0.00    -0.018 N 
ATOM     23  H11 UNL     1      24.599  46.370  43.050  1.00  0.00     0.203 HD
BRANCH  17  24
HETATM   24  N6  UNL     1      28.626  43.508  43.493  1.00  0.00    -0.234 N 
ATOM     25  H62 UNL     1      28.528  42.519  43.726  1.00  0.00     0.174 HD
ATOM     26  H61 UNL     1      29.549  43.917  43.349  1.00  0.00     0.174 HD
ENDBRANCH  17  24
BRANCH  20  27
HETATM   27  N8  UNL     1      24.698  44.587  41.362  1.00  0.00    -0.130 N 
ATOM     28  H8  UNL     1      24.302  45.412  40.912  1.00  0.00     0.205 HD
BRANCH  27  29
HETATM   29  N9  UNL     1      24.239  43.351  40.953  1.00  0.00    -0.276 N 
HETATM   30  C7  UNL     1      23.253  43.219  40.156  1.00  0.00     0.118 C 
HETATM   31  N10 UNL     1      22.605  44.379  39.675  1.00  0.00    -0.085 NA
ATOM     32  H9  UNL     1      24.705  42.513  41.302  1.00  0.00     0.188 HD
BRANCH  30  33
HETATM   33  C8  UNL     1      22.734  41.907  39.698  1.00  0.00     0.160 C 
HETATM   34  S1  UNL     1      21.627  41.168  40.941  1.00  0.00    -0.090 SA
ENDBRANCH  30  33
ENDBRANCH  27  29
ENDBRANCH  20  27
ENDBRANCH  13  15
ENDBRANCH  10  13
ENDBRANCH   4   9
BRANCH   8  35
HETATM   35  O2  UNL     1      27.918  45.234  49.509  1.00  0.00    -0.260 OA
ATOM     36  H2  UNL     1      28.491  45.397  50.249  1.00  0.00     0.247 HD
ENDBRANCH   8  35
TORSDOF 8
ENDMDL
