MODEL 1
REMARK VINA RESULT: -7.199382701      0.000      0.000
REMARK  7 active torsions:
REMARK  status: ('A' for Active; 'I' for Inactive)
REMARK    1  A    between atoms: C4_6  and  C5_7 
REMARK       I    between atoms: C5_7  and  N2_9 
REMARK    2  A    between atoms: N2_9  and  N3_11 
REMARK    3  A    between atoms: N4_13  and  C6_15 
REMARK    4  A    between atoms: C7_18  and  C8_19 
REMARK    5  A    between atoms: C8_19  and  N7_21 
REMARK    6  A    between atoms: N7_21  and  N8_23 
REMARK    7  A    between atoms: C9_26  and  O2_27 
ROOT
HETATM    1  C6  UNL     1      25.191  43.767  43.269  1.00  0.00     0.703 A 
HETATM    2  N5  UNL     1      24.947  44.596  42.237  1.00  0.00    -0.184 N 
ATOM      3  H5  UNL     1      24.979  45.603  42.397  1.00  0.00     0.184 HD
HETATM    4  C7  UNL     1      24.663  44.146  41.003  1.00  0.00     0.130 A 
HETATM    5  C9  UNL     1      24.633  42.768  40.838  1.00  0.00     0.166 A 
HETATM    6  C10 UNL     1      24.880  41.900  41.881  1.00  0.00     0.297 A 
HETATM    7  O3  UNL     1      24.860  40.648  41.764  1.00  0.00    -0.264 OA
HETATM    8  N9  UNL     1      25.161  42.430  43.103  1.00  0.00    -0.148 N 
HETATM    9  C11 UNL     1      25.430  41.596  44.247  1.00  0.00     0.179 C 
ENDROOT
BRANCH   1  10
HETATM   10  N4  UNL     1      25.492  44.293  44.576  1.00  0.00    -0.117 N 
HETATM   11  N3  UNL     1      24.764  45.228  45.070  1.00  0.00    -0.226 N 
ATOM     12  H3  UNL     1      23.973  45.606  44.549  1.00  0.00     0.209 HD
ATOM     13  H4  UNL     1      26.281  43.925  45.108  1.00  0.00     0.207 HD
BRANCH  11  14
HETATM   14  N2  UNL     1      25.085  45.713  46.338  1.00  0.00    -0.249 N 
HETATM   15  C5  UNL     1      26.205  46.549  46.510  1.00  0.00     0.297 C 
HETATM   16  O1  UNL     1      26.905  46.852  45.520  1.00  0.00    -0.264 OA
ATOM     17  H2  UNL     1      24.508  45.462  47.141  1.00  0.00     0.192 HD
BRANCH  15  18
HETATM   18  C4  UNL     1      26.550  47.061  47.828  1.00  0.00     0.171 A 
HETATM   19  C3  UNL     1      25.897  48.125  48.462  1.00  0.00     0.095 A 
HETATM   20  C2  UNL     1      26.530  48.278  49.670  1.00  0.00     0.124 A 
HETATM   21  N1  UNL     1      26.245  49.150  50.574  1.00  0.00    -0.379 N 
HETATM   22  N10 UNL     1      27.504  47.358  49.749  1.00  0.00    -0.245 N 
HETATM   23  C1  UNL     1      26.996  49.199  51.802  1.00  0.00     0.147 C 
ATOM     24  H1  UNL     1      25.482  49.810  50.420  1.00  0.00     0.160 HD
HETATM   25  O4  UNL     1      27.475  46.675  48.654  1.00  0.00    -0.231 OA
ATOM     26  H10 UNL     1      28.148  47.224  50.528  1.00  0.00     0.196 HD
ENDBRANCH  15  18
ENDBRANCH  11  14
ENDBRANCH   1  10
BRANCH   4  27
HETATM   27  C8  UNL     1      24.398  45.040  39.884  1.00  0.00     0.160 C 
HETATM   28  N6  UNL     1      25.431  45.780  39.281  1.00  0.00    -0.079 NA
BRANCH  27  29
HETATM   29  N7  UNL     1      23.199  45.155  39.436  1.00  0.00    -0.292 N 
ATOM     30  H7  UNL     1      22.603  45.869  39.855  1.00  0.00     0.187 HD
BRANCH  29  31
HETATM   31  N8  UNL     1      22.662  44.382  38.431  1.00  0.00    -0.344 N 
ATOM     32  H82 UNL     1      23.301  44.077  37.697  1.00  0.00     0.176 HD
ATOM     33  H81 UNL     1      21.683  44.101  38.376  1.00  0.00     0.176 HD
ENDBRANCH  29  31
ENDBRANCH  27  29
ENDBRANCH   4  27
BRANCH   5  34
HETATM   34  O2  UNL     1      24.345  42.253  39.582  1.00  0.00    -0.354 OA
ATOM     35  H2  UNL     1      25.052  41.883  39.068  1.00  0.00     0.218 HD
ENDBRANCH   5  34
TORSDOF 7
ENDMDL
MODEL 2
REMARK VINA RESULT: -7.152821868      1.543      2.014
REMARK  7 active torsions:
REMARK  status: ('A' for Active; 'I' for Inactive)
REMARK    1  A    between atoms: C4_6  and  C5_7 
REMARK       I    between atoms: C5_7  and  N2_9 
REMARK    2  A    between atoms: N2_9  and  N3_11 
REMARK    3  A    between atoms: N4_13  and  C6_15 
REMARK    4  A    between atoms: C7_18  and  C8_19 
REMARK    5  A    between atoms: C8_19  and  N7_21 
REMARK    6  A    between atoms: N7_21  and  N8_23 
REMARK    7  A    between atoms: C9_26  and  O2_27 
ROOT
HETATM    1  C6  UNL     1      24.760  42.948  42.480  1.00  0.00     0.703 A 
HETATM    2  N5  UNL     1      23.905  43.482  41.588  1.00  0.00    -0.184 N 
ATOM      3  H5  UNL     1      23.456  44.371  41.809  1.00  0.00     0.184 HD
HETATM    4  C7  UNL     1      23.622  42.888  40.416  1.00  0.00     0.130 A 
HETATM    5  C9  UNL     1      24.261  41.681  40.164  1.00  0.00     0.166 A 
HETATM    6  C10 UNL     1      25.140  41.115  41.063  1.00  0.00     0.297 A 
HETATM    7  O3  UNL     1      25.734  40.025  40.865  1.00  0.00    -0.264 OA
HETATM    8  N9  UNL     1      25.377  41.776  42.230  1.00  0.00    -0.148 N 
HETATM    9  C11 UNL     1      26.280  41.257  43.226  1.00  0.00     0.179 C 
ENDROOT
BRANCH   1  10
HETATM   10  N4  UNL     1      25.034  43.621  43.725  1.00  0.00    -0.117 N 
HETATM   11  N3  UNL     1      25.714  44.709  43.725  1.00  0.00    -0.226 N 
ATOM     12  H3  UNL     1      26.065  45.108  42.854  1.00  0.00     0.209 HD
ATOM     13  H4  UNL     1      24.689  43.232  44.603  1.00  0.00     0.207 HD
BRANCH  11  14
HETATM   14  N2  UNL     1      25.959  45.332  44.949  1.00  0.00    -0.249 N 
HETATM   15  C5  UNL     1      25.147  46.401  45.372  1.00  0.00     0.297 C 
HETATM   16  O1  UNL     1      24.207  46.785  44.643  1.00  0.00    -0.264 OA
ATOM     17  H2  UNL     1      26.729  45.012  45.538  1.00  0.00     0.192 HD
BRANCH  15  18
HETATM   18  C4  UNL     1      25.393  47.059  46.646  1.00  0.00     0.171 A 
HETATM   19  C3  UNL     1      26.515  46.830  47.453  1.00  0.00     0.095 A 
HETATM   20  C2  UNL     1      26.354  47.644  48.547  1.00  0.00     0.124 A 
HETATM   21  N1  UNL     1      27.162  47.748  49.544  1.00  0.00    -0.379 N 
HETATM   22  N10 UNL     1      25.202  48.317  48.398  1.00  0.00    -0.245 N 
HETATM   23  C1  UNL     1      26.866  48.646  50.630  1.00  0.00     0.147 C 
ATOM     24  H1  UNL     1      28.016  47.190  49.565  1.00  0.00     0.160 HD
HETATM   25  O4  UNL     1      24.681  47.943  47.277  1.00  0.00    -0.231 OA
ATOM     26  H10 UNL     1      24.811  48.997  49.049  1.00  0.00     0.196 HD
ENDBRANCH  15  18
ENDBRANCH  11  14
ENDBRANCH   1  10
BRANCH   4  27
HETATM   27  C8  UNL     1      22.698  43.462  39.448  1.00  0.00     0.160 C 
HETATM   28  N6  UNL     1      21.361  43.033  39.371  1.00  0.00    -0.079 NA
BRANCH  27  29
HETATM   29  N7  UNL     1      23.111  44.380  38.648  1.00  0.00    -0.292 N 
ATOM     30  H7  UNL     1      22.925  44.259  37.652  1.00  0.00     0.187 HD
BRANCH  29  31
HETATM   31  N8  UNL     1      23.786  45.515  39.040  1.00  0.00    -0.344 N 
ATOM     32  H82 UNL     1      24.625  45.376  39.602  1.00  0.00     0.176 HD
ATOM     33  H81 UNL     1      23.503  46.466  38.807  1.00  0.00     0.176 HD
ENDBRANCH  29  31
ENDBRANCH  27  29
ENDBRANCH   4  27
BRANCH   5  34
HETATM   34  O2  UNL     1      24.002  41.027  38.967  1.00  0.00    -0.354 OA
ATOM     35  H2  UNL     1      24.735  40.777  38.417  1.00  0.00     0.218 HD
ENDBRANCH   5  34
TORSDOF 7
ENDMDL
MODEL 3
REMARK VINA RESULT: -6.952180976      1.664      2.808
REMARK  7 active torsions:
REMARK  status: ('A' for Active; 'I' for Inactive)
REMARK    1  A    between atoms: C4_6  and  C5_7 
REMARK       I    between atoms: C5_7  and  N2_9 
REMARK    2  A    between atoms: N2_9  and  N3_11 
REMARK    3  A    between atoms: N4_13  and  C6_15 
REMARK    4  A    between atoms: C7_18  and  C8_19 
REMARK    5  A    between atoms: C8_19  and  N7_21 
REMARK    6  A    between atoms: N7_21  and  N8_23 
REMARK    7  A    between atoms: C9_26  and  O2_27 
ROOT
HETATM    1  C6  UNL     1      25.349  43.629  43.189  1.00  0.00     0.703 A 
HETATM    2  N5  UNL     1      24.530  42.565  43.104  1.00  0.00    -0.184 N 
ATOM      3  H5  UNL     1      24.171  42.150  43.965  1.00  0.00     0.184 HD
HETATM    4  C7  UNL     1      24.166  42.028  41.927  1.00  0.00     0.130 A 
HETATM    5  C9  UNL     1      24.681  42.631  40.786  1.00  0.00     0.166 A 
HETATM    6  C10 UNL     1      25.522  43.721  40.850  1.00  0.00     0.297 A 
HETATM    7  O3  UNL     1      26.004  44.289  39.837  1.00  0.00    -0.264 OA
HETATM    8  N9  UNL     1      25.846  44.209  42.079  1.00  0.00    -0.148 N 
HETATM    9  C11 UNL     1      26.719  45.345  42.237  1.00  0.00     0.179 C 
ENDROOT
BRANCH   1  10
HETATM   10  N4  UNL     1      25.714  44.172  44.473  1.00  0.00    -0.117 N 
HETATM   11  N3  UNL     1      24.837  44.791  45.176  1.00  0.00    -0.226 N 
ATOM     12  H3  UNL     1      23.881  44.906  44.839  1.00  0.00     0.209 HD
ATOM     13  H4  UNL     1      26.667  44.064  44.823  1.00  0.00     0.207 HD
BRANCH  11  14
HETATM   14  N2  UNL     1      25.227  45.303  46.414  1.00  0.00    -0.249 N 
HETATM   15  C5  UNL     1      26.089  46.414  46.477  1.00  0.00     0.297 C 
HETATM   16  O1  UNL     1      26.500  46.935  45.419  1.00  0.00    -0.264 OA
ATOM     17  H2  UNL     1      24.886  44.872  47.274  1.00  0.00     0.192 HD
BRANCH  15  18
HETATM   18  C4  UNL     1      26.503  46.957  47.763  1.00  0.00     0.171 A 
HETATM   19  C3  UNL     1      25.824  47.969  48.452  1.00  0.00     0.095 A 
HETATM   20  C2  UNL     1      26.542  48.176  49.604  1.00  0.00     0.124 A 
HETATM   21  N1  UNL     1      26.267  49.027  50.530  1.00  0.00    -0.379 N 
HETATM   22  N10 UNL     1      27.589  47.336  49.598  1.00  0.00    -0.245 N 
HETATM   23  C1  UNL     1      27.112  49.140  51.691  1.00  0.00     0.147 C 
ATOM     24  H1  UNL     1      25.445  49.625  50.442  1.00  0.00     0.160 HD
HETATM   25  O4  UNL     1      27.521  46.647  48.507  1.00  0.00    -0.231 OA
ATOM     26  H10 UNL     1      28.304  47.256  50.320  1.00  0.00     0.196 HD
ENDBRANCH  15  18
ENDBRANCH  11  14
ENDBRANCH   1  10
BRANCH   4  27
HETATM   27  C8  UNL     1      23.279  40.877  41.830  1.00  0.00     0.160 C 
HETATM   28  N6  UNL     1      23.599  39.775  41.017  1.00  0.00    -0.079 NA
BRANCH  27  29
HETATM   29  N7  UNL     1      22.182  40.866  42.500  1.00  0.00    -0.292 N 
ATOM     30  H7  UNL     1      21.326  41.131  42.013  1.00  0.00     0.187 HD
BRANCH  29  31
HETATM   31  N8  UNL     1      22.081  40.523  43.830  1.00  0.00    -0.344 N 
ATOM     32  H82 UNL     1      21.292  40.912  44.345  1.00  0.00     0.176 HD
ATOM     33  H81 UNL     1      22.735  39.914  44.323  1.00  0.00     0.176 HD
ENDBRANCH  29  31
ENDBRANCH  27  29
ENDBRANCH   4  27
BRANCH   5  34
HETATM   34  O2  UNL     1      24.334  42.114  39.546  1.00  0.00    -0.354 OA
ATOM     35  H2  UNL     1      25.024  41.928  38.920  1.00  0.00     0.218 HD
ENDBRANCH   5  34
TORSDOF 7
ENDMDL
MODEL 4
REMARK VINA RESULT: -6.756550762      3.570      9.579
REMARK  7 active torsions:
REMARK  status: ('A' for Active; 'I' for Inactive)
REMARK    1  A    between atoms: C4_6  and  C5_7 
REMARK       I    between atoms: C5_7  and  N2_9 
REMARK    2  A    between atoms: N2_9  and  N3_11 
REMARK    3  A    between atoms: N4_13  and  C6_15 
REMARK    4  A    between atoms: C7_18  and  C8_19 
REMARK    5  A    between atoms: C8_19  and  N7_21 
REMARK    6  A    between atoms: N7_21  and  N8_23 
REMARK    7  A    between atoms: C9_26  and  O2_27 
ROOT
HETATM    1  C6  UNL     1      27.180  44.366  48.035  1.00  0.00     0.703 A 
HETATM    2  N5  UNL     1      28.153  43.543  48.468  1.00  0.00    -0.184 N 
ATOM      3  H5  UNL     1      28.221  42.608  48.064  1.00  0.00     0.184 HD
HETATM    4  C7  UNL     1      29.038  43.906  49.412  1.00  0.00     0.130 A 
HETATM    5  C9  UNL     1      28.901  45.189  49.927  1.00  0.00     0.166 A 
HETATM    6  C10 UNL     1      27.912  46.049  49.499  1.00  0.00     0.297 A 
HETATM    7  O3  UNL     1      27.762  47.215  49.945  1.00  0.00    -0.264 OA
HETATM    8  N9  UNL     1      27.052  45.610  48.539  1.00  0.00    -0.148 N 
HETATM    9  C11 UNL     1      25.989  46.442  48.034  1.00  0.00     0.179 C 
ENDROOT
BRANCH   1  10
HETATM   10  N4  UNL     1      26.252  43.934  47.021  1.00  0.00    -0.117 N 
HETATM   11  N3  UNL     1      25.335  43.086  47.315  1.00  0.00    -0.226 N 
ATOM     12  H3  UNL     1      25.251  42.711  48.261  1.00  0.00     0.209 HD
ATOM     13  H4  UNL     1      26.324  44.300  46.071  1.00  0.00     0.207 HD
BRANCH  11  14
HETATM   14  N2  UNL     1      24.454  42.691  46.307  1.00  0.00    -0.249 N 
HETATM   15  C5  UNL     1      24.951  42.094  45.133  1.00  0.00     0.297 C 
HETATM   16  O1  UNL     1      26.181  41.923  45.002  1.00  0.00    -0.264 OA
ATOM     17  H2  UNL     1      23.451  42.834  46.422  1.00  0.00     0.192 HD
BRANCH  15  18
HETATM   18  C4  UNL     1      24.043  41.678  44.074  1.00  0.00     0.171 A 
HETATM   19  C3  UNL     1      24.236  41.944  42.713  1.00  0.00     0.095 A 
HETATM   20  C2  UNL     1      23.160  41.382  42.072  1.00  0.00     0.124 A 
HETATM   21  N1  UNL     1      22.938  41.393  40.803  1.00  0.00    -0.379 N 
HETATM   22  N10 UNL     1      22.372  40.816  43.000  1.00  0.00    -0.245 N 
HETATM   23  C1  UNL     1      21.762  40.762  40.263  1.00  0.00     0.147 C 
ATOM     24  H1  UNL     1      23.600  41.852  40.177  1.00  0.00     0.160 HD
HETATM   25  O4  UNL     1      22.928  41.014  44.148  1.00  0.00    -0.231 OA
ATOM     26  H10 UNL     1      21.497  40.322  42.829  1.00  0.00     0.196 HD
ENDBRANCH  15  18
ENDBRANCH  11  14
ENDBRANCH   1  10
BRANCH   4  27
HETATM   27  C8  UNL     1      30.092  43.019  49.882  1.00  0.00     0.160 C 
HETATM   28  N6  UNL     1      31.442  43.411  49.856  1.00  0.00    -0.079 NA
BRANCH  27  29
HETATM   29  N7  UNL     1      29.784  41.854  50.331  1.00  0.00    -0.292 N 
ATOM     30  H7  UNL     1      29.098  41.802  51.084  1.00  0.00     0.187 HD
BRANCH  29  31
HETATM   31  N8  UNL     1      30.316  40.671  49.866  1.00  0.00    -0.344 N 
ATOM     32  H82 UNL     1      31.333  40.606  49.840  1.00  0.00     0.176 HD
ATOM     33  H81 UNL     1      29.765  39.872  49.552  1.00  0.00     0.176 HD
ENDBRANCH  29  31
ENDBRANCH  27  29
ENDBRANCH   4  27
BRANCH   5  34
HETATM   34  O2  UNL     1      29.791  45.612  50.903  1.00  0.00    -0.354 OA
ATOM     35  H2  UNL     1      29.697  45.271  51.785  1.00  0.00     0.218 HD
ENDBRANCH   5  34
TORSDOF 7
ENDMDL
MODEL 5
REMARK VINA RESULT: -6.741354226      4.308      9.288
REMARK  7 active torsions:
REMARK  status: ('A' for Active; 'I' for Inactive)
REMARK    1  A    between atoms: C4_6  and  C5_7 
REMARK       I    between atoms: C5_7  and  N2_9 
REMARK    2  A    between atoms: N2_9  and  N3_11 
REMARK    3  A    between atoms: N4_13  and  C6_15 
REMARK    4  A    between atoms: C7_18  and  C8_19 
REMARK    5  A    between atoms: C8_19  and  N7_21 
REMARK    6  A    between atoms: N7_21  and  N8_23 
REMARK    7  A    between atoms: C9_26  and  O2_27 
ROOT
HETATM    1  C6  UNL     1      27.855  43.257  47.557  1.00  0.00     0.703 A 
HETATM    2  N5  UNL     1      28.725  42.233  47.638  1.00  0.00    -0.184 N 
ATOM      3  H5  UNL     1      28.731  41.532  46.897  1.00  0.00     0.184 HD
HETATM    4  C7  UNL     1      29.588  42.099  48.661  1.00  0.00     0.130 A 
HETATM    5  C9  UNL     1      29.540  43.080  49.643  1.00  0.00     0.166 A 
HETATM    6  C10 UNL     1      28.657  44.137  49.580  1.00  0.00     0.297 A 
HETATM    7  O3  UNL     1      28.589  45.040  50.452  1.00  0.00    -0.264 OA
HETATM    8  N9  UNL     1      27.813  44.205  48.514  1.00  0.00    -0.148 N 
HETATM    9  C11 UNL     1      26.859  45.275  48.369  1.00  0.00     0.179 C 
ENDROOT
BRANCH   1  10
HETATM   10  N4  UNL     1      26.948  43.360  46.442  1.00  0.00    -0.117 N 
HETATM   11  N3  UNL     1      27.212  42.748  45.346  1.00  0.00    -0.226 N 
ATOM     12  H3  UNL     1      28.059  42.187  45.250  1.00  0.00     0.209 HD
ATOM     13  H4  UNL     1      26.098  43.918  46.524  1.00  0.00     0.207 HD
BRANCH  11  14
HETATM   14  N2  UNL     1      26.311  42.872  44.288  1.00  0.00    -0.249 N 
HETATM   15  C5  UNL     1      26.362  43.999  43.447  1.00  0.00     0.297 C 
HETATM   16  O1  UNL     1      27.218  44.885  43.656  1.00  0.00    -0.264 OA
ATOM     17  H2  UNL     1      25.615  42.144  44.125  1.00  0.00     0.192 HD
BRANCH  15  18
HETATM   18  C4  UNL     1      25.426  44.139  42.341  1.00  0.00     0.171 A 
HETATM   19  C3  UNL     1      24.875  43.068  41.628  1.00  0.00     0.095 A 
HETATM   20  C2  UNL     1      24.056  43.636  40.684  1.00  0.00     0.124 A 
HETATM   21  N1  UNL     1      23.351  43.007  39.809  1.00  0.00    -0.379 N 
HETATM   22  N10 UNL     1      24.118  44.969  40.828  1.00  0.00    -0.245 N 
HETATM   23  C1  UNL     1      22.532  43.734  38.874  1.00  0.00     0.147 C 
ATOM     24  H1  UNL     1      23.372  41.987  39.779  1.00  0.00     0.160 HD
HETATM   25  O4  UNL     1      24.927  45.212  41.805  1.00  0.00    -0.231 OA
ATOM     26  H10 UNL     1      23.620  45.662  40.270  1.00  0.00     0.196 HD
ENDBRANCH  15  18
ENDBRANCH  11  14
ENDBRANCH   1  10
BRANCH   4  27
HETATM   27  C8  UNL     1      30.531  40.994  48.752  1.00  0.00     0.160 C 
HETATM   28  N6  UNL     1      31.539  40.812  47.788  1.00  0.00    -0.079 NA
BRANCH  27  29
HETATM   29  N7  UNL     1      30.442  40.166  49.732  1.00  0.00    -0.292 N 
ATOM     30  H7  UNL     1      30.521  40.541  50.677  1.00  0.00     0.187 HD
BRANCH  29  31
HETATM   31  N8  UNL     1      30.248  38.810  49.595  1.00  0.00    -0.344 N 
ATOM     32  H82 UNL     1      30.510  38.398  48.700  1.00  0.00     0.176 HD
ATOM     33  H81 UNL     1      29.866  38.203  50.321  1.00  0.00     0.176 HD
ENDBRANCH  29  31
ENDBRANCH  27  29
ENDBRANCH   4  27
BRANCH   5  34
HETATM   34  O2  UNL     1      30.411  42.987  50.719  1.00  0.00    -0.354 OA
ATOM     35  H2  UNL     1      30.362  43.645  51.403  1.00  0.00     0.218 HD
ENDBRANCH   5  34
TORSDOF 7
ENDMDL
