MODEL 1
REMARK VINA RESULT: -9.351924309      0.000      0.000
REMARK  6 active torsions:
REMARK  status: ('A' for Active; 'I' for Inactive)
REMARK    1  A    between atoms: C4_4  and  N1_5 
REMARK    2  A    between atoms: N1_5  and  C5_7 
REMARK    3  A    between atoms: C6_10  and  N3_11 
REMARK    4  A    between atoms: N3_11  and  C7_13 
REMARK    5  A    between atoms: C11_20  and  N5_21 
REMARK    6  A    between atoms: N5_21  and  C12_23 
ROOT
HETATM    1  C5  UNL     1      48.511 -15.411  10.505  1.00  0.00     0.134 A 
HETATM    2  N2  UNL     1      48.599 -16.569  11.157  1.00  0.00    -0.175 N 
ATOM      3  H2  UNL     1      48.891 -17.396  10.637  1.00  0.00     0.186 HD
HETATM    4  C6  UNL     1      48.323 -16.703  12.471  1.00  0.00     0.686 A 
HETATM    5  N4  UNL     1      47.941 -15.606  13.142  1.00  0.00    -0.191 N 
ATOM      6  H4  UNL     1      47.729 -15.697  14.135  1.00  0.00     0.184 HD
HETATM    7  C8  UNL     1      47.823 -14.386  12.572  1.00  0.00     0.063 A 
HETATM    8  C9  UNL     1      47.428 -13.280  13.291  1.00  0.00     0.033 A 
HETATM    9  C10 UNL     1      47.315 -12.050  12.688  1.00  0.00     0.032 A 
HETATM   10  C11 UNL     1      47.596 -11.925  11.367  1.00  0.00     0.034 A 
HETATM   11  C17 UNL     1      47.989 -13.046  10.660  1.00  0.00     0.047 A 
HETATM   12  C18 UNL     1      48.118 -14.296  11.216  1.00  0.00     0.038 A 
ENDROOT
BRANCH   1  13
HETATM   13  N1  UNL     1      48.781 -15.287   9.234  1.00  0.00    -0.341 N 
ATOM     14  H1  UNL     1      48.026 -15.346   8.550  1.00  0.00     0.167 HD
BRANCH  13  15
HETATM   15  C4  UNL     1      50.112 -15.071   8.792  1.00  0.00     0.036 A 
HETATM   16  C3  UNL     1      50.499 -13.871   8.255  1.00  0.00     0.054 A 
HETATM   17  C2  UNL     1      51.794 -13.678   7.832  1.00  0.00     0.007 A 
HETATM   18  C1  UNL     1      52.234 -12.390   7.249  1.00  0.00     0.068 C 
HETATM   19  N7  UNL     1      52.698 -14.667   7.942  1.00  0.00    -0.369 N 
HETATM   20  C20 UNL     1      52.328 -15.857   8.471  1.00  0.00     0.090 A 
ATOM     21  H7  UNL     1      53.657 -14.522   7.628  1.00  0.00     0.165 HD
HETATM   22  C19 UNL     1      51.025 -16.092   8.911  1.00  0.00     0.046 A 
ENDBRANCH  13  15
ENDBRANCH   1  13
BRANCH   4  23
HETATM   23  N3  UNL     1      48.440 -17.873  13.002  1.00  0.00    -0.167 N 
ATOM     24  H3  UNL     1      49.367 -18.298  13.047  1.00  0.00     0.186 HD
BRANCH  23  25
HETATM   25  C7  UNL     1      47.340 -18.591  13.524  1.00  0.00     0.368 C 
HETATM   26  O1  UNL     1      46.211 -18.067  13.636  1.00  0.00    -0.283 OA
ENDBRANCH  23  25
ENDBRANCH   4  23
BRANCH  10  27
HETATM   27  N5  UNL     1      47.519 -10.724  10.632  1.00  0.00    -0.342 N 
ATOM     28  H5  UNL     1      46.948  -9.982  11.038  1.00  0.00     0.167 HD
BRANCH  27  29
HETATM   29  C12 UNL     1      48.075 -10.462   9.529  1.00  0.00     0.105 A 
HETATM   30  C13 UNL     1      47.394 -10.779   8.370  1.00  0.00     0.048 A 
HETATM   31  C14 UNL     1      47.899 -10.541   7.109  1.00  0.00     0.005 A 
HETATM   32  C15 UNL     1      49.147  -9.956   7.036  1.00  0.00     0.017 A 
HETATM   33  C16 UNL     1      49.805  -9.650   8.208  1.00  0.00     0.089 A 
HETATM   34  N6  UNL     1      49.290  -9.893   9.427  1.00  0.00    -0.352 N 
ATOM     35  H6  UNL     1      49.816  -9.647  10.266  1.00  0.00     0.166 HD
ENDBRANCH  27  29
ENDBRANCH  10  27
TORSDOF 6
ENDMDL
MODEL 2
REMARK VINA RESULT: -9.274615961      1.378      1.628
REMARK  6 active torsions:
REMARK  status: ('A' for Active; 'I' for Inactive)
REMARK    1  A    between atoms: C4_4  and  N1_5 
REMARK    2  A    between atoms: N1_5  and  C5_7 
REMARK    3  A    between atoms: C6_10  and  N3_11 
REMARK    4  A    between atoms: N3_11  and  C7_13 
REMARK    5  A    between atoms: C11_20  and  N5_21 
REMARK    6  A    between atoms: N5_21  and  C12_23 
ROOT
HETATM    1  C5  UNL     1      49.260 -15.167  10.372  1.00  0.00     0.134 A 
HETATM    2  N2  UNL     1      49.003 -16.393  10.822  1.00  0.00    -0.175 N 
ATOM      3  H2  UNL     1      49.581 -17.163  10.485  1.00  0.00     0.186 HD
HETATM    4  C6  UNL     1      48.018 -16.669  11.701  1.00  0.00     0.686 A 
HETATM    5  N4  UNL     1      47.268 -15.645  12.136  1.00  0.00    -0.191 N 
ATOM      6  H4  UNL     1      46.520 -15.844  12.801  1.00  0.00     0.184 HD
HETATM    7  C8  UNL     1      47.449 -14.367  11.741  1.00  0.00     0.063 A 
HETATM    8  C9  UNL     1      46.660 -13.339  12.208  1.00  0.00     0.033 A 
HETATM    9  C10 UNL     1      46.864 -12.045  11.791  1.00  0.00     0.032 A 
HETATM   10  C11 UNL     1      47.858 -11.779  10.906  1.00  0.00     0.034 A 
HETATM   11  C17 UNL     1      48.640 -12.821  10.447  1.00  0.00     0.047 A 
HETATM   12  C18 UNL     1      48.476 -14.129  10.834  1.00  0.00     0.038 A 
ENDROOT
BRANCH   1  13
HETATM   13  N1  UNL     1      50.216 -14.905   9.521  1.00  0.00    -0.341 N 
ATOM     14  H1  UNL     1      51.189 -15.014   9.807  1.00  0.00     0.167 HD
BRANCH  13  15
HETATM   15  C4  UNL     1      49.916 -14.471   8.204  1.00  0.00     0.036 A 
HETATM   16  C3  UNL     1      50.791 -13.689   7.495  1.00  0.00     0.054 A 
HETATM   17  C2  UNL     1      50.484 -13.277   6.219  1.00  0.00     0.007 A 
HETATM   18  C1  UNL     1      51.414 -12.432   5.435  1.00  0.00     0.068 C 
HETATM   19  N7  UNL     1      49.321 -13.638   5.650  1.00  0.00    -0.369 N 
HETATM   20  C20 UNL     1      48.449 -14.410   6.340  1.00  0.00     0.090 A 
ATOM     21  H7  UNL     1      49.096 -13.331   4.704  1.00  0.00     0.165 HD
HETATM   22  C19 UNL     1      48.722 -14.848   7.636  1.00  0.00     0.046 A 
ENDBRANCH  13  15
ENDBRANCH   1  13
BRANCH   4  23
HETATM   23  N3  UNL     1      47.856 -17.895  12.070  1.00  0.00    -0.167 N 
ATOM     24  H3  UNL     1      48.677 -18.497  12.137  1.00  0.00     0.186 HD
BRANCH  23  25
HETATM   25  C7  UNL     1      46.589 -18.438  12.386  1.00  0.00     0.368 C 
HETATM   26  O1  UNL     1      45.937 -18.044  13.376  1.00  0.00    -0.283 OA
ENDBRANCH  23  25
ENDBRANCH   4  23
BRANCH  10  27
HETATM   27  N5  UNL     1      48.170 -10.499  10.401  1.00  0.00    -0.342 N 
ATOM     28  H5  UNL     1      47.974  -9.710  11.016  1.00  0.00     0.167 HD
BRANCH  27  29
HETATM   29  C12 UNL     1      48.666 -10.220   9.273  1.00  0.00     0.105 A 
HETATM   30  C13 UNL     1      47.943 -10.563   8.147  1.00  0.00     0.048 A 
HETATM   31  C14 UNL     1      48.380 -10.310   6.864  1.00  0.00     0.005 A 
HETATM   32  C15 UNL     1      49.602  -9.682   6.733  1.00  0.00     0.017 A 
HETATM   33  C16 UNL     1      50.302  -9.350   7.873  1.00  0.00     0.089 A 
HETATM   34  N6  UNL     1      49.853  -9.608   9.114  1.00  0.00    -0.352 N 
ATOM     35  H6  UNL     1      50.408  -9.342   9.928  1.00  0.00     0.166 HD
ENDBRANCH  27  29
ENDBRANCH  10  27
TORSDOF 6
ENDMDL
MODEL 3
REMARK VINA RESULT: -9.232942283      1.493      1.903
REMARK  6 active torsions:
REMARK  status: ('A' for Active; 'I' for Inactive)
REMARK    1  A    between atoms: C4_4  and  N1_5 
REMARK    2  A    between atoms: N1_5  and  C5_7 
REMARK    3  A    between atoms: C6_10  and  N3_11 
REMARK    4  A    between atoms: N3_11  and  C7_13 
REMARK    5  A    between atoms: C11_20  and  N5_21 
REMARK    6  A    between atoms: N5_21  and  C12_23 
ROOT
HETATM    1  C5  UNL     1      49.200 -15.121  10.395  1.00  0.00     0.134 A 
HETATM    2  N2  UNL     1      48.937 -16.346  10.845  1.00  0.00    -0.175 N 
ATOM      3  H2  UNL     1      49.519 -17.117  10.516  1.00  0.00     0.186 HD
HETATM    4  C6  UNL     1      47.940 -16.620  11.712  1.00  0.00     0.686 A 
HETATM    5  N4  UNL     1      47.185 -15.595  12.135  1.00  0.00    -0.191 N 
ATOM      6  H4  UNL     1      46.428 -15.792  12.790  1.00  0.00     0.184 HD
HETATM    7  C8  UNL     1      47.371 -14.317  11.739  1.00  0.00     0.063 A 
HETATM    8  C9  UNL     1      46.577 -13.289  12.194  1.00  0.00     0.033 A 
HETATM    9  C10 UNL     1      46.786 -11.996  11.777  1.00  0.00     0.032 A 
HETATM   10  C11 UNL     1      47.792 -11.731  10.905  1.00  0.00     0.034 A 
HETATM   11  C17 UNL     1      48.579 -12.775  10.457  1.00  0.00     0.047 A 
HETATM   12  C18 UNL     1      48.410 -14.082  10.845  1.00  0.00     0.038 A 
ENDROOT
BRANCH   1  13
HETATM   13  N1  UNL     1      50.167 -14.861   9.556  1.00  0.00    -0.341 N 
ATOM     14  H1  UNL     1      50.987 -14.346   9.876  1.00  0.00     0.167 HD
BRANCH  13  15
HETATM   15  C4  UNL     1      50.088 -15.288   8.205  1.00  0.00     0.036 A 
HETATM   16  C3  UNL     1      51.053 -16.091   7.654  1.00  0.00     0.054 A 
HETATM   17  C2  UNL     1      50.961 -16.496   6.343  1.00  0.00     0.007 A 
HETATM   18  C1  UNL     1      51.993 -17.363   5.727  1.00  0.00     0.068 C 
HETATM   19  N7  UNL     1      49.922 -16.108   5.584  1.00  0.00    -0.369 N 
HETATM   20  C20 UNL     1      48.962 -15.315   6.117  1.00  0.00     0.090 A 
ATOM     21  H7  UNL     1      49.856 -16.409   4.612  1.00  0.00     0.165 HD
HETATM   22  C19 UNL     1      49.019 -14.883   7.441  1.00  0.00     0.046 A 
ENDBRANCH  13  15
ENDBRANCH   1  13
BRANCH   4  23
HETATM   23  N3  UNL     1      47.774 -17.845  12.081  1.00  0.00    -0.167 N 
ATOM     24  H3  UNL     1      48.598 -18.433  12.210  1.00  0.00     0.186 HD
BRANCH  23  25
HETATM   25  C7  UNL     1      46.497 -18.407  12.314  1.00  0.00     0.368 C 
HETATM   26  O1  UNL     1      45.861 -18.173  13.364  1.00  0.00    -0.283 OA
ENDBRANCH  23  25
ENDBRANCH   4  23
BRANCH  10  27
HETATM   27  N5  UNL     1      48.111 -10.453  10.401  1.00  0.00    -0.342 N 
ATOM     28  H5  UNL     1      47.877  -9.661  10.999  1.00  0.00     0.167 HD
BRANCH  27  29
HETATM   29  C12 UNL     1      48.653 -10.178   9.293  1.00  0.00     0.105 A 
HETATM   30  C13 UNL     1      47.975 -10.523   8.139  1.00  0.00     0.048 A 
HETATM   31  C14 UNL     1      48.465 -10.275   6.875  1.00  0.00     0.005 A 
HETATM   32  C15 UNL     1      49.693  -9.650   6.792  1.00  0.00     0.017 A 
HETATM   33  C16 UNL     1      50.347  -9.317   7.959  1.00  0.00     0.089 A 
HETATM   34  N6  UNL     1      49.847  -9.570   9.181  1.00  0.00    -0.352 N 
ATOM     35  H6  UNL     1      50.369  -9.304  10.017  1.00  0.00     0.166 HD
ENDBRANCH  27  29
ENDBRANCH  10  27
TORSDOF 6
ENDMDL
MODEL 4
REMARK VINA RESULT: -9.188874497      0.582      1.469
REMARK  6 active torsions:
REMARK  status: ('A' for Active; 'I' for Inactive)
REMARK    1  A    between atoms: C4_4  and  N1_5 
REMARK    2  A    between atoms: N1_5  and  C5_7 
REMARK    3  A    between atoms: C6_10  and  N3_11 
REMARK    4  A    between atoms: N3_11  and  C7_13 
REMARK    5  A    between atoms: C11_20  and  N5_21 
REMARK    6  A    between atoms: N5_21  and  C12_23 
ROOT
HETATM    1  C5  UNL     1      48.629 -15.452  10.651  1.00  0.00     0.134 A 
HETATM    2  N2  UNL     1      48.721 -16.610  11.301  1.00  0.00    -0.175 N 
ATOM      3  H2  UNL     1      49.062 -17.425  10.792  1.00  0.00     0.186 HD
HETATM    4  C6  UNL     1      48.386 -16.760  12.599  1.00  0.00     0.686 A 
HETATM    5  N4  UNL     1      47.939 -15.679  13.255  1.00  0.00    -0.191 N 
ATOM      6  H4  UNL     1      47.683 -15.782  14.237  1.00  0.00     0.184 HD
HETATM    7  C8  UNL     1      47.811 -14.461  12.686  1.00  0.00     0.063 A 
HETATM    8  C9  UNL     1      47.349 -13.370  13.390  1.00  0.00     0.033 A 
HETATM    9  C10 UNL     1      47.228 -12.141  12.788  1.00  0.00     0.032 A 
HETATM   10  C11 UNL     1      47.568 -12.001  11.482  1.00  0.00     0.034 A 
HETATM   11  C17 UNL     1      48.028 -13.104  10.790  1.00  0.00     0.047 A 
HETATM   12  C18 UNL     1      48.168 -14.353  11.346  1.00  0.00     0.038 A 
ENDROOT
BRANCH   1  13
HETATM   13  N1  UNL     1      48.955 -15.313   9.394  1.00  0.00    -0.341 N 
ATOM     14  H1  UNL     1      48.231 -15.117   8.703  1.00  0.00     0.167 HD
BRANCH  13  15
HETATM   15  C4  UNL     1      50.307 -15.430   8.978  1.00  0.00     0.036 A 
HETATM   16  C3  UNL     1      51.001 -16.603   9.132  1.00  0.00     0.054 A 
HETATM   17  C2  UNL     1      52.310 -16.700   8.723  1.00  0.00     0.007 A 
HETATM   18  C1  UNL     1      53.078 -17.957   8.880  1.00  0.00     0.068 C 
HETATM   19  N7  UNL     1      52.927 -15.644   8.166  1.00  0.00    -0.369 N 
HETATM   20  C20 UNL     1      52.253 -14.480   8.008  1.00  0.00     0.090 A 
ATOM     21  H7  UNL     1      53.898 -15.718   7.863  1.00  0.00     0.165 HD
HETATM   22  C19 UNL     1      50.925 -14.341   8.410  1.00  0.00     0.046 A 
ENDBRANCH  13  15
ENDBRANCH   1  13
BRANCH   4  23
HETATM   23  N3  UNL     1      48.513 -17.929  13.130  1.00  0.00    -0.167 N 
ATOM     24  H3  UNL     1      49.445 -18.341  13.186  1.00  0.00     0.186 HD
BRANCH  23  25
HETATM   25  C7  UNL     1      47.416 -18.663  13.638  1.00  0.00     0.368 C 
HETATM   26  O1  UNL     1      46.266 -18.177  13.678  1.00  0.00    -0.283 OA
ENDBRANCH  23  25
ENDBRANCH   4  23
BRANCH  10  27
HETATM   27  N5  UNL     1      47.489 -10.798  10.749  1.00  0.00    -0.342 N 
ATOM     28  H5  UNL     1      46.973 -10.035  11.187  1.00  0.00     0.167 HD
BRANCH  27  29
HETATM   29  C12 UNL     1      47.985 -10.558   9.612  1.00  0.00     0.105 A 
HETATM   30  C13 UNL     1      47.236 -10.887   8.499  1.00  0.00     0.048 A 
HETATM   31  C14 UNL     1      47.671 -10.674   7.208  1.00  0.00     0.005 A 
HETATM   32  C15 UNL     1      48.917 -10.101   7.055  1.00  0.00     0.017 A 
HETATM   33  C16 UNL     1      49.643  -9.782   8.183  1.00  0.00     0.089 A 
HETATM   34  N6  UNL     1      49.196 -10.001   9.432  1.00  0.00    -0.352 N 
ATOM     35  H6  UNL     1      49.770  -9.747  10.237  1.00  0.00     0.166 HD
ENDBRANCH  27  29
ENDBRANCH  10  27
TORSDOF 6
ENDMDL
MODEL 5
REMARK VINA RESULT: -8.649255052      3.924      6.797
REMARK  6 active torsions:
REMARK  status: ('A' for Active; 'I' for Inactive)
REMARK    1  A    between atoms: C4_4  and  N1_5 
REMARK    2  A    between atoms: N1_5  and  C5_7 
REMARK    3  A    between atoms: C6_10  and  N3_11 
REMARK    4  A    between atoms: N3_11  and  C7_13 
REMARK    5  A    between atoms: C11_20  and  N5_21 
REMARK    6  A    between atoms: N5_21  and  C12_23 
ROOT
HETATM    1  C5  UNL     1      51.555 -11.911   6.275  1.00  0.00     0.134 A 
HETATM    2  N2  UNL     1      51.796 -12.288   5.021  1.00  0.00    -0.175 N 
ATOM      3  H2  UNL     1      52.765 -12.333   4.706  1.00  0.00     0.186 HD
HETATM    4  C6  UNL     1      50.822 -12.614   4.145  1.00  0.00     0.686 A 
HETATM    5  N4  UNL     1      49.553 -12.552   4.574  1.00  0.00    -0.191 N 
ATOM      6  H4  UNL     1      48.810 -12.796   3.920  1.00  0.00     0.184 HD
HETATM    7  C8  UNL     1      49.206 -12.182   5.826  1.00  0.00     0.063 A 
HETATM    8  C9  UNL     1      47.892 -12.129   6.234  1.00  0.00     0.033 A 
HETATM    9  C10 UNL     1      47.564 -11.750   7.514  1.00  0.00     0.032 A 
HETATM   10  C11 UNL     1      48.550 -11.424   8.387  1.00  0.00     0.034 A 
HETATM   11  C17 UNL     1      49.863 -11.482   7.961  1.00  0.00     0.047 A 
HETATM   12  C18 UNL     1      50.242 -11.855   6.694  1.00  0.00     0.038 A 
ENDROOT
BRANCH   1  13
HETATM   13  N1  UNL     1      52.502 -11.597   7.118  1.00  0.00    -0.341 N 
ATOM     14  H1  UNL     1      52.489 -10.684   7.573  1.00  0.00     0.167 HD
BRANCH  13  15
HETATM   15  C4  UNL     1      53.547 -12.512   7.409  1.00  0.00     0.036 A 
HETATM   16  C3  UNL     1      53.280 -13.792   7.821  1.00  0.00     0.054 A 
HETATM   17  C2  UNL     1      54.306 -14.666   8.097  1.00  0.00     0.007 A 
HETATM   18  C1  UNL     1      54.041 -16.053   8.544  1.00  0.00     0.068 C 
HETATM   19  N7  UNL     1      55.585 -14.274   7.966  1.00  0.00    -0.369 N 
HETATM   20  C20 UNL     1      55.862 -13.013   7.560  1.00  0.00     0.090 A 
ATOM     21  H7  UNL     1      56.344 -14.924   8.172  1.00  0.00     0.165 HD
HETATM   22  C19 UNL     1      54.851 -12.097   7.270  1.00  0.00     0.046 A 
ENDBRANCH  13  15
ENDBRANCH   1  13
BRANCH   4  23
HETATM   23  N3  UNL     1      51.168 -12.965   2.953  1.00  0.00    -0.167 N 
ATOM     24  H3  UNL     1      50.506 -13.500   2.389  1.00  0.00     0.186 HD
BRANCH  23  25
HETATM   25  C7  UNL     1      52.426 -12.640   2.394  1.00  0.00     0.368 C 
HETATM   26  O1  UNL     1      52.819 -11.458   2.311  1.00  0.00    -0.283 OA
ENDBRANCH  23  25
ENDBRANCH   4  23
BRANCH  10  27
HETATM   27  N5  UNL     1      48.348 -11.020   9.723  1.00  0.00    -0.342 N 
ATOM     28  H5  UNL     1      48.532 -10.039   9.931  1.00  0.00     0.167 HD
BRANCH  27  29
HETATM   29  C12 UNL     1      47.966 -11.736  10.691  1.00  0.00     0.105 A 
HETATM   30  C13 UNL     1      48.341 -13.065  10.700  1.00  0.00     0.048 A 
HETATM   31  C14 UNL     1      47.984 -13.942  11.702  1.00  0.00     0.005 A 
HETATM   32  C15 UNL     1      47.216 -13.437  12.731  1.00  0.00     0.017 A 
HETATM   33  C16 UNL     1      46.856 -12.107  12.698  1.00  0.00     0.089 A 
HETATM   34  N6  UNL     1      47.217 -11.271  11.708  1.00  0.00    -0.352 N 
ATOM     35  H6  UNL     1      46.926 -10.293  11.728  1.00  0.00     0.166 HD
ENDBRANCH  27  29
ENDBRANCH  10  27
TORSDOF 6
ENDMDL
