MODEL 1
REMARK VINA RESULT: -9.873653562      0.000      0.000
REMARK  3 active torsions:
REMARK  status: ('A' for Active; 'I' for Inactive)
REMARK    1  A    between atoms: C4_7  and  N3_8 
REMARK    2  A    between atoms: N3_8  and  C5_10 
REMARK    3  A    between atoms: N5_19  and  C12_21 
ROOT
HETATM    1  N1  UNL     1      47.688 -14.699  14.748  1.00  0.00    -0.191 NA
HETATM    2  C1  UNL     1      47.515 -14.111  13.773  1.00  0.00     0.104 C 
HETATM    3  C2  UNL     1      47.294 -13.332  12.566  1.00  0.00     0.105 A 
HETATM    4  C3  UNL     1      47.101 -11.957  12.725  1.00  0.00     0.132 A 
HETATM    5  N2  UNL     1      46.898 -11.238  11.622  1.00  0.00    -0.200 N 
ATOM      6  H2  UNL     1      46.754 -10.231  11.697  1.00  0.00     0.183 HD
HETATM    7  C4  UNL     1      46.881 -11.833  10.394  1.00  0.00     0.684 A 
HETATM    8  N4  UNL     1      47.063 -13.134  10.247  1.00  0.00    -0.175 N 
ATOM      9  H4  UNL     1      47.043 -13.539   9.311  1.00  0.00     0.186 HD
HETATM   10  C11 UNL     1      47.282 -13.961  11.342  1.00  0.00     0.143 A 
HETATM   11  N5  UNL     1      47.445 -15.177  11.108  1.00  0.00    -0.341 N 
ATOM     12  H5  UNL     1      47.384 -15.343  10.104  1.00  0.00     0.167 HD
ENDROOT
BRANCH  11  13
HETATM   13  C12 UNL     1      47.675 -16.340  11.744  1.00  0.00     0.034 A 
HETATM   14  C13 UNL     1      48.974 -16.825  11.889  1.00  0.00     0.030 A 
HETATM   15  C14 UNL     1      49.229 -18.019  12.510  1.00  0.00     0.020 A 
HETATM   16  C15 UNL     1      48.214 -18.798  13.021  1.00  0.00     0.048 A 
HETATM   17  C16 UNL     1      46.924 -18.325  12.881  1.00  0.00     0.050 A 
HETATM   18  C19 UNL     1      48.143 -20.077  13.716  1.00  0.00     0.259 A 
HETATM   19  C17 UNL     1      46.655 -17.128  12.260  1.00  0.00     0.047 A 
HETATM   20  C18 UNL     1      46.012 -19.288  13.483  1.00  0.00     0.259 A 
HETATM   21  O1  UNL     1      44.757 -19.167  13.530  1.00  0.00    -0.267 OA
HETATM   22  N6  UNL     1      46.784 -20.372  13.997  1.00  0.00    -0.289 N 
ATOM     23  H6  UNL     1      46.427 -21.199  14.475  1.00  0.00     0.172 HD
HETATM   24  O2  UNL     1      49.099 -20.820  14.031  1.00  0.00    -0.267 OA
ENDBRANCH  11  13
BRANCH   7  25
HETATM   25  N3  UNL     1      46.684 -11.137   9.327  1.00  0.00    -0.192 N 
ATOM     26  H3  UNL     1      45.741 -10.928   9.000  1.00  0.00     0.184 HD
BRANCH  25  27
HETATM   27  C5  UNL     1      47.824 -10.669   8.620  1.00  0.00     0.049 A 
HETATM   28  C6  UNL     1      48.949 -10.175   9.288  1.00  0.00     0.030 A 
HETATM   29  C7  UNL     1      50.057  -9.718   8.603  1.00  0.00     0.002 A 
HETATM   30  C8  UNL     1      50.060  -9.749   7.210  1.00  0.00     0.000 A 
HETATM   31  C9  UNL     1      48.951 -10.236   6.553  1.00  0.00     0.002 A 
HETATM   32  C10 UNL     1      47.831 -10.697   7.237  1.00  0.00     0.030 A 
ENDBRANCH  25  27
ENDBRANCH   7  25
TORSDOF 3
ENDMDL
MODEL 2
REMARK VINA RESULT: -9.439743370      1.164      1.998
REMARK  3 active torsions:
REMARK  status: ('A' for Active; 'I' for Inactive)
REMARK    1  A    between atoms: C4_7  and  N3_8 
REMARK    2  A    between atoms: N3_8  and  C5_10 
REMARK    3  A    between atoms: N5_19  and  C12_21 
ROOT
HETATM    1  N1  UNL     1      47.910 -15.294  14.920  1.00  0.00    -0.191 NA
HETATM    2  C1  UNL     1      47.658 -14.624  14.017  1.00  0.00     0.104 C 
HETATM    3  C2  UNL     1      47.341 -13.744  12.905  1.00  0.00     0.105 A 
HETATM    4  C3  UNL     1      47.199 -12.384  13.192  1.00  0.00     0.132 A 
HETATM    5  N2  UNL     1      46.908 -11.573  12.176  1.00  0.00    -0.200 N 
ATOM      6  H2  UNL     1      46.797 -10.573  12.346  1.00  0.00     0.183 HD
HETATM    7  C4  UNL     1      46.757 -12.063  10.911  1.00  0.00     0.684 A 
HETATM    8  N4  UNL     1      46.893 -13.351  10.643  1.00  0.00    -0.175 N 
ATOM      9  H4  UNL     1      46.773 -13.677   9.684  1.00  0.00     0.186 HD
HETATM   10  C11 UNL     1      47.196 -14.269  11.641  1.00  0.00     0.143 A 
HETATM   11  N5  UNL     1      47.305 -15.464  11.295  1.00  0.00    -0.341 N 
ATOM     12  H5  UNL     1      47.143 -15.546  10.292  1.00  0.00     0.167 HD
ENDROOT
BRANCH  11  13
HETATM   13  C12 UNL     1      47.566 -16.680  11.809  1.00  0.00     0.034 A 
HETATM   14  C13 UNL     1      46.536 -17.474  12.310  1.00  0.00     0.030 A 
HETATM   15  C14 UNL     1      46.782 -18.703  12.862  1.00  0.00     0.020 A 
HETATM   16  C15 UNL     1      48.059 -19.214  12.949  1.00  0.00     0.048 A 
HETATM   17  C16 UNL     1      49.085 -18.433  12.455  1.00  0.00     0.050 A 
HETATM   18  C19 UNL     1      48.647 -20.445  13.460  1.00  0.00     0.259 A 
HETATM   19  C17 UNL     1      48.852 -17.197  11.899  1.00  0.00     0.047 A 
HETATM   20  C18 UNL     1      50.341 -19.148  12.641  1.00  0.00     0.259 A 
HETATM   21  O1  UNL     1      51.477 -18.719  12.301  1.00  0.00    -0.267 OA
HETATM   22  N6  UNL     1      50.053 -20.396  13.268  1.00  0.00    -0.289 N 
ATOM     23  H6  UNL     1      50.727 -21.116  13.527  1.00  0.00     0.172 HD
HETATM   24  O2  UNL     1      48.047 -21.407  13.988  1.00  0.00    -0.267 OA
ENDBRANCH  11  13
BRANCH   7  25
HETATM   25  N3  UNL     1      46.476 -11.278   9.929  1.00  0.00    -0.192 N 
ATOM     26  H3  UNL     1      45.515 -10.995   9.740  1.00  0.00     0.184 HD
BRANCH  25  27
HETATM   27  C5  UNL     1      47.549 -10.820   9.117  1.00  0.00     0.049 A 
HETATM   28  C6  UNL     1      48.718 -10.294   9.675  1.00  0.00     0.030 A 
HETATM   29  C7  UNL     1      49.760  -9.847   8.889  1.00  0.00     0.002 A 
HETATM   30  C8  UNL     1      49.649  -9.921   7.502  1.00  0.00     0.000 A 
HETATM   31  C9  UNL     1      48.496 -10.439   6.953  1.00  0.00     0.002 A 
HETATM   32  C10 UNL     1      47.443 -10.890   7.739  1.00  0.00     0.030 A 
ENDBRANCH  25  27
ENDBRANCH   7  25
TORSDOF 3
ENDMDL
MODEL 3
REMARK VINA RESULT: -9.281689169      4.352      8.156
REMARK  3 active torsions:
REMARK  status: ('A' for Active; 'I' for Inactive)
REMARK    1  A    between atoms: C4_7  and  N3_8 
REMARK    2  A    between atoms: N3_8  and  C5_10 
REMARK    3  A    between atoms: N5_19  and  C12_21 
ROOT
HETATM    1  N1  UNL     1      47.179 -10.767   6.945  1.00  0.00    -0.191 NA
HETATM    2  C1  UNL     1      47.237 -11.125   8.038  1.00  0.00     0.104 C 
HETATM    3  C2  UNL     1      47.270 -11.561   9.425  1.00  0.00     0.105 A 
HETATM    4  C3  UNL     1      46.163 -11.243  10.216  1.00  0.00     0.132 A 
HETATM    5  N2  UNL     1      46.189 -11.640  11.487  1.00  0.00    -0.200 N 
ATOM      6  H2  UNL     1      45.399 -11.428  12.097  1.00  0.00     0.183 HD
HETATM    7  C4  UNL     1      47.258 -12.327  11.984  1.00  0.00     0.684 A 
HETATM    8  N4  UNL     1      48.304 -12.625  11.232  1.00  0.00    -0.175 N 
ATOM      9  H4  UNL     1      49.084 -13.140  11.642  1.00  0.00     0.186 HD
HETATM   10  C11 UNL     1      48.364 -12.252   9.895  1.00  0.00     0.143 A 
HETATM   11  N5  UNL     1      49.390 -12.577   9.262  1.00  0.00    -0.341 N 
ATOM     12  H5  UNL     1      50.026 -13.083   9.879  1.00  0.00     0.167 HD
ENDROOT
BRANCH  11  13
HETATM   13  C12 UNL     1      49.934 -12.480   8.036  1.00  0.00     0.034 A 
HETATM   14  C13 UNL     1      50.446 -11.266   7.580  1.00  0.00     0.030 A 
HETATM   15  C14 UNL     1      50.981 -11.139   6.326  1.00  0.00     0.020 A 
HETATM   16  C15 UNL     1      51.038 -12.203   5.453  1.00  0.00     0.048 A 
HETATM   17  C16 UNL     1      50.532 -13.409   5.896  1.00  0.00     0.050 A 
HETATM   18  C19 UNL     1      51.525 -12.400   4.094  1.00  0.00     0.259 A 
HETATM   19  C17 UNL     1      49.993 -13.551   7.153  1.00  0.00     0.047 A 
HETATM   20  C18 UNL     1      50.687 -14.393   4.833  1.00  0.00     0.259 A 
HETATM   21  O1  UNL     1      50.328 -15.600   4.905  1.00  0.00    -0.267 OA
HETATM   22  N6  UNL     1      51.304 -13.752   3.720  1.00  0.00    -0.289 N 
ATOM     23  H6  UNL     1      51.543 -14.181   2.826  1.00  0.00     0.172 HD
HETATM   24  O2  UNL     1      52.055 -11.546   3.349  1.00  0.00    -0.267 OA
ENDBRANCH  11  13
BRANCH   7  25
HETATM   25  N3  UNL     1      47.283 -12.710  13.214  1.00  0.00    -0.192 N 
ATOM     26  H3  UNL     1      47.140 -12.047  13.975  1.00  0.00     0.184 HD
BRANCH  25  27
HETATM   27  C5  UNL     1      47.514 -14.088  13.476  1.00  0.00     0.049 A 
HETATM   28  C6  UNL     1      47.554 -15.033  12.446  1.00  0.00     0.030 A 
HETATM   29  C7  UNL     1      47.778 -16.371  12.698  1.00  0.00     0.002 A 
HETATM   30  C8  UNL     1      47.969 -16.796  14.011  1.00  0.00     0.000 A 
HETATM   31  C9  UNL     1      47.929 -15.864  15.025  1.00  0.00     0.002 A 
HETATM   32  C10 UNL     1      47.704 -14.514  14.778  1.00  0.00     0.030 A 
ENDBRANCH  25  27
ENDBRANCH   7  25
TORSDOF 3
ENDMDL
MODEL 4
REMARK VINA RESULT: -9.245811317      4.786      8.675
REMARK  3 active torsions:
REMARK  status: ('A' for Active; 'I' for Inactive)
REMARK    1  A    between atoms: C4_7  and  N3_8 
REMARK    2  A    between atoms: N3_8  and  C5_10 
REMARK    3  A    between atoms: N5_19  and  C12_21 
ROOT
HETATM    1  N1  UNL     1      50.545  -9.381   7.540  1.00  0.00    -0.191 NA
HETATM    2  C1  UNL     1      49.817 -10.018   8.165  1.00  0.00     0.104 C 
HETATM    3  C2  UNL     1      48.893 -10.788   8.981  1.00  0.00     0.105 A 
HETATM    4  C3  UNL     1      48.353 -10.151  10.101  1.00  0.00     0.132 A 
HETATM    5  N2  UNL     1      47.505 -10.852  10.853  1.00  0.00    -0.200 N 
ATOM      6  H2  UNL     1      47.089 -10.421  11.678  1.00  0.00     0.183 HD
HETATM    7  C4  UNL     1      47.187 -12.139  10.531  1.00  0.00     0.684 A 
HETATM    8  N4  UNL     1      47.700 -12.740   9.471  1.00  0.00    -0.175 N 
ATOM      9  H4  UNL     1      47.436 -13.703   9.265  1.00  0.00     0.186 HD
HETATM   10  C11 UNL     1      48.592 -12.085   8.630  1.00  0.00     0.143 A 
HETATM   11  N5  UNL     1      49.026 -12.730   7.653  1.00  0.00    -0.341 N 
ATOM     12  H5  UNL     1      48.622 -13.666   7.655  1.00  0.00     0.167 HD
ENDROOT
BRANCH  11  13
HETATM   13  C12 UNL     1      49.850 -12.597   6.598  1.00  0.00     0.034 A 
HETATM   14  C13 UNL     1      49.343 -12.287   5.336  1.00  0.00     0.030 A 
HETATM   15  C14 UNL     1      50.161 -12.173   4.244  1.00  0.00     0.020 A 
HETATM   16  C15 UNL     1      51.522 -12.359   4.337  1.00  0.00     0.048 A 
HETATM   17  C16 UNL     1      52.032 -12.667   5.583  1.00  0.00     0.050 A 
HETATM   18  C19 UNL     1      52.639 -12.313   3.402  1.00  0.00     0.259 A 
HETATM   19  C17 UNL     1      51.223 -12.785   6.689  1.00  0.00     0.047 A 
HETATM   20  C18 UNL     1      53.476 -12.821   5.466  1.00  0.00     0.259 A 
HETATM   21  O1  UNL     1      54.255 -13.105   6.417  1.00  0.00    -0.267 OA
HETATM   22  N6  UNL     1      53.838 -12.599   4.105  1.00  0.00    -0.289 N 
ATOM     23  H6  UNL     1      54.779 -12.638   3.712  1.00  0.00     0.172 HD
HETATM   24  O2  UNL     1      52.589 -12.066   2.177  1.00  0.00    -0.267 OA
ENDBRANCH  11  13
BRANCH   7  25
HETATM   25  N3  UNL     1      46.366 -12.817  11.258  1.00  0.00    -0.192 N 
ATOM     26  H3  UNL     1      45.361 -12.779  11.092  1.00  0.00     0.184 HD
BRANCH  25  27
HETATM   27  C5  UNL     1      46.908 -13.620  12.298  1.00  0.00     0.049 A 
HETATM   28  C6  UNL     1      47.325 -14.934  12.067  1.00  0.00     0.030 A 
HETATM   29  C7  UNL     1      47.850 -15.716  13.076  1.00  0.00     0.002 A 
HETATM   30  C8  UNL     1      47.970 -15.186  14.359  1.00  0.00     0.000 A 
HETATM   31  C9  UNL     1      47.558 -13.891  14.585  1.00  0.00     0.002 A 
HETATM   32  C10 UNL     1      47.028 -13.098  13.573  1.00  0.00     0.030 A 
ENDBRANCH  25  27
ENDBRANCH   7  25
TORSDOF 3
ENDMDL
MODEL 5
REMARK VINA RESULT: -8.977197775      5.711      8.961
REMARK  3 active torsions:
REMARK  status: ('A' for Active; 'I' for Inactive)
REMARK    1  A    between atoms: C4_7  and  N3_8 
REMARK    2  A    between atoms: N3_8  and  C5_10 
REMARK    3  A    between atoms: N5_19  and  C12_21 
ROOT
HETATM    1  N1  UNL     1      50.706 -11.495   4.571  1.00  0.00    -0.191 NA
HETATM    2  C1  UNL     1      50.098 -12.006   5.405  1.00  0.00     0.104 C 
HETATM    3  C2  UNL     1      49.293 -12.635   6.440  1.00  0.00     0.105 A 
HETATM    4  C3  UNL     1      47.911 -12.440   6.374  1.00  0.00     0.132 A 
HETATM    5  N2  UNL     1      47.168 -13.014   7.320  1.00  0.00    -0.200 N 
ATOM      6  H2  UNL     1      46.155 -12.897   7.305  1.00  0.00     0.183 HD
HETATM    7  C4  UNL     1      47.747 -13.758   8.307  1.00  0.00     0.684 A 
HETATM    8  N4  UNL     1      49.055 -13.940   8.366  1.00  0.00    -0.175 N 
ATOM      9  H4  UNL     1      49.448 -14.503   9.120  1.00  0.00     0.186 HD
HETATM   10  C11 UNL     1      49.907 -13.379   7.422  1.00  0.00     0.143 A 
HETATM   11  N5  UNL     1      51.128 -13.604   7.557  1.00  0.00    -0.341 N 
ATOM     12  H5  UNL     1      51.279 -14.188   8.378  1.00  0.00     0.167 HD
ENDROOT
BRANCH  11  13
HETATM   13  C12 UNL     1      52.309 -13.330   6.976  1.00  0.00     0.034 A 
HETATM   14  C13 UNL     1      53.083 -12.255   7.413  1.00  0.00     0.030 A 
HETATM   15  C14 UNL     1      54.276 -11.942   6.819  1.00  0.00     0.020 A 
HETATM   16  C15 UNL     1      54.771 -12.673   5.761  1.00  0.00     0.048 A 
HETATM   17  C16 UNL     1      54.011 -13.739   5.322  1.00  0.00     0.050 A 
HETATM   18  C19 UNL     1      55.966 -12.610   4.930  1.00  0.00     0.259 A 
HETATM   19  C17 UNL     1      52.811 -14.064   5.909  1.00  0.00     0.047 A 
HETATM   20  C18 UNL     1      54.704 -14.373   4.208  1.00  0.00     0.259 A 
HETATM   21  O1  UNL     1      54.286 -15.377   3.571  1.00  0.00    -0.267 OA
HETATM   22  N6  UNL     1      55.917 -13.659   3.976  1.00  0.00    -0.289 N 
ATOM     23  H6  UNL     1      56.615 -13.864   3.261  1.00  0.00     0.172 HD
HETATM   24  O2  UNL     1      56.901 -11.783   5.013  1.00  0.00    -0.267 OA
ENDBRANCH  11  13
BRANCH   7  25
HETATM   25  N3  UNL     1      47.029 -14.313   9.222  1.00  0.00    -0.192 N 
ATOM     26  H3  UNL     1      46.451 -15.128   9.015  1.00  0.00     0.184 HD
BRANCH  25  27
HETATM   27  C5  UNL     1      47.068 -13.755  10.528  1.00  0.00     0.049 A 
HETATM   28  C6  UNL     1      47.522 -14.491  11.626  1.00  0.00     0.030 A 
HETATM   29  C7  UNL     1      47.560 -13.951  12.895  1.00  0.00     0.002 A 
HETATM   30  C8  UNL     1      47.136 -12.638  13.092  1.00  0.00     0.000 A 
HETATM   31  C9  UNL     1      46.688 -11.914  12.009  1.00  0.00     0.002 A 
HETATM   32  C10 UNL     1      46.647 -12.452  10.728  1.00  0.00     0.030 A 
ENDBRANCH  25  27
ENDBRANCH   7  25
TORSDOF 3
ENDMDL
