MODEL 1
REMARK VINA RESULT: -8.667973568      0.000      0.000
REMARK  5 active torsions:
REMARK  status: ('A' for Active; 'I' for Inactive)
REMARK    1  A    between atoms: N1_2  and  C2_4 
REMARK    2  A    between atoms: C7_11  and  N3_12 
REMARK    3  A    between atoms: N3_12  and  C8_14 
REMARK    4  A    between atoms: C11_17  and  S1_18 
REMARK    5  A    between atoms: S1_18  and  N4_19 
ROOT
HETATM    1  C2  UNL     1      51.087 -12.092   4.514  1.00  0.00     0.225 A 
HETATM    2  N2  UNL     1      50.191 -13.103   4.624  1.00  0.00    -0.320 N 
ATOM      3  H2  UNL     1      50.062 -13.865   3.959  1.00  0.00     0.169 HD
HETATM    4  C3  UNL     1      49.508 -12.928   5.754  1.00  0.00     0.071 A 
HETATM    5  C4  UNL     1      48.494 -13.647   6.350  1.00  0.00     0.033 A 
HETATM    6  C5  UNL     1      47.965 -13.215   7.551  1.00  0.00     0.018 A 
HETATM    7  C6  UNL     1      48.423 -12.076   8.183  1.00  0.00     0.020 A 
HETATM    8  C7  UNL     1      47.895 -11.648   9.379  1.00  0.00     0.046 A 
HETATM    9  C14 UNL     1      48.410 -10.502   9.939  1.00  0.00     0.047 A 
HETATM   10  C15 UNL     1      49.428  -9.842   9.274  1.00  0.00     0.090 A 
HETATM   11  N5  UNL     1      49.926 -10.270   8.118  1.00  0.00    -0.363 N 
ATOM     12  H5  UNL     1      50.676  -9.749   7.666  1.00  0.00     0.165 HD
HETATM   13  C16 UNL     1      49.451 -11.372   7.551  1.00  0.00     0.081 A 
HETATM   14  C17 UNL     1      49.988 -11.792   6.350  1.00  0.00     0.133 A 
HETATM   15  O3  UNL     1      50.931 -11.332   5.565  1.00  0.00    -0.275 OA
ENDROOT
BRANCH   8  16
HETATM   16  N3  UNL     1      46.956 -12.304   9.942  1.00  0.00    -0.355 N 
ATOM     17  H3  UNL     1      46.001 -12.013   9.732  1.00  0.00     0.166 HD
BRANCH  16  18
HETATM   18  C8  UNL     1      47.110 -13.377  10.814  1.00  0.00     0.032 A 
HETATM   19  C9  UNL     1      47.470 -13.169  12.123  1.00  0.00     0.031 A 
HETATM   20  C10 UNL     1      47.631 -14.214  13.018  1.00  0.00     0.027 A 
HETATM   21  C11 UNL     1      47.429 -15.505  12.601  1.00  0.00     0.079 A 
HETATM   22  C12 UNL     1      47.068 -15.718  11.290  1.00  0.00     0.027 A 
HETATM   23  C13 UNL     1      46.904 -14.667  10.385  1.00  0.00     0.031 A 
BRANCH  21  24
HETATM   24  S1  UNL     1      47.620 -16.866  13.692  1.00  0.00     0.256 S 
HETATM   25  O1  UNL     1      46.410 -17.763  13.608  1.00  0.00    -0.201 OA
HETATM   26  O2  UNL     1      47.667 -16.371  15.128  1.00  0.00    -0.201 OA
BRANCH  24  27
HETATM   27  N4  UNL     1      49.051 -17.724  13.321  1.00  0.00    -0.324 N 
ATOM     28  H42 UNL     1      49.450 -17.794  12.385  1.00  0.00     0.169 HD
ATOM     29  H41 UNL     1      49.437 -18.148  14.164  1.00  0.00     0.169 HD
ENDBRANCH  24  27
ENDBRANCH  21  24
ENDBRANCH  16  18
ENDBRANCH   8  16
BRANCH   1  30
HETATM   30  N1  UNL     1      51.930 -11.941   3.523  1.00  0.00    -0.360 N 
HETATM   31  C1  UNL     1      51.983 -12.979   2.512  1.00  0.00     0.150 C 
ATOM     32  H1  UNL     1      52.531 -11.119   3.465  1.00  0.00     0.162 HD
ENDBRANCH   1  30
TORSDOF 5
ENDMDL
MODEL 2
REMARK VINA RESULT: -8.554496568      1.773      2.074
REMARK  5 active torsions:
REMARK  status: ('A' for Active; 'I' for Inactive)
REMARK    1  A    between atoms: N1_2  and  C2_4 
REMARK    2  A    between atoms: C7_11  and  N3_12 
REMARK    3  A    between atoms: N3_12  and  C8_14 
REMARK    4  A    between atoms: C11_17  and  S1_18 
REMARK    5  A    between atoms: S1_18  and  N4_19 
ROOT
HETATM    1  C2  UNL     1      50.740 -13.025   3.704  1.00  0.00     0.225 A 
HETATM    2  N2  UNL     1      51.309 -13.862   4.606  1.00  0.00    -0.320 N 
ATOM      3  H2  UNL     1      52.038 -14.548   4.410  1.00  0.00     0.169 HD
HETATM    4  C3  UNL     1      50.750 -13.633   5.793  1.00  0.00     0.071 A 
HETATM    5  C4  UNL     1      50.948 -14.189   7.038  1.00  0.00     0.033 A 
HETATM    6  C5  UNL     1      50.204 -13.741   8.113  1.00  0.00     0.018 A 
HETATM    7  C6  UNL     1      49.261 -12.741   7.981  1.00  0.00     0.020 A 
HETATM    8  C7  UNL     1      48.522 -12.295   9.052  1.00  0.00     0.046 A 
HETATM    9  C14 UNL     1      47.602 -11.295   8.832  1.00  0.00     0.047 A 
HETATM   10  C15 UNL     1      47.469 -10.793   7.550  1.00  0.00     0.090 A 
HETATM   11  N5  UNL     1      48.191 -11.236   6.526  1.00  0.00    -0.363 N 
ATOM     12  H5  UNL     1      48.057 -10.833   5.599  1.00  0.00     0.165 HD
HETATM   13  C16 UNL     1      49.087 -12.199   6.704  1.00  0.00     0.081 A 
HETATM   14  C17 UNL     1      49.822 -12.640   5.623  1.00  0.00     0.133 A 
HETATM   15  O3  UNL     1      49.858 -12.313   4.353  1.00  0.00    -0.275 OA
ENDROOT
BRANCH   8  16
HETATM   16  N3  UNL     1      48.694 -12.802  10.211  1.00  0.00    -0.355 N 
ATOM     17  H3  UNL     1      49.277 -12.277  10.861  1.00  0.00     0.166 HD
BRANCH  16  18
HETATM   18  C8  UNL     1      48.162 -14.003  10.671  1.00  0.00     0.032 A 
HETATM   19  C9  UNL     1      48.986 -15.012  11.106  1.00  0.00     0.031 A 
HETATM   20  C10 UNL     1      48.490 -16.220  11.571  1.00  0.00     0.027 A 
HETATM   21  C11 UNL     1      47.136 -16.431  11.605  1.00  0.00     0.079 A 
HETATM   22  C12 UNL     1      46.307 -15.422  11.171  1.00  0.00     0.027 A 
HETATM   23  C13 UNL     1      46.802 -14.204  10.702  1.00  0.00     0.031 A 
BRANCH  21  24
HETATM   24  S1  UNL     1      46.454 -17.941  12.185  1.00  0.00     0.256 S 
HETATM   25  O1  UNL     1      46.373 -17.922  13.690  1.00  0.00    -0.201 OA
HETATM   26  O2  UNL     1      47.384 -19.092  11.836  1.00  0.00    -0.201 OA
BRANCH  24  27
HETATM   27  N4  UNL     1      44.914 -18.200  11.486  1.00  0.00    -0.324 N 
ATOM     28  H42 UNL     1      44.078 -17.673  11.736  1.00  0.00     0.169 HD
ATOM     29  H41 UNL     1      44.962 -18.948  10.796  1.00  0.00     0.169 HD
ENDBRANCH  24  27
ENDBRANCH  21  24
ENDBRANCH  16  18
ENDBRANCH   8  16
BRANCH   1  30
HETATM   30  N1  UNL     1      51.045 -12.973   2.432  1.00  0.00    -0.360 N 
HETATM   31  C1  UNL     1      52.448 -13.020   2.066  1.00  0.00     0.150 C 
ATOM     32  H1  UNL     1      50.318 -12.901   1.720  1.00  0.00     0.162 HD
ENDBRANCH   1  30
TORSDOF 5
ENDMDL
MODEL 3
REMARK VINA RESULT: -8.444316184      2.781      4.139
REMARK  5 active torsions:
REMARK  status: ('A' for Active; 'I' for Inactive)
REMARK    1  A    between atoms: N1_2  and  C2_4 
REMARK    2  A    between atoms: C7_11  and  N3_12 
REMARK    3  A    between atoms: N3_12  and  C8_14 
REMARK    4  A    between atoms: C11_17  and  S1_18 
REMARK    5  A    between atoms: S1_18  and  N4_19 
ROOT
HETATM    1  C2  UNL     1      52.863 -13.883   1.856  1.00  0.00     0.225 A 
HETATM    2  N2  UNL     1      51.592 -13.413   1.848  1.00  0.00    -0.320 N 
ATOM      3  H2  UNL     1      50.939 -13.466   1.066  1.00  0.00     0.169 HD
HETATM    4  C3  UNL     1      51.345 -12.869   3.038  1.00  0.00     0.071 A 
HETATM    5  C4  UNL     1      50.231 -12.255   3.567  1.00  0.00     0.033 A 
HETATM    6  C5  UNL     1      50.265 -11.776   4.863  1.00  0.00     0.018 A 
HETATM    7  C6  UNL     1      51.389 -11.895   5.655  1.00  0.00     0.020 A 
HETATM    8  C7  UNL     1      51.422 -11.418   6.945  1.00  0.00     0.046 A 
HETATM    9  C14 UNL     1      52.584 -11.579   7.665  1.00  0.00     0.047 A 
HETATM   10  C15 UNL     1      53.655 -12.208   7.056  1.00  0.00     0.090 A 
HETATM   11  N5  UNL     1      53.606 -12.663   5.808  1.00  0.00    -0.363 N 
ATOM     12  H5  UNL     1      54.422 -13.120   5.403  1.00  0.00     0.165 HD
HETATM   13  C16 UNL     1      52.501 -12.524   5.087  1.00  0.00     0.081 A 
HETATM   14  C17 UNL     1      52.479 -13.005   3.793  1.00  0.00     0.133 A 
HETATM   15  O3  UNL     1      53.357 -13.619   3.036  1.00  0.00    -0.275 OA
ENDROOT
BRANCH   8  16
HETATM   16  N3  UNL     1      50.398 -10.846   7.448  1.00  0.00    -0.355 N 
ATOM     17  H3  UNL     1      50.141  -9.938   7.061  1.00  0.00     0.166 HD
BRANCH  16  18
HETATM   18  C8  UNL     1      49.599 -11.342   8.474  1.00  0.00     0.032 A 
HETATM   19  C9  UNL     1      48.866 -10.490   9.264  1.00  0.00     0.031 A 
HETATM   20  C10 UNL     1      48.060 -10.951  10.293  1.00  0.00     0.027 A 
HETATM   21  C11 UNL     1      47.979 -12.297  10.545  1.00  0.00     0.079 A 
HETATM   22  C12 UNL     1      48.711 -13.153   9.754  1.00  0.00     0.027 A 
HETATM   23  C13 UNL     1      49.524 -12.693   8.717  1.00  0.00     0.031 A 
BRANCH  21  24
HETATM   24  S1  UNL     1      46.974 -12.934  11.835  1.00  0.00     0.256 S 
HETATM   25  O1  UNL     1      45.518 -12.760  11.483  1.00  0.00    -0.201 OA
HETATM   26  O2  UNL     1      47.191 -12.123  13.103  1.00  0.00    -0.201 OA
BRANCH  24  27
HETATM   27  N4  UNL     1      47.350 -14.577  12.118  1.00  0.00    -0.324 N 
ATOM     28  H42 UNL     1      46.663 -15.331  12.103  1.00  0.00     0.169 HD
ATOM     29  H41 UNL     1      48.347 -14.685  12.302  1.00  0.00     0.169 HD
ENDBRANCH  24  27
ENDBRANCH  21  24
ENDBRANCH  16  18
ENDBRANCH   8  16
BRANCH   1  30
HETATM   30  N1  UNL     1      53.449 -14.482   0.849  1.00  0.00    -0.360 N 
HETATM   31  C1  UNL     1      52.742 -14.532  -0.416  1.00  0.00     0.150 C 
ATOM     32  H1  UNL     1      54.373 -14.900   0.952  1.00  0.00     0.162 HD
ENDBRANCH   1  30
TORSDOF 5
ENDMDL
MODEL 4
REMARK VINA RESULT: -8.380870701      0.808      1.285
REMARK  5 active torsions:
REMARK  status: ('A' for Active; 'I' for Inactive)
REMARK    1  A    between atoms: N1_2  and  C2_4 
REMARK    2  A    between atoms: C7_11  and  N3_12 
REMARK    3  A    between atoms: N3_12  and  C8_14 
REMARK    4  A    between atoms: C11_17  and  S1_18 
REMARK    5  A    between atoms: S1_18  and  N4_19 
ROOT
HETATM    1  C2  UNL     1      51.372 -12.281   4.377  1.00  0.00     0.225 A 
HETATM    2  N2  UNL     1      50.458 -13.275   4.490  1.00  0.00    -0.320 N 
ATOM      3  H2  UNL     1      50.340 -14.057   3.847  1.00  0.00     0.169 HD
HETATM    4  C3  UNL     1      49.740 -13.052   5.590  1.00  0.00     0.071 A 
HETATM    5  C4  UNL     1      48.696 -13.736   6.174  1.00  0.00     0.033 A 
HETATM    6  C5  UNL     1      48.134 -13.257   7.342  1.00  0.00     0.018 A 
HETATM    7  C6  UNL     1      48.587 -12.103   7.951  1.00  0.00     0.020 A 
HETATM    8  C7  UNL     1      48.027 -11.627   9.113  1.00  0.00     0.046 A 
HETATM    9  C14 UNL     1      48.540 -10.470   9.652  1.00  0.00     0.047 A 
HETATM   10  C15 UNL     1      49.589  -9.847   9.000  1.00  0.00     0.090 A 
HETATM   11  N5  UNL     1      50.119 -10.321   7.877  1.00  0.00    -0.363 N 
ATOM     12  H5  UNL     1      50.892  -9.827   7.433  1.00  0.00     0.165 HD
HETATM   13  C16 UNL     1      49.647 -11.435   7.331  1.00  0.00     0.081 A 
HETATM   14  C17 UNL     1      50.217 -11.903   6.164  1.00  0.00     0.133 A 
HETATM   15  O3  UNL     1      51.193 -11.483   5.396  1.00  0.00    -0.275 OA
ENDROOT
BRANCH   8  16
HETATM   16  N3  UNL     1      47.059 -12.250   9.665  1.00  0.00    -0.355 N 
ATOM     17  H3  UNL     1      46.118 -11.925   9.447  1.00  0.00     0.166 HD
BRANCH  16  18
HETATM   18  C8  UNL     1      47.166 -13.331  10.536  1.00  0.00     0.032 A 
HETATM   19  C9  UNL     1      46.684 -14.567  10.179  1.00  0.00     0.031 A 
HETATM   20  C10 UNL     1      46.774 -15.664  11.022  1.00  0.00     0.027 A 
HETATM   21  C11 UNL     1      47.360 -15.529  12.255  1.00  0.00     0.079 A 
HETATM   22  C12 UNL     1      47.844 -14.292  12.615  1.00  0.00     0.027 A 
HETATM   23  C13 UNL     1      47.755 -13.185  11.769  1.00  0.00     0.031 A 
BRANCH  21  24
HETATM   24  S1  UNL     1      47.501 -16.884  13.361  1.00  0.00     0.256 S 
HETATM   25  O1  UNL     1      47.423 -16.393  14.785  1.00  0.00    -0.201 OA
HETATM   26  O2  UNL     1      48.874 -17.522  13.220  1.00  0.00    -0.201 OA
BRANCH  24  27
HETATM   27  N4  UNL     1      46.282 -18.039  13.038  1.00  0.00    -0.324 N 
ATOM     28  H42 UNL     1      46.164 -18.906  13.560  1.00  0.00     0.169 HD
ATOM     29  H41 UNL     1      45.702 -17.731  12.258  1.00  0.00     0.169 HD
ENDBRANCH  24  27
ENDBRANCH  21  24
ENDBRANCH  16  18
ENDBRANCH   8  16
BRANCH   1  30
HETATM   30  N1  UNL     1      52.250 -12.176   3.411  1.00  0.00    -0.360 N 
HETATM   31  C1  UNL     1      52.050 -12.977   2.219  1.00  0.00     0.150 C 
ATOM     32  H1  UNL     1      53.050 -11.549   3.494  1.00  0.00     0.162 HD
ENDBRANCH   1  30
TORSDOF 5
ENDMDL
MODEL 5
REMARK VINA RESULT: -8.314694438      2.805      8.287
REMARK  5 active torsions:
REMARK  status: ('A' for Active; 'I' for Inactive)
REMARK    1  A    between atoms: N1_2  and  C2_4 
REMARK    2  A    between atoms: C7_11  and  N3_12 
REMARK    3  A    between atoms: N3_12  and  C8_14 
REMARK    4  A    between atoms: C11_17  and  S1_18 
REMARK    5  A    between atoms: S1_18  and  N4_19 
ROOT
HETATM    1  C2  UNL     1      48.161 -16.559  15.042  1.00  0.00     0.225 A 
HETATM    2  N2  UNL     1      48.044 -17.220  13.864  1.00  0.00    -0.320 N 
ATOM      3  H2  UNL     1      48.159 -18.224  13.727  1.00  0.00     0.169 HD
HETATM    4  C3  UNL     1      47.754 -16.330  12.918  1.00  0.00     0.071 A 
HETATM    5  C4  UNL     1      47.531 -16.451  11.563  1.00  0.00     0.033 A 
HETATM    6  C5  UNL     1      47.244 -15.326  10.814  1.00  0.00     0.018 A 
HETATM    7  C6  UNL     1      47.170 -14.070  11.384  1.00  0.00     0.020 A 
HETATM    8  C7  UNL     1      46.884 -12.950  10.638  1.00  0.00     0.046 A 
HETATM    9  C14 UNL     1      46.830 -11.738  11.285  1.00  0.00     0.047 A 
HETATM   10  C15 UNL     1      47.067 -11.707  12.648  1.00  0.00     0.090 A 
HETATM   11  N5  UNL     1      47.342 -12.798  13.354  1.00  0.00    -0.363 N 
ATOM     12  H5  UNL     1      47.509 -12.725  14.357  1.00  0.00     0.165 HD
HETATM   13  C16 UNL     1      47.401 -13.984  12.760  1.00  0.00     0.081 A 
HETATM   14  C17 UNL     1      47.690 -15.100  13.518  1.00  0.00     0.133 A 
HETATM   15  O3  UNL     1      47.942 -15.296  14.790  1.00  0.00    -0.275 OA
ENDROOT
BRANCH   8  16
HETATM   16  N3  UNL     1      46.676 -13.048   9.382  1.00  0.00    -0.355 N 
ATOM     17  H3  UNL     1      45.767 -13.407   9.092  1.00  0.00     0.166 HD
BRANCH  16  18
HETATM   18  C8  UNL     1      47.570 -12.710   8.370  1.00  0.00     0.032 A 
HETATM   19  C9  UNL     1      48.483 -13.627   7.909  1.00  0.00     0.031 A 
HETATM   20  C10 UNL     1      49.388 -13.324   6.904  1.00  0.00     0.027 A 
HETATM   21  C11 UNL     1      49.386 -12.074   6.340  1.00  0.00     0.079 A 
HETATM   22  C12 UNL     1      48.472 -11.153   6.799  1.00  0.00     0.027 A 
HETATM   23  C13 UNL     1      47.560 -11.454   7.812  1.00  0.00     0.031 A 
BRANCH  21  24
HETATM   24  S1  UNL     1      50.508 -11.637   5.064  1.00  0.00     0.256 S 
HETATM   25  O1  UNL     1      50.476 -10.146   4.842  1.00  0.00    -0.201 OA
HETATM   26  O2  UNL     1      50.061 -12.258   3.750  1.00  0.00    -0.201 OA
BRANCH  24  27
HETATM   27  N4  UNL     1      52.085 -12.169   5.457  1.00  0.00    -0.324 N 
ATOM     28  H42 UNL     1      52.352 -12.541   6.367  1.00  0.00     0.169 HD
ATOM     29  H41 UNL     1      52.704 -12.059   4.654  1.00  0.00     0.169 HD
ENDBRANCH  24  27
ENDBRANCH  21  24
ENDBRANCH  16  18
ENDBRANCH   8  16
BRANCH   1  30
HETATM   30  N1  UNL     1      48.442 -17.118  16.192  1.00  0.00    -0.360 N 
HETATM   31  C1  UNL     1      49.822 -17.104  16.637  1.00  0.00     0.150 C 
ATOM     32  H1  UNL     1      47.712 -17.550  16.758  1.00  0.00     0.162 HD
ENDBRANCH   1  30
TORSDOF 5
ENDMDL
