MODEL 1
REMARK VINA RESULT: -9.531561685      0.000      0.000
REMARK  5 active torsions:
REMARK  status: ('A' for Active; 'I' for Inactive)
REMARK    1  A    between atoms: N1_2  and  C2_4 
REMARK    2  A    between atoms: C3_9  and  N4_10 
REMARK    3  A    between atoms: N4_10  and  C4_12 
REMARK    4  A    between atoms: C12_23  and  N7_24 
REMARK    5  A    between atoms: N7_24  and  C13_26 
ROOT
HETATM    1  C4  UNL     1      50.055 -15.119   8.845  1.00  0.00     0.035 A 
HETATM    2  C5  UNL     1      50.906 -16.200   8.927  1.00  0.00     0.029 A 
HETATM    3  C6  UNL     1      52.186 -16.123   8.399  1.00  0.00     0.004 A 
HETATM    4  C7  UNL     1      52.608 -14.947   7.784  1.00  0.00     0.023 A 
HETATM    5  C8  UNL     1      51.772 -13.853   7.691  1.00  0.00     0.046 A 
HETATM    6  C9  UNL     1      52.216 -12.628   7.049  1.00  0.00     0.099 C 
HETATM    7  N5  UNL     1      52.582 -11.649   6.549  1.00  0.00    -0.191 NA
HETATM    8  C10 UNL     1      50.514 -13.974   8.228  1.00  0.00     0.052 A 
ENDROOT
BRANCH   1   9
HETATM    9  N4  UNL     1      48.758 -15.227   9.392  1.00  0.00    -0.340 N 
ATOM     10  H4  UNL     1      47.966 -15.193   8.751  1.00  0.00     0.167 HD
BRANCH   9  11
HETATM   11  C3  UNL     1      48.511 -15.364  10.642  1.00  0.00     0.149 A 
HETATM   12  N3  UNL     1      48.616 -16.533  11.290  1.00  0.00    -0.282 N 
HETATM   13  N2  UNL     1      48.363 -16.672  12.564  1.00  0.00    -0.283 N 
ATOM     14  H3  UNL     1      48.907 -17.356  10.762  1.00  0.00     0.188 HD
HETATM   15  C2  UNL     1      47.962 -15.581  13.331  1.00  0.00     0.133 A 
ATOM     16  H2  UNL     1      48.460 -17.589  13.001  1.00  0.00     0.188 HD
HETATM   17  C20 UNL     1      47.847 -14.356  12.682  1.00  0.00     0.056 A 
HETATM   18  C11 UNL     1      48.119 -14.243  11.343  1.00  0.00     0.110 A 
HETATM   19  C19 UNL     1      47.457 -13.214  13.347  1.00  0.00     0.123 A 
HETATM   20  N6  UNL     1      48.009 -13.041  10.690  1.00  0.00    -0.187 N 
HETATM   21  C12 UNL     1      47.630 -11.935  11.343  1.00  0.00     0.683 A 
ATOM     22  H6  UNL     1      48.220 -12.989   9.694  1.00  0.00     0.184 HD
HETATM   23  N8  UNL     1      47.365 -12.045  12.647  1.00  0.00    -0.201 N 
ATOM     24  H8  UNL     1      47.076 -11.206  13.150  1.00  0.00     0.183 HD
BRANCH  15  25
HETATM   25  N1  UNL     1      47.736 -15.746  14.514  1.00  0.00    -0.360 N 
HETATM   26  C1  UNL     1      48.009 -16.142  15.775  1.00  0.00     0.120 C 
ATOM     27  H1  UNL     1      46.796 -15.361  14.608  1.00  0.00     0.165 HD
ENDBRANCH  15  25
BRANCH  21  28
HETATM   28  N7  UNL     1      47.519 -10.788  10.748  1.00  0.00    -0.192 N 
ATOM     29  H7  UNL     1      47.025 -10.035  11.228  1.00  0.00     0.184 HD
BRANCH  28  30
HETATM   30  C13 UNL     1      48.052 -10.536   9.461  1.00  0.00     0.049 A 
HETATM   31  C14 UNL     1      47.266 -10.850   8.367  1.00  0.00     0.030 A 
HETATM   32  C15 UNL     1      47.779 -10.605   7.101  1.00  0.00     0.002 A 
HETATM   33  C16 UNL     1      49.035 -10.065   6.952  1.00  0.00     0.000 A 
HETATM   34  C17 UNL     1      49.794  -9.764   8.064  1.00  0.00     0.002 A 
HETATM   35  C18 UNL     1      49.308  -9.996   9.333  1.00  0.00     0.030 A 
ENDBRANCH  28  30
ENDBRANCH  21  28
ENDBRANCH   9  11
ENDBRANCH   1   9
TORSDOF 5
ENDMDL
MODEL 2
REMARK VINA RESULT: -9.519694118      1.192      1.667
REMARK  5 active torsions:
REMARK  status: ('A' for Active; 'I' for Inactive)
REMARK    1  A    between atoms: N1_2  and  C2_4 
REMARK    2  A    between atoms: C3_9  and  N4_10 
REMARK    3  A    between atoms: N4_10  and  C4_12 
REMARK    4  A    between atoms: C12_23  and  N7_24 
REMARK    5  A    between atoms: N7_24  and  C13_26 
ROOT
HETATM    1  C4  UNL     1      50.014 -14.836   8.719  1.00  0.00     0.035 A 
HETATM    2  C5  UNL     1      50.201 -13.590   8.160  1.00  0.00     0.029 A 
HETATM    3  C6  UNL     1      51.432 -13.242   7.626  1.00  0.00     0.004 A 
HETATM    4  C7  UNL     1      52.481 -14.158   7.658  1.00  0.00     0.023 A 
HETATM    5  C8  UNL     1      52.315 -15.410   8.213  1.00  0.00     0.046 A 
HETATM    6  C9  UNL     1      53.412 -16.363   8.244  1.00  0.00     0.099 C 
HETATM    7  N5  UNL     1      54.286 -17.123   8.253  1.00  0.00    -0.191 NA
HETATM    8  C10 UNL     1      51.079 -15.712   8.729  1.00  0.00     0.052 A 
ENDROOT
BRANCH   1   9
HETATM    9  N4  UNL     1      48.749 -15.162   9.254  1.00  0.00    -0.340 N 
ATOM     10  H4  UNL     1      47.976 -15.297   8.603  1.00  0.00     0.167 HD
BRANCH   9  11
HETATM   11  C3  UNL     1      48.509 -15.301  10.504  1.00  0.00     0.149 A 
HETATM   12  N3  UNL     1      48.610 -16.473  11.149  1.00  0.00    -0.282 N 
HETATM   13  N2  UNL     1      48.363 -16.612  12.425  1.00  0.00    -0.283 N 
ATOM     14  H3  UNL     1      48.893 -17.295  10.617  1.00  0.00     0.188 HD
HETATM   15  C2  UNL     1      47.974 -15.521  13.196  1.00  0.00     0.133 A 
ATOM     16  H2  UNL     1      48.457 -17.531  12.859  1.00  0.00     0.188 HD
HETATM   17  C20 UNL     1      47.862 -14.294  12.551  1.00  0.00     0.056 A 
HETATM   18  C11 UNL     1      48.127 -14.179  11.210  1.00  0.00     0.110 A 
HETATM   19  C19 UNL     1      47.483 -13.151  13.220  1.00  0.00     0.123 A 
HETATM   20  N6  UNL     1      48.020 -12.975  10.561  1.00  0.00    -0.187 N 
HETATM   21  C12 UNL     1      47.652 -11.868  11.218  1.00  0.00     0.683 A 
ATOM     22  H6  UNL     1      48.225 -12.923   9.563  1.00  0.00     0.184 HD
HETATM   23  N8  UNL     1      47.394 -11.980  12.524  1.00  0.00    -0.201 N 
ATOM     24  H8  UNL     1      47.113 -11.140  13.030  1.00  0.00     0.183 HD
BRANCH  15  25
HETATM   25  N1  UNL     1      47.754 -15.687  14.380  1.00  0.00    -0.360 N 
HETATM   26  C1  UNL     1      48.035 -16.079  15.640  1.00  0.00     0.120 C 
ATOM     27  H1  UNL     1      46.810 -15.313  14.477  1.00  0.00     0.165 HD
ENDBRANCH  15  25
BRANCH  21  28
HETATM   28  N7  UNL     1      47.544 -10.720  10.627  1.00  0.00    -0.192 N 
ATOM     29  H7  UNL     1      47.010  -9.982  11.087  1.00  0.00     0.184 HD
BRANCH  28  30
HETATM   30  C13 UNL     1      48.135 -10.445   9.370  1.00  0.00     0.049 A 
HETATM   31  C14 UNL     1      47.413 -10.769   8.236  1.00  0.00     0.030 A 
HETATM   32  C15 UNL     1      47.983 -10.502   6.999  1.00  0.00     0.002 A 
HETATM   33  C16 UNL     1      49.231  -9.931   6.917  1.00  0.00     0.000 A 
HETATM   34  C17 UNL     1      49.925  -9.620   8.068  1.00  0.00     0.002 A 
HETATM   35  C18 UNL     1      49.383  -9.874   9.310  1.00  0.00     0.030 A 
ENDBRANCH  28  30
ENDBRANCH  21  28
ENDBRANCH   9  11
ENDBRANCH   1   9
TORSDOF 5
ENDMDL
MODEL 3
REMARK VINA RESULT: -9.399795934      1.602      2.047
REMARK  5 active torsions:
REMARK  status: ('A' for Active; 'I' for Inactive)
REMARK    1  A    between atoms: N1_2  and  C2_4 
REMARK    2  A    between atoms: C3_9  and  N4_10 
REMARK    3  A    between atoms: N4_10  and  C4_12 
REMARK    4  A    between atoms: C12_23  and  N7_24 
REMARK    5  A    between atoms: N7_24  and  C13_26 
ROOT
HETATM    1  C4  UNL     1      50.032 -14.458   7.733  1.00  0.00     0.035 A 
HETATM    2  C5  UNL     1      48.793 -14.906   7.329  1.00  0.00     0.029 A 
HETATM    3  C6  UNL     1      48.233 -14.443   6.148  1.00  0.00     0.004 A 
HETATM    4  C7  UNL     1      48.930 -13.521   5.371  1.00  0.00     0.023 A 
HETATM    5  C8  UNL     1      50.171 -13.059   5.757  1.00  0.00     0.046 A 
HETATM    6  C9  UNL     1      50.895 -12.096   4.943  1.00  0.00     0.099 C 
HETATM    7  N5  UNL     1      51.473 -11.341   4.282  1.00  0.00    -0.191 NA
HETATM    8  C10 UNL     1      50.687 -13.545   6.933  1.00  0.00     0.052 A 
ENDROOT
BRANCH   1   9
HETATM    9  N4  UNL     1      50.576 -14.948   8.940  1.00  0.00    -0.340 N 
ATOM     10  H4  UNL     1      51.586 -14.884   9.068  1.00  0.00     0.167 HD
BRANCH   9  11
HETATM   11  C3  UNL     1      49.884 -15.466   9.885  1.00  0.00     0.149 A 
HETATM   12  N3  UNL     1      49.968 -16.758  10.237  1.00  0.00    -0.282 N 
HETATM   13  N2  UNL     1      49.261 -17.285  11.201  1.00  0.00    -0.283 N 
ATOM     14  H3  UNL     1      50.616 -17.358   9.727  1.00  0.00     0.188 HD
HETATM   15  C2  UNL     1      48.363 -16.510  11.928  1.00  0.00     0.133 A 
ATOM     16  H2  UNL     1      49.369 -18.275  11.422  1.00  0.00     0.188 HD
HETATM   17  C20 UNL     1      48.258 -15.167  11.583  1.00  0.00     0.056 A 
HETATM   18  C11 UNL     1      49.013 -14.642  10.565  1.00  0.00     0.110 A 
HETATM   19  C19 UNL     1      47.399 -14.312  12.238  1.00  0.00     0.123 A 
HETATM   20  N6  UNL     1      48.919 -13.319  10.214  1.00  0.00    -0.187 N 
HETATM   21  C12 UNL     1      48.082 -12.494  10.856  1.00  0.00     0.683 A 
ATOM     22  H6  UNL     1      49.495 -12.959   9.453  1.00  0.00     0.184 HD
HETATM   23  N8  UNL     1      47.346 -13.005  11.846  1.00  0.00    -0.201 N 
ATOM     24  H8  UNL     1      46.707 -12.381  12.339  1.00  0.00     0.183 HD
BRANCH  15  25
HETATM   25  N1  UNL     1      47.723 -17.033  12.819  1.00  0.00    -0.360 N 
HETATM   26  C1  UNL     1      46.986 -18.005  13.397  1.00  0.00     0.120 C 
ATOM     27  H1  UNL     1      47.769 -16.331  13.557  1.00  0.00     0.165 HD
ENDBRANCH  15  25
BRANCH  21  28
HETATM   28  N7  UNL     1      47.975 -11.241  10.541  1.00  0.00    -0.192 N 
ATOM     29  H7  UNL     1      47.630 -10.588  11.246  1.00  0.00     0.184 HD
BRANCH  28  30
HETATM   30  C13 UNL     1      48.316 -10.738   9.262  1.00  0.00     0.049 A 
HETATM   31  C14 UNL     1      47.420 -10.948   8.230  1.00  0.00     0.030 A 
HETATM   32  C15 UNL     1      47.744 -10.458   6.973  1.00  0.00     0.002 A 
HETATM   33  C16 UNL     1      48.926  -9.784   6.772  1.00  0.00     0.000 A 
HETATM   34  C17 UNL     1      49.798  -9.592   7.824  1.00  0.00     0.002 A 
HETATM   35  C18 UNL     1      49.501 -10.068   9.083  1.00  0.00     0.030 A 
ENDBRANCH  28  30
ENDBRANCH  21  28
ENDBRANCH   9  11
ENDBRANCH   1   9
TORSDOF 5
ENDMDL
MODEL 4
REMARK VINA RESULT: -9.219427431      1.561      4.436
REMARK  5 active torsions:
REMARK  status: ('A' for Active; 'I' for Inactive)
REMARK    1  A    between atoms: N1_2  and  C2_4 
REMARK    2  A    between atoms: C3_9  and  N4_10 
REMARK    3  A    between atoms: N4_10  and  C4_12 
REMARK    4  A    between atoms: C12_23  and  N7_24 
REMARK    5  A    between atoms: N7_24  and  C13_26 
ROOT
HETATM    1  C4  UNL     1      48.437 -10.725   8.366  1.00  0.00     0.035 A 
HETATM    2  C5  UNL     1      49.365  -9.867   8.914  1.00  0.00     0.029 A 
HETATM    3  C6  UNL     1      50.505  -9.524   8.202  1.00  0.00     0.004 A 
HETATM    4  C7  UNL     1      50.707 -10.053   6.930  1.00  0.00     0.023 A 
HETATM    5  C8  UNL     1      49.790 -10.914   6.363  1.00  0.00     0.046 A 
HETATM    6  C9  UNL     1      50.005 -11.463   5.035  1.00  0.00     0.099 C 
HETATM    7  N5  UNL     1      50.174 -11.885   3.970  1.00  0.00    -0.191 NA
HETATM    8  C10 UNL     1      48.677 -11.225   7.103  1.00  0.00     0.052 A 
ENDROOT
BRANCH   1   9
HETATM    9  N4  UNL     1      47.286 -11.056   9.115  1.00  0.00    -0.340 N 
ATOM     10  H4  UNL     1      46.376 -10.823   8.717  1.00  0.00     0.167 HD
BRANCH   9  11
HETATM   11  C3  UNL     1      47.310 -11.628  10.260  1.00  0.00     0.149 A 
HETATM   12  N3  UNL     1      46.880 -11.043  11.387  1.00  0.00    -0.282 N 
HETATM   13  N2  UNL     1      46.906 -11.628  12.555  1.00  0.00    -0.283 N 
ATOM     14  H3  UNL     1      46.514 -10.092  11.329  1.00  0.00     0.188 HD
HETATM   15  C2  UNL     1      47.395 -12.924  12.688  1.00  0.00     0.133 A 
ATOM     16  H2  UNL     1      46.565 -11.130  13.377  1.00  0.00     0.188 HD
HETATM   17  C20 UNL     1      47.848 -13.554  11.533  1.00  0.00     0.056 A 
HETATM   18  C11 UNL     1      47.808 -12.913  10.322  1.00  0.00     0.110 A 
HETATM   19  C19 UNL     1      48.352 -14.836  11.554  1.00  0.00     0.123 A 
HETATM   20  N6  UNL     1      48.251 -13.523   9.176  1.00  0.00    -0.187 N 
HETATM   21  C12 UNL     1      48.740 -14.770   9.203  1.00  0.00     0.683 A 
ATOM     22  H6  UNL     1      48.207 -13.020   8.289  1.00  0.00     0.184 HD
HETATM   23  N8  UNL     1      48.779 -15.394  10.382  1.00  0.00    -0.201 N 
ATOM     24  H8  UNL     1      49.150 -16.344  10.410  1.00  0.00     0.183 HD
BRANCH  15  25
HETATM   25  N1  UNL     1      47.404 -13.439  13.789  1.00  0.00    -0.360 N 
HETATM   26  C1  UNL     1      47.724 -14.376  14.706  1.00  0.00     0.120 C 
ATOM     27  H1  UNL     1      46.849 -12.782  14.337  1.00  0.00     0.165 HD
ENDBRANCH  15  25
BRANCH  21  28
HETATM   28  N7  UNL     1      49.165 -15.366   8.133  1.00  0.00    -0.192 N 
ATOM     29  H7  UNL     1      48.672 -16.199   7.810  1.00  0.00     0.184 HD
BRANCH  28  30
HETATM   30  C13 UNL     1      50.284 -14.912   7.394  1.00  0.00     0.049 A 
HETATM   31  C14 UNL     1      50.419 -15.361   6.092  1.00  0.00     0.030 A 
HETATM   32  C15 UNL     1      51.511 -14.920   5.359  1.00  0.00     0.002 A 
HETATM   33  C16 UNL     1      52.426 -14.062   5.921  1.00  0.00     0.000 A 
HETATM   34  C17 UNL     1      52.262 -13.633   7.222  1.00  0.00     0.002 A 
HETATM   35  C18 UNL     1      51.186 -14.054   7.973  1.00  0.00     0.030 A 
ENDBRANCH  28  30
ENDBRANCH  21  28
ENDBRANCH   9  11
ENDBRANCH   1   9
TORSDOF 5
ENDMDL
MODEL 5
REMARK VINA RESULT: -9.079636517      1.744      2.669
REMARK  5 active torsions:
REMARK  status: ('A' for Active; 'I' for Inactive)
REMARK    1  A    between atoms: N1_2  and  C2_4 
REMARK    2  A    between atoms: C3_9  and  N4_10 
REMARK    3  A    between atoms: N4_10  and  C4_12 
REMARK    4  A    between atoms: C12_23  and  N7_24 
REMARK    5  A    between atoms: N7_24  and  C13_26 
ROOT
HETATM    1  C4  UNL     1      51.756 -14.191   7.902  1.00  0.00     0.035 A 
HETATM    2  C5  UNL     1      51.700 -12.920   7.371  1.00  0.00     0.029 A 
HETATM    3  C6  UNL     1      52.852 -12.156   7.262  1.00  0.00     0.004 A 
HETATM    4  C7  UNL     1      54.068 -12.680   7.692  1.00  0.00     0.023 A 
HETATM    5  C8  UNL     1      54.147 -13.950   8.227  1.00  0.00     0.046 A 
HETATM    6  C9  UNL     1      55.419 -14.493   8.674  1.00  0.00     0.099 C 
HETATM    7  N5  UNL     1      56.438 -14.926   9.015  1.00  0.00    -0.191 NA
HETATM    8  C10 UNL     1      52.982 -14.670   8.315  1.00  0.00     0.052 A 
ENDROOT
BRANCH   1   9
HETATM    9  N4  UNL     1      50.567 -14.944   8.000  1.00  0.00    -0.340 N 
ATOM     10  H4  UNL     1      50.007 -15.063   7.156  1.00  0.00     0.167 HD
BRANCH   9  11
HETATM   11  C3  UNL     1      50.144 -15.488   9.080  1.00  0.00     0.149 A 
HETATM   12  N3  UNL     1      50.428 -16.751   9.429  1.00  0.00    -0.282 N 
HETATM   13  N2  UNL     1      49.996 -17.305  10.530  1.00  0.00    -0.283 N 
ATOM     14  H3  UNL     1      51.011 -17.308   8.803  1.00  0.00     0.188 HD
HETATM   15  C2  UNL     1      49.198 -16.590  11.418  1.00  0.00     0.133 A 
ATOM     16  H2  UNL     1      50.246 -18.272  10.741  1.00  0.00     0.188 HD
HETATM   17  C20 UNL     1      48.889 -15.277  11.079  1.00  0.00     0.056 A 
HETATM   18  C11 UNL     1      49.357 -14.724   9.915  1.00  0.00     0.110 A 
HETATM   19  C19 UNL     1      48.106 -14.481  11.887  1.00  0.00     0.123 A 
HETATM   20  N6  UNL     1      49.060 -13.430   9.569  1.00  0.00    -0.187 N 
HETATM   21  C12 UNL     1      48.299 -12.662  10.359  1.00  0.00     0.683 A 
ATOM     22  H6  UNL     1      49.425 -13.047   8.696  1.00  0.00     0.184 HD
HETATM   23  N8  UNL     1      47.842 -13.201  11.492  1.00  0.00    -0.201 N 
ATOM     24  H8  UNL     1      47.262 -12.621  12.098  1.00  0.00     0.183 HD
BRANCH  15  25
HETATM   25  N1  UNL     1      48.814 -17.135  12.434  1.00  0.00    -0.360 N 
HETATM   26  C1  UNL     1      48.632 -18.171  13.281  1.00  0.00     0.120 C 
ATOM     27  H1  UNL     1      48.377 -16.365  12.940  1.00  0.00     0.165 HD
ENDBRANCH  15  25
BRANCH  21  28
HETATM   28  N7  UNL     1      48.004 -11.437  10.052  1.00  0.00    -0.192 N 
ATOM     29  H7  UNL     1      47.386 -10.914  10.672  1.00  0.00     0.184 HD
BRANCH  28  30
HETATM   30  C13 UNL     1      48.504 -10.794   8.894  1.00  0.00     0.049 A 
HETATM   31  C14 UNL     1      49.718 -10.140   8.995  1.00  0.00     0.030 A 
HETATM   32  C15 UNL     1      50.217  -9.508   7.865  1.00  0.00     0.002 A 
HETATM   33  C16 UNL     1      49.514  -9.538   6.684  1.00  0.00     0.000 A 
HETATM   34  C17 UNL     1      48.305 -10.199   6.616  1.00  0.00     0.002 A 
HETATM   35  C18 UNL     1      47.786 -10.836   7.723  1.00  0.00     0.030 A 
ENDBRANCH  28  30
ENDBRANCH  21  28
ENDBRANCH   9  11
ENDBRANCH   1   9
TORSDOF 5
ENDMDL
