MODEL 1
REMARK VINA RESULT: -7.396383618      0.000      0.000
REMARK  4 active torsions:
REMARK  status: ('A' for Active; 'I' for Inactive)
REMARK    1  A    between atoms: C2_3  and  C3_4 
REMARK    2  A    between atoms: C2_3  and  C10_15 
REMARK    3  A    between atoms: C3_4  and  S1_8 
REMARK    4  A    between atoms: S1_8  and  C4_9 
ROOT
HETATM    1  N1  UNL     1      42.624  74.578  63.845  1.00  0.00    -0.196 NA
HETATM    2  C1  UNL     1      41.947  73.821  63.281  1.00  0.00     0.071 C 
HETATM    3  C2  UNL     1      41.124  72.877  62.564  1.00  0.00     0.153 C 
ENDROOT
BRANCH   3   4
HETATM    4  C3  UNL     1      40.852  73.410  61.193  1.00  0.00     0.063 C 
HETATM    5  N2  UNL     1      40.025  74.347  61.060  1.00  0.00    -0.396 N 
ATOM      6  H22 UNL     1      39.525  74.768  61.843  1.00  0.00     0.156 HD
ATOM      7  H21 UNL     1      39.839  74.711  60.125  1.00  0.00     0.156 HD
BRANCH   4   8
HETATM    8  S1  UNL     1      41.710  72.685  59.847  1.00  0.00    -0.076 SA
BRANCH   8   9
HETATM    9  C4  UNL     1      40.910  71.393  58.971  1.00  0.00     0.006 A 
HETATM   10  C5  UNL     1      39.565  71.585  58.670  1.00  0.00     0.019 A 
HETATM   11  C6  UNL     1      38.822  70.664  57.995  1.00  0.00     0.001 A 
HETATM   12  C7  UNL     1      39.412  69.496  57.591  1.00  0.00     0.000 A 
HETATM   13  C8  UNL     1      40.744  69.281  57.877  1.00  0.00     0.001 A 
HETATM   14  C9  UNL     1      41.499  70.236  58.572  1.00  0.00     0.019 A 
ENDBRANCH   8   9
ENDBRANCH   4   8
ENDBRANCH   3   4
BRANCH   3  15
HETATM   15  C10 UNL     1      39.872  72.652  63.343  1.00  0.00     0.010 A 
HETATM   16  C11 UNL     1      39.893  71.305  64.087  1.00  0.00     0.007 A 
HETATM   17  C12 UNL     1      38.888  71.602  63.012  1.00  0.00     0.007 A 
ENDBRANCH   3  15
TORSDOF 4
ENDMDL
MODEL 2
REMARK VINA RESULT: -7.355341986      0.129      1.226
REMARK  4 active torsions:
REMARK  status: ('A' for Active; 'I' for Inactive)
REMARK    1  A    between atoms: C2_3  and  C3_4 
REMARK    2  A    between atoms: C2_3  and  C10_15 
REMARK    3  A    between atoms: C3_4  and  S1_8 
REMARK    4  A    between atoms: S1_8  and  C4_9 
ROOT
HETATM    1  N1  UNL     1      42.600  74.613  63.846  1.00  0.00    -0.196 NA
HETATM    2  C1  UNL     1      41.935  73.838  63.293  1.00  0.00     0.071 C 
HETATM    3  C2  UNL     1      41.126  72.870  62.589  1.00  0.00     0.153 C 
ENDROOT
BRANCH   3   4
HETATM    4  C3  UNL     1      40.853  73.377  61.208  1.00  0.00     0.063 C 
HETATM    5  N2  UNL     1      40.046  74.329  61.060  1.00  0.00    -0.396 N 
ATOM      6  H22 UNL     1      39.565  74.781  61.837  1.00  0.00     0.156 HD
ATOM      7  H21 UNL     1      39.860  74.675  60.119  1.00  0.00     0.156 HD
BRANCH   4   8
HETATM    8  S1  UNL     1      41.681  72.600  59.872  1.00  0.00    -0.076 SA
BRANCH   8   9
HETATM    9  C4  UNL     1      40.797  71.391  58.959  1.00  0.00     0.006 A 
HETATM   10  C5  UNL     1      41.506  70.255  58.581  1.00  0.00     0.019 A 
HETATM   11  C6  UNL     1      40.944  69.238  57.869  1.00  0.00     0.001 A 
HETATM   12  C7  UNL     1      39.627  69.326  57.504  1.00  0.00     0.000 A 
HETATM   13  C8  UNL     1      38.901  70.442  57.866  1.00  0.00     0.001 A 
HETATM   14  C9  UNL     1      39.490  71.482  58.599  1.00  0.00     0.019 A 
ENDBRANCH   8   9
ENDBRANCH   4   8
ENDBRANCH   3   4
BRANCH   3  15
HETATM   15  C10 UNL     1      39.875  72.643  63.367  1.00  0.00     0.010 A 
HETATM   16  C11 UNL     1      39.906  71.304  64.126  1.00  0.00     0.007 A 
HETATM   17  C12 UNL     1      38.901  71.580  63.045  1.00  0.00     0.007 A 
ENDBRANCH   3  15
TORSDOF 4
ENDMDL
MODEL 3
REMARK VINA RESULT: -7.276382536      2.452      5.464
REMARK  4 active torsions:
REMARK  status: ('A' for Active; 'I' for Inactive)
REMARK    1  A    between atoms: C2_3  and  C3_4 
REMARK    2  A    between atoms: C2_3  and  C10_15 
REMARK    3  A    between atoms: C3_4  and  S1_8 
REMARK    4  A    between atoms: S1_8  and  C4_9 
ROOT
HETATM    1  N1  UNL     1      37.729  73.172  57.706  1.00  0.00    -0.196 NA
HETATM    2  C1  UNL     1      38.186  72.232  58.212  1.00  0.00     0.071 C 
HETATM    3  C2  UNL     1      38.733  71.058  58.850  1.00  0.00     0.153 C 
ENDROOT
BRANCH   3   4
HETATM    4  C3  UNL     1      38.706  71.253  60.333  1.00  0.00     0.063 C 
HETATM    5  N2  UNL     1      38.354  70.293  61.064  1.00  0.00    -0.396 N 
ATOM      6  H22 UNL     1      38.086  69.380  60.699  1.00  0.00     0.156 HD
ATOM      7  H21 UNL     1      38.336  70.426  62.075  1.00  0.00     0.156 HD
BRANCH   4   8
HETATM    8  S1  UNL     1      39.166  72.824  60.961  1.00  0.00    -0.076 SA
BRANCH   8   9
HETATM    9  C4  UNL     1      40.812  73.021  61.536  1.00  0.00     0.006 A 
HETATM   10  C5  UNL     1      40.977  73.176  62.909  1.00  0.00     0.019 A 
HETATM   11  C6  UNL     1      42.198  73.339  63.491  1.00  0.00     0.001 A 
HETATM   12  C7  UNL     1      43.317  73.352  62.703  1.00  0.00     0.000 A 
HETATM   13  C8  UNL     1      43.181  73.200  61.338  1.00  0.00     0.001 A 
HETATM   14  C9  UNL     1      41.920  73.033  60.750  1.00  0.00     0.019 A 
ENDBRANCH   8   9
ENDBRANCH   4   8
ENDBRANCH   3   4
BRANCH   3  15
HETATM   15  C10 UNL     1      40.114  70.837  58.333  1.00  0.00     0.010 A 
HETATM   16  C11 UNL     1      40.239  69.498  57.583  1.00  0.00     0.007 A 
HETATM   17  C12 UNL     1      41.011  69.779  58.840  1.00  0.00     0.007 A 
ENDBRANCH   3  15
TORSDOF 4
ENDMDL
MODEL 4
REMARK VINA RESULT: -7.259449213      2.444      5.521
REMARK  4 active torsions:
REMARK  status: ('A' for Active; 'I' for Inactive)
REMARK    1  A    between atoms: C2_3  and  C3_4 
REMARK    2  A    between atoms: C2_3  and  C10_15 
REMARK    3  A    between atoms: C3_4  and  S1_8 
REMARK    4  A    between atoms: S1_8  and  C4_9 
ROOT
HETATM    1  N1  UNL     1      37.743  73.176  57.690  1.00  0.00    -0.196 NA
HETATM    2  C1  UNL     1      38.201  72.235  58.195  1.00  0.00     0.071 C 
HETATM    3  C2  UNL     1      38.749  71.062  58.833  1.00  0.00     0.153 C 
ENDROOT
BRANCH   3   4
HETATM    4  C3  UNL     1      38.713  71.252  60.316  1.00  0.00     0.063 C 
HETATM    5  N2  UNL     1      38.395  70.279  61.045  1.00  0.00    -0.396 N 
ATOM      6  H22 UNL     1      38.160  69.358  60.678  1.00  0.00     0.156 HD
ATOM      7  H21 UNL     1      38.370  70.409  62.057  1.00  0.00     0.156 HD
BRANCH   4   8
HETATM    8  S1  UNL     1      39.117  72.837  60.948  1.00  0.00    -0.076 SA
BRANCH   8   9
HETATM    9  C4  UNL     1      40.693  73.041  61.691  1.00  0.00     0.006 A 
HETATM   10  C5  UNL     1      41.786  73.078  60.830  1.00  0.00     0.019 A 
HETATM   11  C6  UNL     1      43.066  73.231  61.272  1.00  0.00     0.001 A 
HETATM   12  C7  UNL     1      43.300  73.354  62.615  1.00  0.00     0.000 A 
HETATM   13  C8  UNL     1      42.233  73.320  63.490  1.00  0.00     0.001 A 
HETATM   14  C9  UNL     1      40.921  73.162  63.024  1.00  0.00     0.019 A 
ENDBRANCH   8   9
ENDBRANCH   4   8
ENDBRANCH   3   4
BRANCH   3  15
HETATM   15  C10 UNL     1      40.134  70.847  58.323  1.00  0.00     0.010 A 
HETATM   16  C11 UNL     1      40.267  69.512  57.570  1.00  0.00     0.007 A 
HETATM   17  C12 UNL     1      41.032  69.791  58.832  1.00  0.00     0.007 A 
ENDBRANCH   3  15
TORSDOF 4
ENDMDL
MODEL 5
REMARK VINA RESULT: -7.138017384      1.573      2.043
REMARK  4 active torsions:
REMARK  status: ('A' for Active; 'I' for Inactive)
REMARK    1  A    between atoms: C2_3  and  C3_4 
REMARK    2  A    between atoms: C2_3  and  C10_15 
REMARK    3  A    between atoms: C3_4  and  S1_8 
REMARK    4  A    between atoms: S1_8  and  C4_9 
ROOT
HETATM    1  N1  UNL     1      40.456  74.045  63.046  1.00  0.00    -0.196 NA
HETATM    2  C1  UNL     1      40.118  73.242  62.278  1.00  0.00     0.071 C 
HETATM    3  C2  UNL     1      39.714  72.251  61.308  1.00  0.00     0.153 C 
ENDROOT
BRANCH   3   4
HETATM    4  C3  UNL     1      39.166  72.946  60.102  1.00  0.00     0.063 C 
HETATM    5  N2  UNL     1      39.095  74.201  60.106  1.00  0.00    -0.396 N 
ATOM      6  H22 UNL     1      39.396  74.777  60.892  1.00  0.00     0.156 HD
ATOM      7  H21 UNL     1      38.721  74.676  59.284  1.00  0.00     0.156 HD
BRANCH   4   8
HETATM    8  S1  UNL     1      38.648  71.957  58.751  1.00  0.00    -0.076 SA
BRANCH   8   9
HETATM    9  C4  UNL     1      39.711  70.659  58.238  1.00  0.00     0.006 A 
HETATM   10  C5  UNL     1      39.220  69.803  57.257  1.00  0.00     0.019 A 
HETATM   11  C6  UNL     1      39.938  68.754  56.767  1.00  0.00     0.001 A 
HETATM   12  C7  UNL     1      41.197  68.521  57.252  1.00  0.00     0.000 A 
HETATM   13  C8  UNL     1      41.708  69.355  58.226  1.00  0.00     0.001 A 
HETATM   14  C9  UNL     1      40.960  70.431  58.722  1.00  0.00     0.019 A 
ENDBRANCH   8   9
ENDBRANCH   4   8
ENDBRANCH   3   4
BRANCH   3  15
HETATM   15  C10 UNL     1      38.714  71.345  61.944  1.00  0.00     0.010 A 
HETATM   16  C11 UNL     1      39.336  70.511  63.078  1.00  0.00     0.007 A 
HETATM   17  C12 UNL     1      38.774  69.873  61.841  1.00  0.00     0.007 A 
ENDBRANCH   3  15
TORSDOF 4
ENDMDL
