MODEL 1
REMARK VINA RESULT: -7.690371767      0.000      0.000
REMARK  2 active torsions:
REMARK  status: ('A' for Active; 'I' for Inactive)
REMARK    1  A    between atoms: C6_6  and  N1_7 
REMARK    2  A    between atoms: N1_7  and  C7_9 
ROOT
HETATM    1  C1  UNL     1      35.937  75.384  58.476  1.00  0.00     0.022 A 
HETATM    2  C2  UNL     1      36.224  74.268  57.716  1.00  0.00     0.033 A 
HETATM    3  C3  UNL     1      37.340  73.708  58.307  1.00  0.00     0.056 A 
HETATM    4  C4  UNL     1      38.064  72.582  57.975  1.00  0.00     0.035 A 
HETATM    5  C5  UNL     1      39.170  72.193  58.719  1.00  0.00     0.052 A 
HETATM    6  C6  UNL     1      39.537  72.950  59.798  1.00  0.00     0.116 A 
HETATM    7  N2  UNL     1      38.778  74.038  60.058  1.00  0.00    -0.279 N 
ATOM      8  H2  UNL     1      39.041  74.610  60.860  1.00  0.00     0.189 HD
HETATM    9  N3  UNL     1      37.739  74.417  59.373  1.00  0.00    -0.266 N 
HETATM   10  C13 UNL     1      36.866  75.460  59.476  1.00  0.00     0.117 A 
ENDROOT
BRANCH   6  11
HETATM   11  N1  UNL     1      40.654  72.603  60.580  1.00  0.00    -0.371 N 
ATOM     12  H1  UNL     1      40.855  71.611  60.704  1.00  0.00     0.161 HD
BRANCH  11  13
HETATM   13  C7  UNL     1      41.532  73.550  61.217  1.00  0.00     0.083 C 
HETATM   14  C8  UNL     1      41.093  73.755  62.629  1.00  0.00     0.025 C 
HETATM   15  C9  UNL     1      42.082  73.031  63.538  1.00  0.00     0.002 C 
HETATM   16  C10 UNL     1      43.361  73.840  63.453  1.00  0.00     0.000 C 
HETATM   17  C11 UNL     1      43.906  73.730  62.054  1.00  0.00     0.002 C 
HETATM   18  C12 UNL     1      42.962  73.137  61.070  1.00  0.00     0.025 C 
ENDBRANCH  11  13
ENDBRANCH   6  11
TORSDOF 2
ENDMDL
MODEL 2
REMARK VINA RESULT: -7.565997813      1.150      6.370
REMARK  2 active torsions:
REMARK  status: ('A' for Active; 'I' for Inactive)
REMARK    1  A    between atoms: C6_6  and  N1_7 
REMARK    2  A    between atoms: N1_7  and  C7_9 
ROOT
HETATM    1  C1  UNL     1      44.716  73.797  61.767  1.00  0.00     0.022 A 
HETATM    2  C2  UNL     1      44.048  73.527  62.943  1.00  0.00     0.033 A 
HETATM    3  C3  UNL     1      42.715  73.450  62.591  1.00  0.00     0.056 A 
HETATM    4  C4  UNL     1      41.595  73.203  63.356  1.00  0.00     0.035 A 
HETATM    5  C5  UNL     1      40.328  73.168  62.788  1.00  0.00     0.052 A 
HETATM    6  C6  UNL     1      40.204  73.385  61.442  1.00  0.00     0.116 A 
HETATM    7  N2  UNL     1      41.348  73.620  60.761  1.00  0.00    -0.279 N 
ATOM      8  H2  UNL     1      41.269  73.783  59.758  1.00  0.00     0.189 HD
HETATM    9  N3  UNL     1      42.542  73.656  61.277  1.00  0.00    -0.266 N 
HETATM   10  C13 UNL     1      43.788  73.873  60.766  1.00  0.00     0.117 A 
ENDROOT
BRANCH   6  11
HETATM   11  N1  UNL     1      38.943  73.367  60.819  1.00  0.00    -0.371 N 
ATOM     12  H1  UNL     1      38.179  72.902  61.310  1.00  0.00     0.161 HD
BRANCH  11  13
HETATM   13  C7  UNL     1      38.656  73.958  59.538  1.00  0.00     0.083 C 
HETATM   14  C8  UNL     1      39.123  73.042  58.457  1.00  0.00     0.025 C 
HETATM   15  C9  UNL     1      37.894  72.385  57.834  1.00  0.00     0.002 C 
HETATM   16  C10 UNL     1      37.199  73.495  57.070  1.00  0.00     0.000 C 
HETATM   17  C11 UNL     1      36.689  74.510  58.057  1.00  0.00     0.002 C 
HETATM   18  C12 UNL     1      37.214  74.346  59.439  1.00  0.00     0.025 C 
ENDBRANCH  11  13
ENDBRANCH   6  11
TORSDOF 2
ENDMDL
MODEL 3
REMARK VINA RESULT: -7.556590999      1.408      2.112
REMARK  2 active torsions:
REMARK  status: ('A' for Active; 'I' for Inactive)
REMARK    1  A    between atoms: C6_6  and  N1_7 
REMARK    2  A    between atoms: N1_7  and  C7_9 
ROOT
HETATM    1  C1  UNL     1      35.826  75.514  58.574  1.00  0.00     0.022 A 
HETATM    2  C2  UNL     1      36.100  74.417  57.782  1.00  0.00     0.033 A 
HETATM    3  C3  UNL     1      37.281  73.902  58.279  1.00  0.00     0.056 A 
HETATM    4  C4  UNL     1      38.024  72.810  57.880  1.00  0.00     0.035 A 
HETATM    5  C5  UNL     1      39.200  72.463  58.532  1.00  0.00     0.052 A 
HETATM    6  C6  UNL     1      39.618  73.227  59.587  1.00  0.00     0.116 A 
HETATM    7  N2  UNL     1      38.836  74.280  59.917  1.00  0.00    -0.279 N 
ATOM      8  H2  UNL     1      39.137  74.857  60.702  1.00  0.00     0.189 HD
HETATM    9  N3  UNL     1      37.732  74.619  59.319  1.00  0.00    -0.266 N 
HETATM   10  C13 UNL     1      36.826  75.622  59.500  1.00  0.00     0.117 A 
ENDROOT
BRANCH   6  11
HETATM   11  N1  UNL     1      40.805  72.922  60.276  1.00  0.00    -0.371 N 
ATOM     12  H1  UNL     1      41.679  73.294  59.903  1.00  0.00     0.161 HD
BRANCH  11  13
HETATM   13  C7  UNL     1      40.875  72.123  61.472  1.00  0.00     0.083 C 
HETATM   14  C8  UNL     1      41.193  73.003  62.635  1.00  0.00     0.025 C 
HETATM   15  C9  UNL     1      39.919  73.171  63.459  1.00  0.00     0.002 C 
HETATM   16  C10 UNL     1      39.685  71.818  64.103  1.00  0.00     0.000 C 
HETATM   17  C11 UNL     1      39.367  70.821  63.022  1.00  0.00     0.002 C 
HETATM   18  C12 UNL     1      39.635  71.302  61.640  1.00  0.00     0.025 C 
ENDBRANCH  11  13
ENDBRANCH   6  11
TORSDOF 2
ENDMDL
MODEL 4
REMARK VINA RESULT: -7.534293204      2.698      4.592
REMARK  2 active torsions:
REMARK  status: ('A' for Active; 'I' for Inactive)
REMARK    1  A    between atoms: C6_6  and  N1_7 
REMARK    2  A    between atoms: N1_7  and  C7_9 
ROOT
HETATM    1  C1  UNL     1      41.398  68.242  57.227  1.00  0.00     0.022 A 
HETATM    2  C2  UNL     1      40.144  68.650  56.822  1.00  0.00     0.033 A 
HETATM    3  C3  UNL     1      39.895  69.808  57.533  1.00  0.00     0.056 A 
HETATM    4  C4  UNL     1      38.800  70.646  57.532  1.00  0.00     0.035 A 
HETATM    5  C5  UNL     1      38.759  71.777  58.338  1.00  0.00     0.052 A 
HETATM    6  C6  UNL     1      39.832  72.052  59.141  1.00  0.00     0.116 A 
HETATM    7  N2  UNL     1      40.866  71.183  59.085  1.00  0.00    -0.279 N 
ATOM      8  H2  UNL     1      41.672  71.377  59.679  1.00  0.00     0.189 HD
HETATM    9  N3  UNL     1      40.922  70.120  58.337  1.00  0.00    -0.266 N 
HETATM   10  C13 UNL     1      41.856  69.145  58.146  1.00  0.00     0.117 A 
ENDROOT
BRANCH   6  11
HETATM   11  N1  UNL     1      39.838  73.180  59.980  1.00  0.00    -0.371 N 
ATOM     12  H1  UNL     1      40.042  74.085  59.556  1.00  0.00     0.161 HD
BRANCH  11  13
HETATM   13  C7  UNL     1      39.576  73.148  61.396  1.00  0.00     0.083 C 
HETATM   14  C8  UNL     1      38.550  72.103  61.683  1.00  0.00     0.025 C 
HETATM   15  C9  UNL     1      39.259  70.914  62.326  1.00  0.00     0.002 C 
HETATM   16  C10 UNL     1      39.660  71.395  63.708  1.00  0.00     0.000 C 
HETATM   17  C11 UNL     1      40.692  72.479  63.558  1.00  0.00     0.002 C 
HETATM   18  C12 UNL     1      40.846  72.997  62.172  1.00  0.00     0.025 C 
ENDBRANCH  11  13
ENDBRANCH   6  11
TORSDOF 2
ENDMDL
MODEL 5
REMARK VINA RESULT: -7.464011118      3.106      6.268
REMARK  2 active torsions:
REMARK  status: ('A' for Active; 'I' for Inactive)
REMARK    1  A    between atoms: C6_6  and  N1_7 
REMARK    2  A    between atoms: N1_7  and  C7_9 
ROOT
HETATM    1  C1  UNL     1      44.391  74.287  62.675  1.00  0.00     0.022 A 
HETATM    2  C2  UNL     1      43.223  74.233  63.408  1.00  0.00     0.033 A 
HETATM    3  C3  UNL     1      42.310  73.606  62.583  1.00  0.00     0.056 A 
HETATM    4  C4  UNL     1      40.985  73.283  62.789  1.00  0.00     0.035 A 
HETATM    5  C5  UNL     1      40.240  72.641  61.808  1.00  0.00     0.052 A 
HETATM    6  C6  UNL     1      40.844  72.331  60.620  1.00  0.00     0.116 A 
HETATM    7  N2  UNL     1      42.144  72.681  60.495  1.00  0.00    -0.279 N 
ATOM      8  H2  UNL     1      42.605  72.454  59.614  1.00  0.00     0.189 HD
HETATM    9  N3  UNL     1      42.857  73.281  61.402  1.00  0.00    -0.266 N 
HETATM   10  C13 UNL     1      44.151  73.706  61.461  1.00  0.00     0.117 A 
ENDROOT
BRANCH   6  11
HETATM   11  N1  UNL     1      40.132  71.688  59.592  1.00  0.00    -0.371 N 
ATOM     12  H1  UNL     1      39.463  72.244  59.059  1.00  0.00     0.161 HD
BRANCH  11  13
HETATM   13  C7  UNL     1      40.280  70.300  59.239  1.00  0.00     0.083 C 
HETATM   14  C8  UNL     1      39.024  69.819  58.593  1.00  0.00     0.025 C 
HETATM   15  C9  UNL     1      39.289  69.678  57.096  1.00  0.00     0.002 C 
HETATM   16  C10 UNL     1      40.220  68.487  56.972  1.00  0.00     0.000 C 
HETATM   17  C11 UNL     1      41.537  68.839  57.610  1.00  0.00     0.002 C 
HETATM   18  C12 UNL     1      41.515  70.084  58.424  1.00  0.00     0.025 C 
ENDBRANCH  11  13
ENDBRANCH   6  11
TORSDOF 2
ENDMDL
