MODEL 1
REMARK VINA RESULT: -8.057912554      0.000      0.000
REMARK  2 active torsions:
REMARK  status: ('A' for Active; 'I' for Inactive)
REMARK    1  A    between atoms: C2_2  and  C3_3 
REMARK    2  A    between atoms: C2_2  and  C5_11 
ROOT
HETATM    1  C1  UNL     1      41.802  71.982  59.309  1.00  0.00     0.017 C 
HETATM    2  C2  UNL     1      40.413  71.335  59.206  1.00  0.00     0.039 C 
ENDROOT
BRANCH   2   3
HETATM    3  C3  UNL     1      40.443  70.169  58.347  1.00  0.00     0.048 A 
HETATM    4  C4  UNL     1      41.477  69.270  58.259  1.00  0.00     0.135 A 
HETATM    5  N1  UNL     1      41.126  68.332  57.355  1.00  0.00    -0.296 N 
HETATM    6  N2  UNL     1      39.934  68.625  56.899  1.00  0.00    -0.243 N 
ATOM      7  H1  UNL     1      41.691  67.531  57.076  1.00  0.00     0.187 HD
HETATM    8  N3  UNL     1      39.508  69.735  57.489  1.00  0.00    -0.289 N 
ATOM      9  H2  UNL     1      39.417  68.088  56.202  1.00  0.00     0.208 HD
ATOM     10  H3  UNL     1      38.610  70.187  57.316  1.00  0.00     0.188 HD
ENDBRANCH   2   3
BRANCH   2  11
HETATM   11  C5  UNL     1      39.943  71.111  60.595  1.00  0.00    -0.000 C 
HETATM   12  C6  UNL     1      38.919  70.050  60.780  1.00  0.00     0.006 C 
HETATM   13  C7  UNL     1      38.618  70.213  62.280  1.00  0.00     0.005 C 
HETATM   14  C8  UNL     1      38.802  71.672  62.550  1.00  0.00    -0.010 C 
HETATM   15  C9  UNL     1      39.964  71.943  63.486  1.00  0.00     0.005 C 
HETATM   16  C12 UNL     1      39.320  72.301  61.254  1.00  0.00    -0.006 C 
HETATM   17  C10 UNL     1      40.243  73.406  63.180  1.00  0.00     0.001 C 
HETATM   18  C11 UNL     1      40.296  73.361  61.653  1.00  0.00     0.005 C 
ENDBRANCH   2  11
TORSDOF 2
ENDMDL
MODEL 2
REMARK VINA RESULT: -8.015718448      3.628      4.655
REMARK  2 active torsions:
REMARK  status: ('A' for Active; 'I' for Inactive)
REMARK    1  A    between atoms: C2_2  and  C3_3 
REMARK    2  A    between atoms: C2_2  and  C5_11 
ROOT
HETATM    1  C1  UNL     1      38.364  71.647  59.095  1.00  0.00     0.017 C 
HETATM    2  C2  UNL     1      38.910  73.072  58.926  1.00  0.00     0.039 C 
ENDROOT
BRANCH   2   3
HETATM    3  C3  UNL     1      37.833  74.035  58.831  1.00  0.00     0.048 A 
HETATM    4  C4  UNL     1      36.866  74.056  57.857  1.00  0.00     0.135 A 
HETATM    5  N1  UNL     1      36.050  75.099  58.114  1.00  0.00    -0.296 N 
HETATM    6  N2  UNL     1      36.481  75.703  59.193  1.00  0.00    -0.243 N 
ATOM      7  H1  UNL     1      35.236  75.370  57.563  1.00  0.00     0.187 HD
HETATM    8  N3  UNL     1      37.559  75.071  59.638  1.00  0.00    -0.289 N 
ATOM      9  H2  UNL     1      36.056  76.525  59.622  1.00  0.00     0.208 HD
ATOM     10  H3  UNL     1      38.097  75.333  60.465  1.00  0.00     0.188 HD
ENDBRANCH   2   3
BRANCH   2  11
HETATM   11  C5  UNL     1      39.885  73.289  60.023  1.00  0.00    -0.000 C 
HETATM   12  C6  UNL     1      41.286  73.567  59.612  1.00  0.00     0.006 C 
HETATM   13  C7  UNL     1      41.975  73.604  60.988  1.00  0.00     0.005 C 
HETATM   14  C8  UNL     1      41.209  72.632  61.826  1.00  0.00    -0.010 C 
HETATM   15  C9  UNL     1      40.481  73.308  62.972  1.00  0.00     0.005 C 
HETATM   16  C12 UNL     1      40.031  72.147  60.978  1.00  0.00    -0.006 C 
HETATM   17  C10 UNL     1      39.435  72.256  63.305  1.00  0.00     0.001 C 
HETATM   18  C11 UNL     1      38.875  71.975  61.911  1.00  0.00     0.005 C 
ENDBRANCH   2  11
TORSDOF 2
ENDMDL
MODEL 3
REMARK VINA RESULT: -7.966234765      3.199      4.487
REMARK  2 active torsions:
REMARK  status: ('A' for Active; 'I' for Inactive)
REMARK    1  A    between atoms: C2_2  and  C3_3 
REMARK    2  A    between atoms: C2_2  and  C5_11 
ROOT
HETATM    1  C1  UNL     1      38.745  71.611  58.338  1.00  0.00     0.017 C 
HETATM    2  C2  UNL     1      39.035  73.099  58.581  1.00  0.00     0.039 C 
ENDROOT
BRANCH   2   3
HETATM    3  C3  UNL     1      37.850  73.903  58.369  1.00  0.00     0.048 A 
HETATM    4  C4  UNL     1      37.246  74.698  59.312  1.00  0.00     0.135 A 
HETATM    5  N1  UNL     1      36.177  75.280  58.731  1.00  0.00    -0.296 N 
HETATM    6  N2  UNL     1      36.111  74.873  57.488  1.00  0.00    -0.243 N 
ATOM      7  H1  UNL     1      35.531  75.927  59.182  1.00  0.00     0.187 HD
HETATM    8  N3  UNL     1      37.116  74.039  57.254  1.00  0.00    -0.289 N 
ATOM      9  H2  UNL     1      35.402  75.153  56.810  1.00  0.00     0.208 HD
ATOM     10  H3  UNL     1      37.301  73.574  56.366  1.00  0.00     0.188 HD
ENDBRANCH   2   3
BRANCH   2  11
HETATM   11  C5  UNL     1      39.661  73.199  59.922  1.00  0.00    -0.000 C 
HETATM   12  C6  UNL     1      41.023  73.792  59.970  1.00  0.00     0.006 C 
HETATM   13  C7  UNL     1      41.353  73.606  61.461  1.00  0.00     0.005 C 
HETATM   14  C8  UNL     1      40.648  72.348  61.855  1.00  0.00    -0.010 C 
HETATM   15  C9  UNL     1      39.547  72.598  62.867  1.00  0.00     0.005 C 
HETATM   16  C12 UNL     1      39.832  71.899  60.642  1.00  0.00    -0.006 C 
HETATM   17  C10 UNL     1      38.709  71.341  62.694  1.00  0.00     0.001 C 
HETATM   18  C11 UNL     1      38.559  71.320  61.173  1.00  0.00     0.005 C 
ENDBRANCH   2  11
TORSDOF 2
ENDMDL
MODEL 4
REMARK VINA RESULT: -7.903527967      1.119      1.631
REMARK  2 active torsions:
REMARK  status: ('A' for Active; 'I' for Inactive)
REMARK    1  A    between atoms: C2_2  and  C3_3 
REMARK    2  A    between atoms: C2_2  and  C5_11 
ROOT
HETATM    1  C1  UNL     1      38.012  71.757  58.952  1.00  0.00     0.017 C 
HETATM    2  C2  UNL     1      38.659  70.539  59.627  1.00  0.00     0.039 C 
ENDROOT
BRANCH   2   3
HETATM    3  C3  UNL     1      39.573  69.868  58.726  1.00  0.00     0.048 A 
HETATM    4  C4  UNL     1      40.942  69.874  58.828  1.00  0.00     0.135 A 
HETATM    5  N1  UNL     1      41.430  69.139  57.808  1.00  0.00    -0.296 N 
HETATM    6  N2  UNL     1      40.422  68.694  57.101  1.00  0.00    -0.243 N 
ATOM      7  H1  UNL     1      42.416  68.960  57.620  1.00  0.00     0.187 HD
HETATM    8  N3  UNL     1      39.291  69.127  57.644  1.00  0.00    -0.289 N 
ATOM      9  H2  UNL     1      40.494  68.109  56.268  1.00  0.00     0.208 HD
ATOM     10  H3  UNL     1      38.354  68.928  57.292  1.00  0.00     0.188 HD
ENDBRANCH   2   3
BRANCH   2  11
HETATM   11  C5  UNL     1      39.237  71.017  60.906  1.00  0.00    -0.000 C 
HETATM   12  C6  UNL     1      38.574  70.539  62.147  1.00  0.00     0.006 C 
HETATM   13  C7  UNL     1      39.363  71.330  63.206  1.00  0.00     0.005 C 
HETATM   14  C8  UNL     1      39.721  72.616  62.533  1.00  0.00    -0.010 C 
HETATM   15  C9  UNL     1      41.218  72.769  62.341  1.00  0.00     0.005 C 
HETATM   16  C12 UNL     1      39.253  72.503  61.081  1.00  0.00    -0.006 C 
HETATM   17  C10 UNL     1      41.260  73.818  61.241  1.00  0.00     0.001 C 
HETATM   18  C11 UNL     1      40.272  73.209  60.246  1.00  0.00     0.005 C 
ENDBRANCH   2  11
TORSDOF 2
ENDMDL
MODEL 5
REMARK VINA RESULT: -7.825020585      3.756      4.783
REMARK  2 active torsions:
REMARK  status: ('A' for Active; 'I' for Inactive)
REMARK    1  A    between atoms: C2_2  and  C3_3 
REMARK    2  A    between atoms: C2_2  and  C5_11 
ROOT
HETATM    1  C1  UNL     1      38.260  71.790  58.171  1.00  0.00     0.017 C 
HETATM    2  C2  UNL     1      38.837  73.140  58.619  1.00  0.00     0.039 C 
ENDROOT
BRANCH   2   3
HETATM    3  C3  UNL     1      37.792  74.130  58.771  1.00  0.00     0.048 A 
HETATM    4  C4  UNL     1      36.689  74.255  57.963  1.00  0.00     0.135 A 
HETATM    5  N1  UNL     1      35.958  75.289  58.428  1.00  0.00    -0.296 N 
HETATM    6  N2  UNL     1      36.568  75.789  59.472  1.00  0.00    -0.243 N 
ATOM      7  H1  UNL     1      35.079  75.624  58.033  1.00  0.00     0.187 HD
HETATM    8  N3  UNL     1      37.680  75.099  59.692  1.00  0.00    -0.289 N 
ATOM      9  H2  UNL     1      36.242  76.581  60.027  1.00  0.00     0.208 HD
ATOM     10  H3  UNL     1      38.346  75.278  60.444  1.00  0.00     0.188 HD
ENDBRANCH   2   3
BRANCH   2  11
HETATM   11  C5  UNL     1      39.663  72.873  59.822  1.00  0.00    -0.000 C 
HETATM   12  C6  UNL     1      38.923  72.593  61.080  1.00  0.00     0.006 C 
HETATM   13  C7  UNL     1      40.093  72.499  62.075  1.00  0.00     0.005 C 
HETATM   14  C8  UNL     1      41.118  73.451  61.550  1.00  0.00    -0.010 C 
HETATM   15  C9  UNL     1      42.383  72.745  61.101  1.00  0.00     0.005 C 
HETATM   16  C12 UNL     1      40.591  73.979  60.215  1.00  0.00    -0.006 C 
HETATM   17  C10 UNL     1      42.988  73.798  60.185  1.00  0.00     0.001 C 
HETATM   18  C11 UNL     1      41.777  74.133  59.316  1.00  0.00     0.005 C 
ENDBRANCH   2  11
TORSDOF 2
ENDMDL
