MODEL 1
REMARK VINA RESULT: -7.050620059      0.000      0.000
REMARK  4 active torsions:
REMARK  status: ('A' for Active; 'I' for Inactive)
REMARK    1  A    between atoms: C4_4  and  N1_5 
REMARK    2  A    between atoms: C5_7  and  C6_8 
REMARK    3  A    between atoms: C6_8  and  C7_9 
REMARK    4  A    between atoms: C12_15  and  O2_16 
ROOT
HETATM    1  N1  UNL     1      41.296  73.748  59.994  1.00  0.00    -0.366 N 
ATOM      2  H1  UNL     1      40.670  74.498  59.701  1.00  0.00     0.165 HD
HETATM    3  C5  UNL     1      42.242  74.044  60.796  1.00  0.00     0.064 C 
ENDROOT
BRANCH   1   4
HETATM    4  C4  UNL     1      41.053  72.454  59.482  1.00  0.00     0.093 A 
HETATM    5  C3  UNL     1      41.879  71.733  58.632  1.00  0.00     0.067 A 
HETATM    6  C2  UNL     1      41.243  70.535  58.399  1.00  0.00     0.054 A 
HETATM    7  C1  UNL     1      41.804  69.450  57.520  1.00  0.00     0.077 C 
HETATM    8  O3  UNL     1      40.116  70.528  59.055  1.00  0.00    -0.291 OA
HETATM    9  C12 UNL     1      39.943  71.645  59.722  1.00  0.00     0.211 A 
BRANCH   9  10
HETATM   10  O2  UNL     1      38.856  71.999  60.537  1.00  0.00    -0.339 OA
ATOM     11  H2  UNL     1      38.565  71.507  61.296  1.00  0.00     0.220 HD
ENDBRANCH   9  10
ENDBRANCH   1   4
BRANCH   3  12
HETATM   12  C6  UNL     1      43.182  73.021  61.261  1.00  0.00     0.076 C 
BRANCH  12  13
HETATM   13  C7  UNL     1      43.166  72.870  62.775  1.00  0.00     0.126 C 
HETATM   14  C8  UNL     1      43.992  71.690  63.227  1.00  0.00     0.032 C 
HETATM   15  C9  UNL     1      43.354  71.176  64.516  1.00  0.00     0.004 C 
HETATM   16  C10 UNL     1      42.014  70.564  64.157  1.00  0.00     0.026 C 
HETATM   17  C11 UNL     1      41.387  71.436  63.102  1.00  0.00     0.168 C 
HETATM   18  O1  UNL     1      41.847  72.735  63.197  1.00  0.00    -0.386 OA
ENDBRANCH  12  13
ENDBRANCH   3  12
TORSDOF 4
ENDMDL
MODEL 2
REMARK VINA RESULT: -6.906144971      1.277      1.474
REMARK  4 active torsions:
REMARK  status: ('A' for Active; 'I' for Inactive)
REMARK    1  A    between atoms: C4_4  and  N1_5 
REMARK    2  A    between atoms: C5_7  and  C6_8 
REMARK    3  A    between atoms: C6_8  and  C7_9 
REMARK    4  A    between atoms: C12_15  and  O2_16 
ROOT
HETATM    1  N1  UNL     1      40.692  73.767  59.698  1.00  0.00    -0.366 N 
ATOM      2  H1  UNL     1      40.854  74.609  59.146  1.00  0.00     0.165 HD
HETATM    3  C5  UNL     1      40.512  73.907  60.954  1.00  0.00     0.064 C 
ENDROOT
BRANCH   1   4
HETATM    4  C4  UNL     1      40.683  72.529  59.019  1.00  0.00     0.093 A 
HETATM    5  C3  UNL     1      41.744  71.643  58.902  1.00  0.00     0.067 A 
HETATM    6  C2  UNL     1      41.280  70.580  58.161  1.00  0.00     0.054 A 
HETATM    7  C1  UNL     1      42.122  69.385  57.799  1.00  0.00     0.077 C 
HETATM    8  O3  UNL     1      40.034  70.803  57.849  1.00  0.00    -0.291 OA
HETATM    9  C12 UNL     1      39.617  71.950  58.332  1.00  0.00     0.211 A 
BRANCH   9  10
HETATM   10  O2  UNL     1      38.342  72.523  58.202  1.00  0.00    -0.339 OA
ATOM     11  H2  UNL     1      37.543  72.036  58.036  1.00  0.00     0.220 HD
ENDBRANCH   9  10
ENDBRANCH   1   4
BRANCH   3  12
HETATM   12  C6  UNL     1      40.274  72.745  61.813  1.00  0.00     0.076 C 
BRANCH  12  13
HETATM   13  C7  UNL     1      41.140  72.766  63.064  1.00  0.00     0.126 C 
HETATM   14  C8  UNL     1      42.541  72.282  62.782  1.00  0.00     0.032 C 
HETATM   15  C9  UNL     1      43.051  71.639  64.070  1.00  0.00     0.004 C 
HETATM   16  C10 UNL     1      42.264  70.362  64.292  1.00  0.00     0.026 C 
HETATM   17  C11 UNL     1      40.836  70.636  63.901  1.00  0.00     0.168 C 
HETATM   18  O1  UNL     1      40.536  71.978  64.038  1.00  0.00    -0.386 OA
ENDBRANCH  12  13
ENDBRANCH   3  12
TORSDOF 4
ENDMDL
MODEL 3
REMARK VINA RESULT: -6.879238576      1.409      2.011
REMARK  4 active torsions:
REMARK  status: ('A' for Active; 'I' for Inactive)
REMARK    1  A    between atoms: C4_4  and  N1_5 
REMARK    2  A    between atoms: C5_7  and  C6_8 
REMARK    3  A    between atoms: C6_8  and  C7_9 
REMARK    4  A    between atoms: C12_15  and  O2_16 
ROOT
HETATM    1  N1  UNL     1      41.765  74.213  60.596  1.00  0.00    -0.366 N 
ATOM      2  H1  UNL     1      42.404  74.834  60.099  1.00  0.00     0.165 HD
HETATM    3  C5  UNL     1      41.839  74.181  61.870  1.00  0.00     0.064 C 
ENDROOT
BRANCH   1   4
HETATM    4  C4  UNL     1      40.861  73.450  59.825  1.00  0.00     0.093 A 
HETATM    5  C3  UNL     1      41.135  72.258  59.171  1.00  0.00     0.067 A 
HETATM    6  C2  UNL     1      39.965  71.878  58.553  1.00  0.00     0.054 A 
HETATM    7  C1  UNL     1      39.826  70.627  57.727  1.00  0.00     0.077 C 
HETATM    8  O3  UNL     1      39.050  72.770  58.811  1.00  0.00    -0.291 OA
HETATM    9  C12 UNL     1      39.521  73.735  59.566  1.00  0.00     0.211 A 
BRANCH   9  10
HETATM   10  O2  UNL     1      38.835  74.863  60.045  1.00  0.00    -0.339 OA
ATOM     11  H2  UNL     1      39.185  75.484  60.673  1.00  0.00     0.220 HD
ENDBRANCH   9  10
ENDBRANCH   1   4
BRANCH   3  12
HETATM   12  C6  UNL     1      40.956  73.315  62.653  1.00  0.00     0.076 C 
BRANCH  12  13
HETATM   13  C7  UNL     1      41.456  71.879  62.705  1.00  0.00     0.126 C 
HETATM   14  C8  UNL     1      41.241  71.261  64.065  1.00  0.00     0.032 C 
HETATM   15  C9  UNL     1      42.355  70.236  64.263  1.00  0.00     0.004 C 
HETATM   16  C10 UNL     1      43.660  70.995  64.412  1.00  0.00     0.026 C 
HETATM   17  C11 UNL     1      43.627  72.145  63.442  1.00  0.00     0.168 C 
HETATM   18  O1  UNL     1      42.805  71.862  62.368  1.00  0.00    -0.386 OA
ENDBRANCH  12  13
ENDBRANCH   3  12
TORSDOF 4
ENDMDL
MODEL 4
REMARK VINA RESULT: -6.807632566      1.139      1.361
REMARK  4 active torsions:
REMARK  status: ('A' for Active; 'I' for Inactive)
REMARK    1  A    between atoms: C4_4  and  N1_5 
REMARK    2  A    between atoms: C5_7  and  C6_8 
REMARK    3  A    between atoms: C6_8  and  C7_9 
REMARK    4  A    between atoms: C12_15  and  O2_16 
ROOT
HETATM    1  N1  UNL     1      41.942  74.526  60.345  1.00  0.00    -0.366 N 
ATOM      2  H1  UNL     1      41.792  75.504  60.096  1.00  0.00     0.165 HD
HETATM    3  C5  UNL     1      42.915  74.256  61.125  1.00  0.00     0.064 C 
ENDROOT
BRANCH   1   4
HETATM    4  C4  UNL     1      41.058  73.569  59.802  1.00  0.00     0.093 A 
HETATM    5  C3  UNL     1      41.408  72.427  59.097  1.00  0.00     0.067 A 
HETATM    6  C2  UNL     1      40.229  71.799  58.767  1.00  0.00     0.054 A 
HETATM    7  C1  UNL     1      40.159  70.511  57.990  1.00  0.00     0.077 C 
HETATM    8  O3  UNL     1      39.237  72.505  59.233  1.00  0.00    -0.291 OA
HETATM    9  C12 UNL     1      39.665  73.575  59.863  1.00  0.00     0.211 A 
BRANCH   9  10
HETATM   10  O2  UNL     1      38.895  74.565  60.493  1.00  0.00    -0.339 OA
ATOM     11  H2  UNL     1      37.955  74.665  60.395  1.00  0.00     0.220 HD
ENDBRANCH   9  10
ENDBRANCH   1   4
BRANCH   3  12
HETATM   12  C6  UNL     1      43.195  72.876  61.527  1.00  0.00     0.076 C 
BRANCH  12  13
HETATM   13  C7  UNL     1      42.904  72.635  63.001  1.00  0.00     0.126 C 
HETATM   14  C8  UNL     1      43.314  71.248  63.432  1.00  0.00     0.032 C 
HETATM   15  C9  UNL     1      42.371  70.843  64.564  1.00  0.00     0.004 C 
HETATM   16  C10 UNL     1      40.991  70.644  63.966  1.00  0.00     0.026 C 
HETATM   17  C11 UNL     1      40.785  71.721  62.935  1.00  0.00     0.168 C 
HETATM   18  O1  UNL     1      41.546  72.837  63.228  1.00  0.00    -0.386 OA
ENDBRANCH  12  13
ENDBRANCH   3  12
TORSDOF 4
ENDMDL
MODEL 5
REMARK VINA RESULT: -6.552544104      2.016      2.624
REMARK  4 active torsions:
REMARK  status: ('A' for Active; 'I' for Inactive)
REMARK    1  A    between atoms: C4_4  and  N1_5 
REMARK    2  A    between atoms: C5_7  and  C6_8 
REMARK    3  A    between atoms: C6_8  and  C7_9 
REMARK    4  A    between atoms: C12_15  and  O2_16 
ROOT
HETATM    1  N1  UNL     1      39.421  72.709  62.366  1.00  0.00    -0.366 N 
ATOM      2  H1  UNL     1      38.627  72.252  62.814  1.00  0.00     0.165 HD
HETATM    3  C5  UNL     1      40.164  73.452  63.090  1.00  0.00     0.064 C 
ENDROOT
BRANCH   1   4
HETATM    4  C4  UNL     1      39.619  72.475  60.988  1.00  0.00     0.093 A 
HETATM    5  C3  UNL     1      40.090  71.307  60.407  1.00  0.00     0.067 A 
HETATM    6  C2  UNL     1      40.119  71.534  59.050  1.00  0.00     0.054 A 
HETATM    7  C1  UNL     1      40.572  70.510  58.043  1.00  0.00     0.077 C 
HETATM    8  O3  UNL     1      39.700  72.746  58.822  1.00  0.00    -0.291 OA
HETATM    9  C12 UNL     1      39.385  73.363  59.938  1.00  0.00     0.211 A 
BRANCH   9  10
HETATM   10  O2  UNL     1      38.899  74.671  60.088  1.00  0.00    -0.339 OA
ATOM     11  H2  UNL     1      38.131  75.018  59.651  1.00  0.00     0.220 HD
ENDBRANCH   9  10
ENDBRANCH   1   4
BRANCH   3  12
HETATM   12  C6  UNL     1      41.322  74.142  62.518  1.00  0.00     0.076 C 
BRANCH  12  13
HETATM   13  C7  UNL     1      42.639  73.596  63.050  1.00  0.00     0.126 C 
HETATM   14  C8  UNL     1      43.803  74.483  62.678  1.00  0.00     0.032 C 
HETATM   15  C9  UNL     1      45.025  73.575  62.555  1.00  0.00     0.004 C 
HETATM   16  C10 UNL     1      44.829  72.701  61.331  1.00  0.00     0.026 C 
HETATM   17  C11 UNL     1      43.378  72.304  61.286  1.00  0.00     0.168 C 
HETATM   18  O1  UNL     1      42.824  72.310  62.551  1.00  0.00    -0.386 OA
ENDBRANCH  12  13
ENDBRANCH   3  12
TORSDOF 4
ENDMDL
