MODEL 1
REMARK VINA RESULT: -7.028959065      0.000      0.000
REMARK  3 active torsions:
REMARK  status: ('A' for Active; 'I' for Inactive)
REMARK    1  A    between atoms: C2_7  and  C3_8 
REMARK    2  A    between atoms: C3_8  and  S2_9 
REMARK    3  A    between atoms: S2_9  and  C4_10 
ROOT
HETATM    1  S1  UNL     1      41.872  69.333  57.446  1.00  0.00    -0.031 SA
HETATM    2  C1  UNL     1      40.903  70.513  58.064  1.00  0.00     0.235 A 
HETATM    3  N1  UNL     1      39.609  70.727  57.755  1.00  0.00    -0.268 N 
ATOM      4  H1  UNL     1      39.057  70.181  57.094  1.00  0.00     0.190 HD
HETATM    5  N2  UNL     1      39.175  71.761  58.453  1.00  0.00    -0.280 N 
ATOM      6  H2  UNL     1      38.234  72.153  58.427  1.00  0.00     0.189 HD
HETATM    7  C2  UNL     1      40.197  72.200  59.203  1.00  0.00     0.150 A 
HETATM    8  O1  UNL     1      41.217  71.430  58.944  1.00  0.00    -0.268 OA
ENDROOT
BRANCH   7   9
HETATM    9  C3  UNL     1      40.200  73.353  60.162  1.00  0.00     0.160 C 
BRANCH   9  10
HETATM   10  S2  UNL     1      39.588  72.795  61.775  1.00  0.00    -0.156 SA
BRANCH  10  11
HETATM   11  C4  UNL     1      40.886  71.776  62.505  1.00  0.00     0.047 C 
HETATM   12  C5  UNL     1      42.208  72.482  62.485  1.00  0.00     0.015 C 
HETATM   13  C6  UNL     1      43.322  71.735  63.105  1.00  0.00     0.001 C 
HETATM   14  C7  UNL     1      42.999  70.905  64.298  1.00  0.00     0.000 C 
HETATM   15  C8  UNL     1      41.605  70.349  64.315  1.00  0.00     0.001 C 
HETATM   16  C9  UNL     1      40.596  71.450  63.960  1.00  0.00     0.015 C 
ENDBRANCH  10  11
ENDBRANCH   9  10
ENDBRANCH   7   9
TORSDOF 3
ENDMDL
MODEL 2
REMARK VINA RESULT: -6.955375349      0.780      1.559
REMARK  3 active torsions:
REMARK  status: ('A' for Active; 'I' for Inactive)
REMARK    1  A    between atoms: C2_7  and  C3_8 
REMARK    2  A    between atoms: C3_8  and  S2_9 
REMARK    3  A    between atoms: S2_9  and  C4_10 
ROOT
HETATM    1  S1  UNL     1      41.893  69.417  57.504  1.00  0.00    -0.031 SA
HETATM    2  C1  UNL     1      40.856  70.475  58.223  1.00  0.00     0.235 A 
HETATM    3  N1  UNL     1      39.693  70.925  57.712  1.00  0.00    -0.268 N 
ATOM      4  H1  UNL     1      39.300  70.666  56.807  1.00  0.00     0.190 HD
HETATM    5  N2  UNL     1      39.147  71.758  58.580  1.00  0.00    -0.280 N 
ATOM      6  H2  UNL     1      38.262  72.252  58.466  1.00  0.00     0.189 HD
HETATM    7  C2  UNL     1      39.967  71.834  59.639  1.00  0.00     0.150 A 
HETATM    8  O1  UNL     1      40.981  71.053  59.391  1.00  0.00    -0.268 OA
ENDROOT
BRANCH   7   9
HETATM    9  C3  UNL     1      39.782  72.650  60.883  1.00  0.00     0.160 C 
BRANCH   9  10
HETATM   10  S2  UNL     1      41.341  73.477  61.298  1.00  0.00    -0.156 SA
BRANCH  10  11
HETATM   11  C4  UNL     1      42.041  72.601  62.712  1.00  0.00     0.047 C 
HETATM   12  C5  UNL     1      41.190  71.429  63.101  1.00  0.00     0.015 C 
HETATM   13  C6  UNL     1      41.713  70.627  64.226  1.00  0.00     0.001 C 
HETATM   14  C7  UNL     1      43.191  70.468  64.314  1.00  0.00     0.000 C 
HETATM   15  C8  UNL     1      43.978  71.624  63.772  1.00  0.00     0.001 C 
HETATM   16  C9  UNL     1      43.420  72.044  62.404  1.00  0.00     0.015 C 
ENDBRANCH  10  11
ENDBRANCH   9  10
ENDBRANCH   7   9
TORSDOF 3
ENDMDL
MODEL 3
REMARK VINA RESULT: -6.767959195      0.890      1.051
REMARK  3 active torsions:
REMARK  status: ('A' for Active; 'I' for Inactive)
REMARK    1  A    between atoms: C2_7  and  C3_8 
REMARK    2  A    between atoms: C3_8  and  S2_9 
REMARK    3  A    between atoms: S2_9  and  C4_10 
ROOT
HETATM    1  S1  UNL     1      41.843  69.306  57.395  1.00  0.00    -0.031 SA
HETATM    2  C1  UNL     1      40.912  70.504  58.034  1.00  0.00     0.235 A 
HETATM    3  N1  UNL     1      39.594  70.689  57.822  1.00  0.00    -0.268 N 
ATOM      4  H1  UNL     1      38.998  70.107  57.234  1.00  0.00     0.190 HD
HETATM    5  N2  UNL     1      39.203  71.751  58.504  1.00  0.00    -0.280 N 
ATOM      6  H2  UNL     1      38.258  72.132  58.537  1.00  0.00     0.189 HD
HETATM    7  C2  UNL     1      40.276  72.236  59.147  1.00  0.00     0.150 A 
HETATM    8  O1  UNL     1      41.282  71.465  58.842  1.00  0.00    -0.268 OA
ENDROOT
BRANCH   7   9
HETATM    9  C3  UNL     1      40.340  73.433  60.048  1.00  0.00     0.160 C 
BRANCH   9  10
HETATM   10  S2  UNL     1      42.013  73.582  60.733  1.00  0.00    -0.156 SA
BRANCH  10  11
HETATM   11  C4  UNL     1      42.216  72.239  61.920  1.00  0.00     0.047 C 
HETATM   12  C5  UNL     1      43.563  72.293  62.577  1.00  0.00     0.015 C 
HETATM   13  C6  UNL     1      43.798  71.251  63.598  1.00  0.00     0.001 C 
HETATM   14  C7  UNL     1      42.634  70.850  64.437  1.00  0.00     0.000 C 
HETATM   15  C8  UNL     1      41.304  70.960  63.753  1.00  0.00     0.001 C 
HETATM   16  C9  UNL     1      41.191  72.314  63.038  1.00  0.00     0.015 C 
ENDBRANCH  10  11
ENDBRANCH   9  10
ENDBRANCH   7   9
TORSDOF 3
ENDMDL
MODEL 4
REMARK VINA RESULT: -6.553361053      1.362      1.891
REMARK  3 active torsions:
REMARK  status: ('A' for Active; 'I' for Inactive)
REMARK    1  A    between atoms: C2_7  and  C3_8 
REMARK    2  A    between atoms: C3_8  and  S2_9 
REMARK    3  A    between atoms: S2_9  and  C4_10 
ROOT
HETATM    1  S1  UNL     1      41.159  69.268  56.991  1.00  0.00    -0.031 SA
HETATM    2  C1  UNL     1      41.153  70.398  58.189  1.00  0.00     0.235 A 
HETATM    3  N1  UNL     1      42.123  71.300  58.440  1.00  0.00    -0.268 N 
ATOM      4  H1  UNL     1      42.992  71.401  57.917  1.00  0.00     0.190 HD
HETATM    5  N2  UNL     1      41.757  72.032  59.477  1.00  0.00    -0.280 N 
ATOM      6  H2  UNL     1      42.291  72.794  59.894  1.00  0.00     0.189 HD
HETATM    7  C2  UNL     1      40.557  71.591  59.881  1.00  0.00     0.150 A 
HETATM    8  O1  UNL     1      40.226  70.611  59.087  1.00  0.00    -0.268 OA
ENDROOT
BRANCH   7   9
HETATM    9  C3  UNL     1      39.730  72.103  61.022  1.00  0.00     0.160 C 
BRANCH   9  10
HETATM   10  S2  UNL     1      40.674  73.353  61.936  1.00  0.00    -0.156 SA
BRANCH  10  11
HETATM   11  C4  UNL     1      41.690  72.468  63.137  1.00  0.00     0.047 C 
HETATM   12  C5  UNL     1      41.064  71.161  63.522  1.00  0.00     0.015 C 
HETATM   13  C6  UNL     1      41.853  70.350  64.471  1.00  0.00     0.001 C 
HETATM   14  C7  UNL     1      43.335  70.392  64.330  1.00  0.00     0.000 C 
HETATM   15  C8  UNL     1      43.875  71.689  63.803  1.00  0.00     0.001 C 
HETATM   16  C9  UNL     1      43.063  72.138  62.580  1.00  0.00     0.015 C 
ENDBRANCH  10  11
ENDBRANCH   9  10
ENDBRANCH   7   9
TORSDOF 3
ENDMDL
MODEL 5
REMARK VINA RESULT: -6.281290096      1.098      1.795
REMARK  3 active torsions:
REMARK  status: ('A' for Active; 'I' for Inactive)
REMARK    1  A    between atoms: C2_7  and  C3_8 
REMARK    2  A    between atoms: C3_8  and  S2_9 
REMARK    3  A    between atoms: S2_9  and  C4_10 
ROOT
HETATM    1  S1  UNL     1      40.169  70.118  57.460  1.00  0.00    -0.031 SA
HETATM    2  C1  UNL     1      40.034  71.520  58.312  1.00  0.00     0.235 A 
HETATM    3  N1  UNL     1      39.041  72.424  58.210  1.00  0.00    -0.268 N 
ATOM      4  H1  UNL     1      38.236  72.358  57.586  1.00  0.00     0.190 HD
HETATM    5  N2  UNL     1      39.283  73.413  59.053  1.00  0.00    -0.280 N 
ATOM      6  H2  UNL     1      38.702  74.239  59.195  1.00  0.00     0.189 HD
HETATM    7  C2  UNL     1      40.431  73.131  59.687  1.00  0.00     0.150 A 
HETATM    8  O1  UNL     1      40.853  71.990  59.219  1.00  0.00    -0.268 OA
ENDROOT
BRANCH   7   9
HETATM    9  C3  UNL     1      41.121  73.949  60.737  1.00  0.00     0.160 C 
BRANCH   9  10
HETATM   10  S2  UNL     1      40.409  73.570  62.361  1.00  0.00    -0.156 SA
BRANCH  10  11
HETATM   11  C4  UNL     1      41.666  72.664  63.287  1.00  0.00     0.047 C 
HETATM   12  C5  UNL     1      41.146  71.338  63.756  1.00  0.00     0.015 C 
HETATM   13  C6  UNL     1      42.127  70.509  64.487  1.00  0.00     0.001 C 
HETATM   14  C7  UNL     1      43.543  70.575  64.031  1.00  0.00     0.000 C 
HETATM   15  C8  UNL     1      43.949  71.893  63.440  1.00  0.00     0.001 C 
HETATM   16  C9  UNL     1      42.889  72.368  62.436  1.00  0.00     0.015 C 
ENDBRANCH  10  11
ENDBRANCH   9  10
ENDBRANCH   7   9
TORSDOF 3
ENDMDL
