MODEL 1
REMARK VINA RESULT: -6.184418872      0.000      0.000
REMARK  4 active torsions:
REMARK  status: ('A' for Active; 'I' for Inactive)
REMARK    1  A    between atoms: C2_2  and  C5_5 
REMARK    2  A    between atoms: C6_11  and  O1_12 
REMARK    3  A    between atoms: O1_12  and  C7_13 
REMARK    4  A    between atoms: C7_13  and  C8_14 
ROOT
HETATM    1  C5  UNL     1      40.199  73.259  59.817  1.00  0.00     0.076 A 
HETATM    2  N1  UNL     1      39.245  73.738  59.036  1.00  0.00    -0.311 N 
ATOM      3  H1  UNL     1      38.742  73.244  58.298  1.00  0.00     0.175 HD
HETATM    4  S1  UNL     1      39.038  75.331  59.517  1.00  0.00     0.069 SA
HETATM    5  N2  UNL     1      40.192  75.356  60.725  1.00  0.00    -0.291 N 
ATOM      6  H2  UNL     1      40.438  76.143  61.325  1.00  0.00     0.177 HD
HETATM    7  C6  UNL     1      40.723  74.134  60.741  1.00  0.00     0.174 A 
ENDROOT
BRANCH   7   8
HETATM    8  O1  UNL     1      41.723  73.790  61.636  1.00  0.00    -0.334 OA
BRANCH   8   9
HETATM    9  C7  UNL     1      41.737  73.473  62.937  1.00  0.00     0.182 C 
BRANCH   9  10
HETATM   10  C8  UNL     1      42.596  72.510  63.583  1.00  0.00     0.010 C 
HETATM   11  C9  UNL     1      43.752  71.821  62.966  1.00  0.00     0.007 C 
HETATM   12  C10 UNL     1      43.576  70.803  64.148  1.00  0.00     0.001 C 
HETATM   13  C11 UNL     1      42.072  71.124  63.938  1.00  0.00     0.007 C 
ENDBRANCH   9  10
ENDBRANCH   8   9
ENDBRANCH   7   8
BRANCH   1  14
HETATM   14  C2  UNL     1      40.665  71.827  59.673  1.00  0.00    -0.004 C 
HETATM   15  C1  UNL     1      40.090  71.198  58.423  1.00  0.00     0.021 C 
HETATM   16  C3  UNL     1      42.177  71.778  59.514  1.00  0.00     0.021 C 
HETATM   17  C4  UNL     1      40.205  70.981  60.821  1.00  0.00     0.021 C 
ENDBRANCH   1  14
TORSDOF 4
ENDMDL
MODEL 2
REMARK VINA RESULT: -6.086633993      1.993      2.651
REMARK  4 active torsions:
REMARK  status: ('A' for Active; 'I' for Inactive)
REMARK    1  A    between atoms: C2_2  and  C5_5 
REMARK    2  A    between atoms: C6_11  and  O1_12 
REMARK    3  A    between atoms: O1_12  and  C7_13 
REMARK    4  A    between atoms: C7_13  and  C8_14 
ROOT
HETATM    1  C5  UNL     1      41.825  74.156  60.643  1.00  0.00     0.076 A 
HETATM    2  N1  UNL     1      41.402  74.622  59.479  1.00  0.00    -0.311 N 
ATOM      3  H1  UNL     1      41.969  74.867  58.666  1.00  0.00     0.175 HD
HETATM    4  S1  UNL     1      39.734  74.724  59.624  1.00  0.00     0.069 SA
HETATM    5  N2  UNL     1      39.607  74.163  61.192  1.00  0.00    -0.291 N 
ATOM      6  H2  UNL     1      38.752  74.043  61.736  1.00  0.00     0.177 HD
HETATM    7  C6  UNL     1      40.854  73.904  61.584  1.00  0.00     0.174 A 
ENDROOT
BRANCH   7   8
HETATM    8  O1  UNL     1      41.128  73.410  62.849  1.00  0.00    -0.334 OA
BRANCH   8   9
HETATM    9  C7  UNL     1      40.983  72.213  63.431  1.00  0.00     0.182 C 
BRANCH   9  10
HETATM   10  C8  UNL     1      42.014  71.225  63.644  1.00  0.00     0.010 C 
HETATM   11  C9  UNL     1      41.936  70.068  64.564  1.00  0.00     0.007 C 
HETATM   12  C10 UNL     1      43.500  70.060  64.435  1.00  0.00     0.001 C 
HETATM   13  C11 UNL     1      43.304  71.597  64.362  1.00  0.00     0.007 C 
ENDBRANCH   9  10
ENDBRANCH   8   9
ENDBRANCH   7   8
BRANCH   1  14
HETATM   14  C2  UNL     1      43.300  73.930  60.890  1.00  0.00    -0.004 C 
HETATM   15  C1  UNL     1      44.133  74.591  59.815  1.00  0.00     0.021 C 
HETATM   16  C3  UNL     1      43.719  74.572  62.205  1.00  0.00     0.021 C 
HETATM   17  C4  UNL     1      43.646  72.472  60.855  1.00  0.00     0.021 C 
ENDBRANCH   1  14
TORSDOF 4
ENDMDL
MODEL 3
REMARK VINA RESULT: -6.085444324      2.181      3.069
REMARK  4 active torsions:
REMARK  status: ('A' for Active; 'I' for Inactive)
REMARK    1  A    between atoms: C2_2  and  C5_5 
REMARK    2  A    between atoms: C6_11  and  O1_12 
REMARK    3  A    between atoms: O1_12  and  C7_13 
REMARK    4  A    between atoms: C7_13  and  C8_14 
ROOT
HETATM    1  C5  UNL     1      41.901  74.121  60.964  1.00  0.00     0.076 A 
HETATM    2  N1  UNL     1      41.681  74.652  59.772  1.00  0.00    -0.311 N 
ATOM      3  H1  UNL     1      42.376  74.927  59.078  1.00  0.00     0.175 HD
HETATM    4  S1  UNL     1      40.013  74.776  59.645  1.00  0.00     0.069 SA
HETATM    5  N2  UNL     1      39.622  74.139  61.140  1.00  0.00    -0.291 N 
ATOM      6  H2  UNL     1      38.689  74.007  61.528  1.00  0.00     0.177 HD
HETATM    7  C6  UNL     1      40.785  73.838  61.718  1.00  0.00     0.174 A 
ENDROOT
BRANCH   7   8
HETATM    8  O1  UNL     1      40.842  73.277  62.983  1.00  0.00    -0.334 OA
BRANCH   8   9
HETATM    9  C7  UNL     1      40.067  72.415  63.653  1.00  0.00     0.182 C 
BRANCH   9  10
HETATM   10  C8  UNL     1      40.392  71.054  64.008  1.00  0.00     0.010 C 
HETATM   11  C9  UNL     1      40.074  70.388  65.290  1.00  0.00     0.007 C 
HETATM   12  C10 UNL     1      41.191  69.372  64.859  1.00  0.00     0.001 C 
HETATM   13  C11 UNL     1      41.839  70.646  64.255  1.00  0.00     0.007 C 
ENDBRANCH   9  10
ENDBRANCH   8   9
ENDBRANCH   7   8
BRANCH   1  14
HETATM   14  C2  UNL     1      43.313  73.856  61.438  1.00  0.00    -0.004 C 
HETATM   15  C1  UNL     1      44.322  74.389  60.446  1.00  0.00     0.021 C 
HETATM   16  C3  UNL     1      43.576  74.589  62.745  1.00  0.00     0.021 C 
HETATM   17  C4  UNL     1      43.583  72.387  61.567  1.00  0.00     0.021 C 
ENDBRANCH   1  14
TORSDOF 4
ENDMDL
MODEL 4
REMARK VINA RESULT: -5.995168481      2.185      3.013
REMARK  4 active torsions:
REMARK  status: ('A' for Active; 'I' for Inactive)
REMARK    1  A    between atoms: C2_2  and  C5_5 
REMARK    2  A    between atoms: C6_11  and  O1_12 
REMARK    3  A    between atoms: O1_12  and  C7_13 
REMARK    4  A    between atoms: C7_13  and  C8_14 
ROOT
HETATM    1  C5  UNL     1      40.607  72.543  59.259  1.00  0.00     0.076 A 
HETATM    2  N1  UNL     1      39.792  71.829  58.498  1.00  0.00    -0.311 N 
ATOM      3  H1  UNL     1      38.840  72.065  58.218  1.00  0.00     0.175 HD
HETATM    4  S1  UNL     1      40.661  70.452  58.093  1.00  0.00     0.069 SA
HETATM    5  N2  UNL     1      42.068  70.819  58.916  1.00  0.00    -0.291 N 
ATOM      6  H2  UNL     1      42.917  70.257  58.966  1.00  0.00     0.177 HD
HETATM    7  C6  UNL     1      41.849  72.000  59.494  1.00  0.00     0.174 A 
ENDROOT
BRANCH   7   8
HETATM    8  O1  UNL     1      42.819  72.622  60.264  1.00  0.00    -0.334 OA
BRANCH   8   9
HETATM    9  C7  UNL     1      43.207  72.507  61.540  1.00  0.00     0.182 C 
BRANCH   9  10
HETATM   10  C8  UNL     1      42.720  71.556  62.510  1.00  0.00     0.010 C 
HETATM   11  C9  UNL     1      41.575  71.754  63.427  1.00  0.00     0.007 C 
HETATM   12  C10 UNL     1      42.222  70.574  64.236  1.00  0.00     0.001 C 
HETATM   13  C11 UNL     1      43.543  71.226  63.748  1.00  0.00     0.007 C 
ENDBRANCH   9  10
ENDBRANCH   8   9
ENDBRANCH   7   8
BRANCH   1  14
HETATM   14  C2  UNL     1      40.161  73.874  59.824  1.00  0.00    -0.004 C 
HETATM   15  C1  UNL     1      39.000  74.432  59.032  1.00  0.00     0.021 C 
HETATM   16  C3  UNL     1      39.657  73.699  61.249  1.00  0.00     0.021 C 
HETATM   17  C4  UNL     1      41.254  74.897  59.749  1.00  0.00     0.021 C 
ENDBRANCH   1  14
TORSDOF 4
ENDMDL
MODEL 5
REMARK VINA RESULT: -5.918977107      2.324      2.847
REMARK  4 active torsions:
REMARK  status: ('A' for Active; 'I' for Inactive)
REMARK    1  A    between atoms: C2_2  and  C5_5 
REMARK    2  A    between atoms: C6_11  and  O1_12 
REMARK    3  A    between atoms: O1_12  and  C7_13 
REMARK    4  A    between atoms: C7_13  and  C8_14 
ROOT
HETATM    1  C5  UNL     1      42.419  74.019  59.737  1.00  0.00     0.076 A 
HETATM    2  N1  UNL     1      42.595  74.951  58.814  1.00  0.00    -0.311 N 
ATOM      3  H1  UNL     1      41.874  75.459  58.300  1.00  0.00     0.175 HD
HETATM    4  S1  UNL     1      44.258  75.121  58.669  1.00  0.00     0.069 SA
HETATM    5  N2  UNL     1      44.704  73.981  59.806  1.00  0.00    -0.291 N 
ATOM      6  H2  UNL     1      45.651  73.720  60.078  1.00  0.00     0.177 HD
HETATM    7  C6  UNL     1      43.563  73.483  60.283  1.00  0.00     0.174 A 
ENDROOT
BRANCH   7   8
HETATM    8  O1  UNL     1      43.553  72.504  61.263  1.00  0.00    -0.334 OA
BRANCH   8   9
HETATM    9  C7  UNL     1      43.832  72.496  62.572  1.00  0.00     0.182 C 
BRANCH   9  10
HETATM   10  C8  UNL     1      43.107  71.798  63.607  1.00  0.00     0.010 C 
HETATM   11  C9  UNL     1      43.505  70.519  64.238  1.00  0.00     0.007 C 
HETATM   12  C10 UNL     1      41.998  70.447  64.674  1.00  0.00     0.001 C 
HETATM   13  C11 UNL     1      41.773  71.130  63.298  1.00  0.00     0.007 C 
ENDBRANCH   9  10
ENDBRANCH   8   9
ENDBRANCH   7   8
BRANCH   1  14
HETATM   14  C2  UNL     1      41.026  73.591  60.142  1.00  0.00    -0.004 C 
HETATM   15  C1  UNL     1      39.989  74.207  59.229  1.00  0.00     0.021 C 
HETATM   16  C3  UNL     1      40.875  72.084  59.998  1.00  0.00     0.021 C 
HETATM   17  C4  UNL     1      40.692  74.048  61.530  1.00  0.00     0.021 C 
ENDBRANCH   1  14
TORSDOF 4
ENDMDL
