MODEL 1
REMARK VINA RESULT: -8.029873312      0.000      0.000
REMARK  2 active torsions:
REMARK  status: ('A' for Active; 'I' for Inactive)
REMARK    1  A    between atoms: C6_12  and  N3_13 
REMARK    2  A    between atoms: N3_13  and  N4_15 
ROOT
HETATM    1  C1  UNL     1      15.369  -2.816  10.719  1.00  0.00     0.045 C 
HETATM    2  C2  UNL     1      15.751  -3.660   9.788  1.00  0.00     0.054 A 
HETATM    3  N1  UNL     1      14.989  -4.785   9.557  1.00  0.00    -0.318 N 
ATOM      4  H1  UNL     1      14.147  -4.936  10.113  1.00  0.00     0.169 HD
HETATM    5  C3  UNL     1      15.318  -5.673   8.635  1.00  0.00     0.314 A 
HETATM    6  O1  UNL     1      14.605  -6.683   8.450  1.00  0.00    -0.262 OA
HETATM    7  C4  UNL     1      16.460  -5.444   7.899  1.00  0.00     0.314 A 
HETATM    8  O2  UNL     1      16.765  -6.306   7.015  1.00  0.00    -0.262 OA
HETATM    9  N2  UNL     1      17.210  -4.355   8.112  1.00  0.00    -0.316 N 
ATOM     10  H2  UNL     1      18.050  -4.214   7.550  1.00  0.00     0.169 HD
HETATM   11  C5  UNL     1      16.883  -3.428   9.062  1.00  0.00     0.078 A 
HETATM   12  C6  UNL     1      17.674  -2.373   9.218  1.00  0.00     0.139 C 
ENDROOT
BRANCH  12  13
HETATM   13  N3  UNL     1      18.836  -2.167   8.447  1.00  0.00    -0.308 N 
ATOM     14  H3  UNL     1      18.825  -1.577   7.615  1.00  0.00     0.186 HD
BRANCH  13  15
HETATM   15  N4  UNL     1      19.998  -2.801   8.870  1.00  0.00    -0.276 N 
HETATM   16  C7  UNL     1      21.117  -2.525   8.296  1.00  0.00     0.215 C 
HETATM   17  N5  UNL     1      21.273  -1.597   7.231  1.00  0.00    -0.065 NA
HETATM   18  N6  UNL     1      22.264  -3.211   8.781  1.00  0.00    -0.065 NA
ATOM     19  H4  UNL     1      19.964  -3.482   9.630  1.00  0.00     0.189 HD
ENDBRANCH  13  15
ENDBRANCH  12  13
TORSDOF 2
ENDMDL
MODEL 2
REMARK VINA RESULT: -7.538990459      2.376      5.226
REMARK  2 active torsions:
REMARK  status: ('A' for Active; 'I' for Inactive)
REMARK    1  A    between atoms: C6_12  and  N3_13 
REMARK    2  A    between atoms: N3_13  and  N4_15 
ROOT
HETATM    1  C1  UNL     1      17.528  -1.033   8.277  1.00  0.00     0.045 C 
HETATM    2  C2  UNL     1      18.225  -2.101   8.592  1.00  0.00     0.054 A 
HETATM    3  N1  UNL     1      19.560  -2.146   8.258  1.00  0.00    -0.318 N 
ATOM      4  H1  UNL     1      19.978  -1.350   7.776  1.00  0.00     0.169 HD
HETATM    5  C3  UNL     1      20.316  -3.192   8.545  1.00  0.00     0.314 A 
HETATM    6  O1  UNL     1      21.526  -3.201   8.229  1.00  0.00    -0.262 OA
HETATM    7  C4  UNL     1      19.726  -4.252   9.197  1.00  0.00     0.314 A 
HETATM    8  O2  UNL     1      20.465  -5.252   9.469  1.00  0.00    -0.262 OA
HETATM    9  N2  UNL     1      18.429  -4.223   9.528  1.00  0.00    -0.316 N 
ATOM     10  H2  UNL     1      18.022  -5.024  10.010  1.00  0.00     0.169 HD
HETATM   11  C5  UNL     1      17.634  -3.149   9.238  1.00  0.00     0.078 A 
HETATM   12  C6  UNL     1      16.357  -3.190   9.596  1.00  0.00     0.139 C 
ENDROOT
BRANCH  12  13
HETATM   13  N3  UNL     1      15.783  -4.291  10.263  1.00  0.00    -0.308 N 
ATOM     14  H3  UNL     1      16.082  -4.560  11.201  1.00  0.00     0.186 HD
BRANCH  13  15
HETATM   15  N4  UNL     1      14.793  -4.994   9.588  1.00  0.00    -0.276 N 
HETATM   16  C7  UNL     1      15.126  -5.938   8.777  1.00  0.00     0.215 C 
HETATM   17  N5  UNL     1      16.462  -6.335   8.502  1.00  0.00    -0.065 NA
HETATM   18  N6  UNL     1      14.061  -6.615   8.122  1.00  0.00    -0.065 NA
ATOM     19  H4  UNL     1      13.810  -4.765   9.734  1.00  0.00     0.189 HD
ENDBRANCH  13  15
ENDBRANCH  12  13
TORSDOF 2
ENDMDL
MODEL 3
REMARK VINA RESULT: -7.307523727      3.291      3.958
REMARK  2 active torsions:
REMARK  status: ('A' for Active; 'I' for Inactive)
REMARK    1  A    between atoms: C6_12  and  N3_13 
REMARK    2  A    between atoms: N3_13  and  N4_15 
ROOT
HETATM    1  C1  UNL     1      14.984  -4.058  11.284  1.00  0.00     0.045 C 
HETATM    2  C2  UNL     1      15.578  -2.936  10.945  1.00  0.00     0.054 A 
HETATM    3  N1  UNL     1      15.330  -1.802  11.687  1.00  0.00    -0.318 N 
ATOM      4  H1  UNL     1      14.693  -1.859  12.482  1.00  0.00     0.169 HD
HETATM    5  C3  UNL     1      15.895  -0.642  11.398  1.00  0.00     0.314 A 
HETATM    6  O1  UNL     1      15.649   0.368  12.092  1.00  0.00    -0.262 OA
HETATM    7  C4  UNL     1      16.751  -0.595  10.320  1.00  0.00     0.314 A 
HETATM    8  O2  UNL     1      17.289   0.527  10.054  1.00  0.00    -0.262 OA
HETATM    9  N2  UNL     1      17.002  -1.689   9.590  1.00  0.00    -0.316 N 
ATOM     10  H2  UNL     1      17.641  -1.620   8.798  1.00  0.00     0.169 HD
HETATM   11  C5  UNL     1      16.425  -2.895   9.876  1.00  0.00     0.078 A 
HETATM   12  C6  UNL     1      16.720  -3.937   9.108  1.00  0.00     0.139 C 
ENDROOT
BRANCH  12  13
HETATM   13  N3  UNL     1      17.602  -3.856   8.011  1.00  0.00    -0.308 N 
ATOM     14  H3  UNL     1      17.349  -3.350   7.162  1.00  0.00     0.186 HD
BRANCH  13  15
HETATM   15  N4  UNL     1      18.829  -4.494   8.137  1.00  0.00    -0.276 N 
HETATM   16  C7  UNL     1      19.867  -3.812   8.481  1.00  0.00     0.215 C 
HETATM   17  N5  UNL     1      19.866  -2.417   8.750  1.00  0.00    -0.065 NA
HETATM   18  N6  UNL     1      21.089  -4.530   8.591  1.00  0.00    -0.065 NA
ATOM     19  H4  UNL     1      18.908  -5.495   7.959  1.00  0.00     0.189 HD
ENDBRANCH  13  15
ENDBRANCH  12  13
TORSDOF 2
ENDMDL
MODEL 4
REMARK VINA RESULT: -7.255359402      2.545      4.726
REMARK  2 active torsions:
REMARK  status: ('A' for Active; 'I' for Inactive)
REMARK    1  A    between atoms: C6_12  and  N3_13 
REMARK    2  A    between atoms: N3_13  and  N4_15 
ROOT
HETATM    1  C1  UNL     1      18.022  -2.282   8.753  1.00  0.00     0.045 C 
HETATM    2  C2  UNL     1      17.268  -3.358   8.742  1.00  0.00     0.054 A 
HETATM    3  N1  UNL     1      17.459  -4.293   7.749  1.00  0.00    -0.318 N 
ATOM      4  H1  UNL     1      18.180  -4.130   7.046  1.00  0.00     0.169 HD
HETATM    5  C3  UNL     1      16.733  -5.396   7.681  1.00  0.00     0.314 A 
HETATM    6  O1  UNL     1      16.932  -6.225   6.767  1.00  0.00    -0.262 OA
HETATM    7  C4  UNL     1      15.766  -5.591   8.643  1.00  0.00     0.314 A 
HETATM    8  O2  UNL     1      15.076  -6.656   8.566  1.00  0.00    -0.262 OA
HETATM    9  N2  UNL     1      15.569  -4.690   9.614  1.00  0.00    -0.316 N 
ATOM     10  H2  UNL     1      14.845  -4.864  10.311  1.00  0.00     0.169 HD
HETATM   11  C5  UNL     1      16.311  -3.545   9.698  1.00  0.00     0.078 A 
HETATM   12  C6  UNL     1      16.060  -2.697  10.688  1.00  0.00     0.139 C 
ENDROOT
BRANCH  12  13
HETATM   13  N3  UNL     1      15.063  -2.926  11.658  1.00  0.00    -0.308 N 
ATOM     14  H3  UNL     1      14.094  -2.646  11.502  1.00  0.00     0.186 HD
BRANCH  13  15
HETATM   15  N4  UNL     1      15.456  -3.549  12.836  1.00  0.00    -0.276 N 
HETATM   16  C7  UNL     1      15.619  -2.845  13.902  1.00  0.00     0.215 C 
HETATM   17  N5  UNL     1      15.427  -1.440  13.982  1.00  0.00    -0.065 NA
HETATM   18  N6  UNL     1      16.022  -3.549  15.070  1.00  0.00    -0.065 NA
ATOM     19  H4  UNL     1      15.615  -4.557  12.855  1.00  0.00     0.189 HD
ENDBRANCH  13  15
ENDBRANCH  12  13
TORSDOF 2
ENDMDL
MODEL 5
REMARK VINA RESULT: -7.142941219      4.085      5.441
REMARK  2 active torsions:
REMARK  status: ('A' for Active; 'I' for Inactive)
REMARK    1  A    between atoms: C6_12  and  N3_13 
REMARK    2  A    between atoms: N3_13  and  N4_15 
ROOT
HETATM    1  C1  UNL     1      15.625  -2.366  13.556  1.00  0.00     0.045 C 
HETATM    2  C2  UNL     1      15.630  -1.971  12.303  1.00  0.00     0.054 A 
HETATM    3  N1  UNL     1      15.906  -0.650  12.024  1.00  0.00    -0.318 N 
ATOM      4  H1  UNL     1      16.101  -0.011  12.794  1.00  0.00     0.169 HD
HETATM    5  C3  UNL     1      15.926  -0.189  10.785  1.00  0.00     0.314 A 
HETATM    6  O1  UNL     1      16.180   1.015  10.565  1.00  0.00    -0.262 OA
HETATM    7  C4  UNL     1      15.660  -1.075   9.764  1.00  0.00     0.314 A 
HETATM    8  O2  UNL     1      15.683  -0.619   8.577  1.00  0.00    -0.262 OA
HETATM    9  N2  UNL     1      15.390  -2.362  10.021  1.00  0.00    -0.316 N 
ATOM     10  H2  UNL     1      15.197  -2.992   9.243  1.00  0.00     0.169 HD
HETATM   11  C5  UNL     1      15.365  -2.853  11.296  1.00  0.00     0.078 A 
HETATM   12  C6  UNL     1      15.090  -4.139  11.475  1.00  0.00     0.139 C 
ENDROOT
BRANCH  12  13
HETATM   13  N3  UNL     1      14.823  -5.021  10.408  1.00  0.00    -0.308 N 
ATOM     14  H3  UNL     1      13.936  -5.521  10.340  1.00  0.00     0.186 HD
BRANCH  13  15
HETATM   15  N4  UNL     1      15.819  -5.180   9.453  1.00  0.00    -0.276 N 
HETATM   16  C7  UNL     1      15.623  -5.974   8.457  1.00  0.00     0.215 C 
HETATM   17  N5  UNL     1      14.437  -6.726   8.243  1.00  0.00    -0.065 NA
HETATM   18  N6  UNL     1      16.685  -6.087   7.519  1.00  0.00    -0.065 NA
ATOM     19  H4  UNL     1      16.700  -4.673   9.541  1.00  0.00     0.189 HD
ENDBRANCH  13  15
ENDBRANCH  12  13
TORSDOF 2
ENDMDL
