MODEL 1
REMARK VINA RESULT: -8.034474869      0.000      0.000
REMARK  2 active torsions:
REMARK  status: ('A' for Active; 'I' for Inactive)
REMARK    1  A    between atoms: C2_7  and  N3_8 
REMARK    2  A    between atoms: N3_8  and  C3_10 
ROOT
HETATM    1  C3  UNL     1      17.417  -3.633   8.747  1.00  0.00     0.131 A 
HETATM    2  C4  UNL     1      16.417  -3.848   9.585  1.00  0.00     0.053 A 
HETATM    3  C5  UNL     1      15.973  -3.188  10.711  1.00  0.00     0.124 A 
HETATM    4  N4  UNL     1      14.898  -3.851  11.183  1.00  0.00    -0.310 N 
ATOM      5  H4  UNL     1      14.367  -3.582  12.012  1.00  0.00     0.186 HD
HETATM    6  N5  UNL     1      14.629  -4.892  10.428  1.00  0.00    -0.300 N 
ATOM      7  H5  UNL     1      13.869  -5.558  10.564  1.00  0.00     0.187 HD
HETATM    8  C6  UNL     1      15.556  -4.918   9.427  1.00  0.00     0.061 A 
HETATM    9  C7  UNL     1      15.690  -5.765   8.440  1.00  0.00     0.024 A 
HETATM   10  C8  UNL     1      16.763  -5.632   7.443  1.00  0.00     0.151 A 
HETATM   11  N6  UNL     1      17.612  -4.510   7.667  1.00  0.00    -0.371 N 
ATOM     12  H6  UNL     1      18.386  -4.338   7.025  1.00  0.00     0.161 HD
ENDROOT
BRANCH   1  13
HETATM   13  N3  UNL     1      18.276  -2.543   8.930  1.00  0.00    -0.174 N 
ATOM     14  H3  UNL     1      17.892  -1.733   9.416  1.00  0.00     0.186 HD
BRANCH  13  15
HETATM   15  C2  UNL     1      19.483  -2.464   8.552  1.00  0.00     0.702 A 
HETATM   16  N2  UNL     1      20.046  -1.721   7.583  1.00  0.00    -0.128 N 
HETATM   17  N1  UNL     1      21.342  -1.974   7.556  1.00  0.00    -0.237 N 
ATOM     18  H2  UNL     1      19.554  -1.071   6.970  1.00  0.00     0.205 HD
HETATM   19  C1  UNL     1      21.636  -2.894   8.519  1.00  0.00     0.353 A 
ATOM     20  H1  UNL     1      22.015  -1.550   6.918  1.00  0.00     0.192 HD
HETATM   21  O1  UNL     1      22.795  -3.339   8.742  1.00  0.00    -0.245 OA
HETATM   22  N7  UNL     1      20.478  -3.195   9.135  1.00  0.00    -0.139 N 
ATOM     23  H7  UNL     1      20.363  -3.856   9.904  1.00  0.00     0.189 HD
ENDBRANCH  13  15
ENDBRANCH   1  13
TORSDOF 2
ENDMDL
MODEL 2
REMARK VINA RESULT: -7.921609748      1.364      2.570
REMARK  2 active torsions:
REMARK  status: ('A' for Active; 'I' for Inactive)
REMARK    1  A    between atoms: C2_7  and  N3_8 
REMARK    2  A    between atoms: N3_8  and  C3_10 
ROOT
HETATM    1  C3  UNL     1      17.090  -3.443   9.366  1.00  0.00     0.131 A 
HETATM    2  C4  UNL     1      16.566  -4.500   8.767  1.00  0.00     0.053 A 
HETATM    3  C5  UNL     1      16.931  -5.229   7.655  1.00  0.00     0.124 A 
HETATM    4  N4  UNL     1      16.026  -6.216   7.492  1.00  0.00    -0.310 N 
ATOM      5  H4  UNL     1      16.051  -6.909   6.744  1.00  0.00     0.186 HD
HETATM    6  N5  UNL     1      15.109  -6.160   8.431  1.00  0.00    -0.300 N 
ATOM      7  H5  UNL     1      14.313  -6.790   8.537  1.00  0.00     0.187 HD
HETATM    8  C6  UNL     1      15.416  -5.105   9.238  1.00  0.00     0.061 A 
HETATM    9  C7  UNL     1      14.794  -4.660  10.299  1.00  0.00     0.024 A 
HETATM   10  C8  UNL     1      15.278  -3.493  11.052  1.00  0.00     0.151 A 
HETATM   11  N6  UNL     1      16.466  -2.920  10.511  1.00  0.00    -0.371 N 
ATOM     12  H6  UNL     1      16.875  -2.106  10.968  1.00  0.00     0.161 HD
ENDROOT
BRANCH   1  13
HETATM   13  N3  UNL     1      18.255  -2.849   8.868  1.00  0.00    -0.174 N 
ATOM     14  H3  UNL     1      18.184  -1.876   8.573  1.00  0.00     0.186 HD
BRANCH  13  15
HETATM   15  C2  UNL     1      19.390  -3.402   8.749  1.00  0.00     0.702 A 
HETATM   16  N2  UNL     1      19.922  -4.449   9.401  1.00  0.00    -0.128 N 
HETATM   17  N1  UNL     1      21.138  -4.664   8.934  1.00  0.00    -0.237 N 
ATOM     18  H2  UNL     1      19.463  -4.989  10.136  1.00  0.00     0.205 HD
HETATM   19  C1  UNL     1      21.411  -3.747   7.962  1.00  0.00     0.353 A 
ATOM     20  H1  UNL     1      21.773  -5.398   9.249  1.00  0.00     0.192 HD
HETATM   21  O1  UNL     1      22.497  -3.694   7.323  1.00  0.00    -0.245 OA
HETATM   22  N7  UNL     1      20.321  -2.965   7.850  1.00  0.00    -0.139 N 
ATOM     23  H7  UNL     1      20.210  -2.181   7.206  1.00  0.00     0.189 HD
ENDBRANCH  13  15
ENDBRANCH   1  13
TORSDOF 2
ENDMDL
MODEL 3
REMARK VINA RESULT: -7.883981027      3.283      5.242
REMARK  2 active torsions:
REMARK  status: ('A' for Active; 'I' for Inactive)
REMARK    1  A    between atoms: C2_7  and  N3_8 
REMARK    2  A    between atoms: N3_8  and  C3_10 
ROOT
HETATM    1  C3  UNL     1      15.438  -2.691  11.614  1.00  0.00     0.131 A 
HETATM    2  C4  UNL     1      15.651  -1.454  11.195  1.00  0.00     0.053 A 
HETATM    3  C5  UNL     1      15.634  -0.865   9.949  1.00  0.00     0.124 A 
HETATM    4  N4  UNL     1      15.927   0.442  10.104  1.00  0.00    -0.310 N 
ATOM      5  H4  UNL     1      15.985   1.119   9.343  1.00  0.00     0.186 HD
HETATM    6  N5  UNL     1      16.128   0.722  11.373  1.00  0.00    -0.300 N 
ATOM      7  H5  UNL     1      16.364   1.636  11.760  1.00  0.00     0.187 HD
HETATM    8  C6  UNL     1      15.964  -0.435  12.075  1.00  0.00     0.061 A 
HETATM    9  C7  UNL     1      16.064  -0.647  13.362  1.00  0.00     0.024 A 
HETATM   10  C8  UNL     1      15.850  -1.979  13.948  1.00  0.00     0.151 A 
HETATM   11  N6  UNL     1      15.531  -2.980  12.985  1.00  0.00    -0.371 N 
ATOM     12  H6  UNL     1      15.366  -3.936  13.301  1.00  0.00     0.161 HD
ENDROOT
BRANCH   1  13
HETATM   13  N3  UNL     1      15.123  -3.704  10.702  1.00  0.00    -0.174 N 
ATOM     14  H3  UNL     1      14.145  -3.989  10.651  1.00  0.00     0.186 HD
BRANCH  13  15
HETATM   15  C2  UNL     1      15.933  -4.303   9.932  1.00  0.00     0.702 A 
HETATM   16  N2  UNL     1      17.273  -4.401   9.983  1.00  0.00    -0.128 N 
HETATM   17  N1  UNL     1      17.682  -5.130   8.961  1.00  0.00    -0.237 N 
ATOM     18  H2  UNL     1      17.874  -3.982  10.693  1.00  0.00     0.205 HD
HETATM   19  C1  UNL     1      16.599  -5.518   8.228  1.00  0.00     0.353 A 
ATOM     20  H1  UNL     1      18.652  -5.367   8.753  1.00  0.00     0.192 HD
HETATM   21  O1  UNL     1      16.666  -6.227   7.187  1.00  0.00    -0.245 OA
HETATM   22  N7  UNL     1      15.514  -5.001   8.836  1.00  0.00    -0.139 N 
ATOM     23  H7  UNL     1      14.548  -5.112   8.530  1.00  0.00     0.189 HD
ENDBRANCH  13  15
ENDBRANCH   1  13
TORSDOF 2
ENDMDL
MODEL 4
REMARK VINA RESULT: -7.848963016      2.731      4.536
REMARK  2 active torsions:
REMARK  status: ('A' for Active; 'I' for Inactive)
REMARK    1  A    between atoms: C2_7  and  N3_8 
REMARK    2  A    between atoms: N3_8  and  C3_10 
ROOT
HETATM    1  C3  UNL     1      15.717  -2.583  11.092  1.00  0.00     0.131 A 
HETATM    2  C4  UNL     1      15.867  -1.270  11.054  1.00  0.00     0.053 A 
HETATM    3  C5  UNL     1      16.050  -0.372  10.023  1.00  0.00     0.124 A 
HETATM    4  N4  UNL     1      16.146   0.861  10.561  1.00  0.00    -0.310 N 
ATOM      5  H4  UNL     1      16.286   1.719  10.026  1.00  0.00     0.186 HD
HETATM    6  N5  UNL     1      16.035   0.804  11.869  1.00  0.00    -0.300 N 
ATOM      7  H5  UNL     1      16.073   1.594  12.514  1.00  0.00     0.187 HD
HETATM    8  C6  UNL     1      15.861  -0.506  12.206  1.00  0.00     0.061 A 
HETATM    9  C7  UNL     1      15.707  -1.047  13.386  1.00  0.00     0.024 A 
HETATM   10  C8  UNL     1      15.530  -2.497  13.559  1.00  0.00     0.151 A 
HETATM   11  N6  UNL     1      15.547  -3.222  12.331  1.00  0.00    -0.371 N 
ATOM     12  H6  UNL     1      15.432  -4.235  12.354  1.00  0.00     0.161 HD
ENDROOT
BRANCH   1  13
HETATM   13  N3  UNL     1      15.728  -3.334   9.911  1.00  0.00    -0.174 N 
ATOM     14  H3  UNL     1      14.830  -3.474   9.448  1.00  0.00     0.186 HD
BRANCH  13  15
HETATM   15  C2  UNL     1      16.743  -3.856   9.360  1.00  0.00     0.702 A 
HETATM   16  N2  UNL     1      17.273  -3.656   8.140  1.00  0.00    -0.128 N 
HETATM   17  N1  UNL     1      18.335  -4.429   8.010  1.00  0.00    -0.237 N 
ATOM     18  H2  UNL     1      16.913  -3.014   7.434  1.00  0.00     0.205 HD
HETATM   19  C1  UNL     1      18.508  -5.146   9.157  1.00  0.00     0.353 A 
ATOM     20  H1  UNL     1      18.932  -4.481   7.184  1.00  0.00     0.192 HD
HETATM   21  O1  UNL     1      19.442  -5.975   9.339  1.00  0.00    -0.245 OA
HETATM   22  N7  UNL     1      17.517  -4.787   9.993  1.00  0.00    -0.139 N 
ATOM     23  H7  UNL     1      17.368  -5.148  10.935  1.00  0.00     0.189 HD
ENDBRANCH  13  15
ENDBRANCH   1  13
TORSDOF 2
ENDMDL
MODEL 5
REMARK VINA RESULT: -7.809670416      3.223      5.063
REMARK  2 active torsions:
REMARK  status: ('A' for Active; 'I' for Inactive)
REMARK    1  A    between atoms: C2_7  and  N3_8 
REMARK    2  A    between atoms: N3_8  and  C3_10 
ROOT
HETATM    1  C3  UNL     1      16.141  -3.437   9.771  1.00  0.00     0.131 A 
HETATM    2  C4  UNL     1      15.762  -4.549   9.162  1.00  0.00     0.053 A 
HETATM    3  C5  UNL     1      14.611  -5.305   9.212  1.00  0.00     0.124 A 
HETATM    4  N4  UNL     1      14.766  -6.351   8.375  1.00  0.00    -0.310 N 
ATOM      5  H4  UNL     1      14.066  -7.076   8.215  1.00  0.00     0.186 HD
HETATM    6  N5  UNL     1      15.944  -6.306   7.793  1.00  0.00    -0.300 N 
ATOM      7  H5  UNL     1      16.310  -6.976   7.117  1.00  0.00     0.187 HD
HETATM    8  C6  UNL     1      16.586  -5.198   8.262  1.00  0.00     0.061 A 
HETATM    9  C7  UNL     1      17.777  -4.743   7.972  1.00  0.00     0.024 A 
HETATM   10  C8  UNL     1      18.311  -3.516   8.583  1.00  0.00     0.151 A 
HETATM   11  N6  UNL     1      17.409  -2.900   9.500  1.00  0.00    -0.371 N 
ATOM     12  H6  UNL     1      17.695  -2.042   9.973  1.00  0.00     0.161 HD
ENDROOT
BRANCH   1  13
HETATM   13  N3  UNL     1      15.287  -2.799  10.678  1.00  0.00    -0.174 N 
ATOM     14  H3  UNL     1      14.415  -2.426  10.304  1.00  0.00     0.186 HD
BRANCH  13  15
HETATM   15  C2  UNL     1      15.491  -2.640  11.920  1.00  0.00     0.702 A 
HETATM   16  N2  UNL     1      15.857  -1.546  12.610  1.00  0.00    -0.128 N 
HETATM   17  N1  UNL     1      15.947  -1.864  13.888  1.00  0.00    -0.237 N 
ATOM     18  H2  UNL     1      16.035  -0.624  12.212  1.00  0.00     0.205 HD
HETATM   19  C1  UNL     1      15.637  -3.182  14.043  1.00  0.00     0.353 A 
ATOM     20  H1  UNL     1      16.207  -1.225  14.640  1.00  0.00     0.192 HD
HETATM   21  O1  UNL     1      15.633  -3.784  15.151  1.00  0.00    -0.245 OA
HETATM   22  N7  UNL     1      15.354  -3.661  12.817  1.00  0.00    -0.139 N 
ATOM     23  H7  UNL     1      15.085  -4.620  12.595  1.00  0.00     0.189 HD
ENDBRANCH  13  15
ENDBRANCH   1  13
TORSDOF 2
ENDMDL
