MODEL 1
REMARK VINA RESULT: -6.631782585      0.000      0.000
REMARK  3 active torsions:
REMARK  status: ('A' for Active; 'I' for Inactive)
REMARK    1  A    between atoms: N1_1  and  C1_5 
REMARK    2  A    between atoms: C1_5  and  N2_6 
REMARK    3  A    between atoms: C1_5  and  C2_10 
ROOT
HETATM    1  C2  UNL     1      17.712  -4.078   8.266  1.00  0.00     0.234 A 
HETATM    2  N3  UNL     1      17.758  -2.646   8.284  1.00  0.00    -0.356 N 
ATOM      3  H3  UNL     1      18.393  -2.188   7.630  1.00  0.00     0.162 HD
HETATM    4  C3  UNL     1      17.067  -1.895   9.057  1.00  0.00     0.151 A 
HETATM    5  N4  UNL     1      17.016  -0.522   9.177  1.00  0.00    -0.292 N 
ATOM      6  H4  UNL     1      17.555   0.154   8.636  1.00  0.00     0.172 HD
HETATM    7  C4  UNL     1      16.131  -0.247  10.133  1.00  0.00     0.327 A 
HETATM    8  O1  UNL     1      15.849   0.949  10.491  1.00  0.00    -0.247 OA
HETATM    9  N5  UNL     1      15.614  -1.384  10.627  1.00  0.00    -0.291 N 
ATOM     10  H5  UNL     1      14.915  -1.456  11.366  1.00  0.00     0.172 HD
HETATM   11  C5  UNL     1      16.194  -2.431   9.960  1.00  0.00     0.156 A 
HETATM   12  N6  UNL     1      16.058  -3.700  10.044  1.00  0.00    -0.308 N 
ATOM     13  H6  UNL     1      15.397  -4.063  10.731  1.00  0.00     0.170 HD
HETATM   14  C6  UNL     1      16.762  -4.634   9.249  1.00  0.00     0.250 A 
HETATM   15  O2  UNL     1      16.612  -5.871   9.350  1.00  0.00    -0.271 OA
ENDROOT
BRANCH   1  16
HETATM   16  C1  UNL     1      19.125  -4.570   8.496  1.00  0.00     0.409 C 
BRANCH  16  17
HETATM   17  N1  UNL     1      20.113  -3.631   8.041  1.00  0.00    -0.048 N 
ATOM     18  H13 UNL     1      20.081  -2.760   8.571  1.00  0.00     0.276 HD
ATOM     19  H12 UNL     1      21.058  -3.927   8.288  1.00  0.00     0.276 HD
ATOM     20  H11 UNL     1      20.018  -3.467   7.039  1.00  0.00     0.276 HD
ENDBRANCH  16  17
BRANCH  16  21
HETATM   21  N2  UNL     1      19.352  -4.917   9.890  1.00  0.00    -0.048 N 
ATOM     22  H23 UNL     1      19.108  -5.888  10.083  1.00  0.00     0.276 HD
ATOM     23  H22 UNL     1      20.347  -4.962  10.112  1.00  0.00     0.276 HD
ATOM     24  H21 UNL     1      18.856  -4.272  10.506  1.00  0.00     0.276 HD
ENDBRANCH  16  21
ENDBRANCH   1  16
TORSDOF 3
ENDMDL
MODEL 2
REMARK VINA RESULT: -6.589385084      1.810      4.653
REMARK  3 active torsions:
REMARK  status: ('A' for Active; 'I' for Inactive)
REMARK    1  A    between atoms: N1_1  and  C1_5 
REMARK    2  A    between atoms: C1_5  and  N2_6 
REMARK    3  A    between atoms: C1_5  and  C2_10 
ROOT
HETATM    1  C2  UNL     1      15.778  -3.025   9.971  1.00  0.00     0.234 A 
HETATM    2  N3  UNL     1      16.790  -4.034  10.075  1.00  0.00    -0.356 N 
ATOM      3  H3  UNL     1      16.563  -4.873  10.609  1.00  0.00     0.162 HD
HETATM    4  C3  UNL     1      17.956  -3.967   9.551  1.00  0.00     0.151 A 
HETATM    5  N4  UNL     1      19.011  -4.855   9.574  1.00  0.00    -0.292 N 
ATOM      6  H4  UNL     1      19.031  -5.761  10.041  1.00  0.00     0.172 HD
HETATM    7  C4  UNL     1      20.000  -4.304   8.871  1.00  0.00     0.327 A 
HETATM    8  O1  UNL     1      21.129  -4.879   8.698  1.00  0.00    -0.247 OA
HETATM    9  N5  UNL     1      19.620  -3.105   8.400  1.00  0.00    -0.291 N 
ATOM     10  H5  UNL     1      20.187  -2.475   7.831  1.00  0.00     0.172 HD
HETATM   11  C5  UNL     1      18.336  -2.877   8.820  1.00  0.00     0.156 A 
HETATM   12  N6  UNL     1      17.523  -1.904   8.651  1.00  0.00    -0.308 N 
ATOM     13  H6  UNL     1      17.843  -1.108   8.101  1.00  0.00     0.170 HD
HETATM   14  C6  UNL     1      16.211  -1.858   9.177  1.00  0.00     0.250 A 
HETATM   15  O2  UNL     1      15.434  -0.895   8.998  1.00  0.00    -0.271 OA
ENDROOT
BRANCH   1  16
HETATM   16  C1  UNL     1      15.388  -2.642  11.382  1.00  0.00     0.409 C 
BRANCH  16  17
HETATM   17  N1  UNL     1      15.526  -3.735  12.305  1.00  0.00    -0.048 N 
ATOM     18  H13 UNL     1      15.943  -4.554  11.862  1.00  0.00     0.276 HD
ATOM     19  H12 UNL     1      16.248  -3.553  13.002  1.00  0.00     0.276 HD
ATOM     20  H11 UNL     1      14.629  -3.955  12.738  1.00  0.00     0.276 HD
ENDBRANCH  16  17
BRANCH  16  21
HETATM   21  N2  UNL     1      16.132  -1.482  11.848  1.00  0.00    -0.048 N 
ATOM     22  H23 UNL     1      16.060  -0.700  11.197  1.00  0.00     0.276 HD
ATOM     23  H22 UNL     1      15.687  -1.048  12.658  1.00  0.00     0.276 HD
ATOM     24  H21 UNL     1      17.103  -1.730  12.038  1.00  0.00     0.276 HD
ENDBRANCH  16  21
ENDBRANCH   1  16
TORSDOF 3
ENDMDL
MODEL 3
REMARK VINA RESULT: -6.525143552      1.789      2.201
REMARK  3 active torsions:
REMARK  status: ('A' for Active; 'I' for Inactive)
REMARK    1  A    between atoms: N1_1  and  C1_5 
REMARK    2  A    between atoms: C1_5  and  N2_6 
REMARK    3  A    between atoms: C1_5  and  C2_10 
ROOT
HETATM    1  C2  UNL     1      15.522  -3.391   9.627  1.00  0.00     0.234 A 
HETATM    2  N3  UNL     1      15.890  -2.045   9.301  1.00  0.00    -0.356 N 
ATOM      3  H3  UNL     1      16.091  -1.838   8.322  1.00  0.00     0.162 HD
HETATM    4  C3  UNL     1      15.987  -1.083  10.138  1.00  0.00     0.151 A 
HETATM    5  N4  UNL     1      16.327   0.242   9.960  1.00  0.00    -0.292 N 
ATOM      6  H4  UNL     1      16.571   0.692   9.078  1.00  0.00     0.172 HD
HETATM    7  C4  UNL     1      16.278   0.822  11.158  1.00  0.00     0.327 A 
HETATM    8  O1  UNL     1      16.542   2.061  11.338  1.00  0.00    -0.247 OA
HETATM    9  N5  UNL     1      15.920  -0.074  12.092  1.00  0.00    -0.291 N 
ATOM     10  H5  UNL     1      15.807   0.109  13.089  1.00  0.00     0.172 HD
HETATM   11  C5  UNL     1      15.734  -1.279  11.466  1.00  0.00     0.156 A 
HETATM   12  N6  UNL     1      15.395  -2.438  11.890  1.00  0.00    -0.308 N 
ATOM     13  H6  UNL     1      15.215  -2.545  12.887  1.00  0.00     0.170 HD
HETATM   14  C6  UNL     1      15.254  -3.579  11.067  1.00  0.00     0.250 A 
HETATM   15  O2  UNL     1      14.921  -4.702  11.504  1.00  0.00    -0.271 OA
ENDROOT
BRANCH   1  16
HETATM   16  C1  UNL     1      16.638  -4.287   9.134  1.00  0.00     0.409 C 
BRANCH  16  17
HETATM   17  N1  UNL     1      17.348  -3.717   8.022  1.00  0.00    -0.048 N 
ATOM     18  H13 UNL     1      17.432  -2.704   8.106  1.00  0.00     0.276 HD
ATOM     19  H12 UNL     1      18.339  -3.956   8.043  1.00  0.00     0.276 HD
ATOM     20  H11 UNL     1      16.912  -3.988   7.141  1.00  0.00     0.276 HD
ENDBRANCH  16  17
BRANCH  16  21
HETATM   21  N2  UNL     1      17.559  -4.637  10.204  1.00  0.00    -0.048 N 
ATOM     22  H23 UNL     1      17.471  -5.617  10.473  1.00  0.00     0.276 HD
ATOM     23  H22 UNL     1      18.526  -4.653   9.880  1.00  0.00     0.276 HD
ATOM     24  H21 UNL     1      17.437  -4.013  11.002  1.00  0.00     0.276 HD
ENDBRANCH  16  21
ENDBRANCH   1  16
TORSDOF 3
ENDMDL
MODEL 4
REMARK VINA RESULT: -6.326679084      1.779      2.792
REMARK  3 active torsions:
REMARK  status: ('A' for Active; 'I' for Inactive)
REMARK    1  A    between atoms: N1_1  and  C1_5 
REMARK    2  A    between atoms: C1_5  and  N2_6 
REMARK    3  A    between atoms: C1_5  and  C2_10 
ROOT
HETATM    1  C2  UNL     1      16.606  -5.486   9.531  1.00  0.00     0.234 A 
HETATM    2  N3  UNL     1      15.705  -4.399   9.777  1.00  0.00    -0.356 N 
ATOM      3  H3  UNL     1      14.732  -4.633   9.976  1.00  0.00     0.162 HD
HETATM    4  C3  UNL     1      16.023  -3.160   9.766  1.00  0.00     0.151 A 
HETATM    5  N4  UNL     1      15.265  -2.029   9.982  1.00  0.00    -0.292 N 
ATOM      6  H4  UNL     1      14.268  -1.999  10.199  1.00  0.00     0.172 HD
HETATM    7  C4  UNL     1      16.080  -0.982   9.856  1.00  0.00     0.327 A 
HETATM    8  O1  UNL     1      15.682   0.225   9.998  1.00  0.00    -0.247 OA
HETATM    9  N5  UNL     1      17.324  -1.397   9.569  1.00  0.00    -0.291 N 
ATOM     10  H5  UNL     1      18.138  -0.800   9.422  1.00  0.00     0.172 HD
HETATM   11  C5  UNL     1      17.305  -2.766   9.508  1.00  0.00     0.156 A 
HETATM   12  N6  UNL     1      18.209  -3.640   9.272  1.00  0.00    -0.308 N 
ATOM     13  H6  UNL     1      19.154  -3.308   9.083  1.00  0.00     0.170 HD
HETATM   14  C6  UNL     1      17.985  -5.037   9.255  1.00  0.00     0.250 A 
HETATM   15  O2  UNL     1      18.885  -5.872   9.022  1.00  0.00    -0.271 OA
ENDROOT
BRANCH   1  16
HETATM   16  C1  UNL     1      16.029  -6.290   8.386  1.00  0.00     0.409 C 
BRANCH  16  17
HETATM   17  N1  UNL     1      14.592  -6.259   8.364  1.00  0.00    -0.048 N 
ATOM     18  H13 UNL     1      14.223  -6.450   7.432  1.00  0.00     0.276 HD
ATOM     19  H12 UNL     1      14.189  -7.057   8.855  1.00  0.00     0.276 HD
ATOM     20  H11 UNL     1      14.246  -5.373   8.733  1.00  0.00     0.276 HD
ENDBRANCH  16  17
BRANCH  16  21
HETATM   21  N2  UNL     1      16.569  -5.864   7.105  1.00  0.00    -0.048 N 
ATOM     22  H23 UNL     1      16.791  -6.659   6.505  1.00  0.00     0.276 HD
ATOM     23  H22 UNL     1      15.858  -5.425   6.521  1.00  0.00     0.276 HD
ATOM     24  H21 UNL     1      17.377  -5.255   7.240  1.00  0.00     0.276 HD
ENDBRANCH  16  21
ENDBRANCH   1  16
TORSDOF 3
ENDMDL
MODEL 5
REMARK VINA RESULT: -6.303406719      2.351      2.882
REMARK  3 active torsions:
REMARK  status: ('A' for Active; 'I' for Inactive)
REMARK    1  A    between atoms: N1_1  and  C1_5 
REMARK    2  A    between atoms: C1_5  and  N2_6 
REMARK    3  A    between atoms: C1_5  and  C2_10 
ROOT
HETATM    1  C2  UNL     1      16.081  -3.436   9.457  1.00  0.00     0.234 A 
HETATM    2  N3  UNL     1      16.260  -2.325  10.344  1.00  0.00    -0.356 N 
ATOM      3  H3  UNL     1      16.699  -1.486   9.963  1.00  0.00     0.162 HD
HETATM    4  C3  UNL     1      15.912  -2.301  11.575  1.00  0.00     0.151 A 
HETATM    5  N4  UNL     1      16.025  -1.310  12.528  1.00  0.00    -0.292 N 
ATOM      6  H4  UNL     1      16.428  -0.383  12.394  1.00  0.00     0.172 HD
HETATM    7  C4  UNL     1      15.507  -1.794  13.657  1.00  0.00     0.327 A 
HETATM    8  O1  UNL     1      15.459  -1.117  14.741  1.00  0.00    -0.247 OA
HETATM    9  N5  UNL     1      15.070  -3.049  13.464  1.00  0.00    -0.291 N 
ATOM     10  H5  UNL     1      14.631  -3.646  14.165  1.00  0.00     0.172 HD
HETATM   11  C5  UNL     1      15.318  -3.383  12.159  1.00  0.00     0.156 A 
HETATM   12  N6  UNL     1      15.101  -4.442  11.474  1.00  0.00    -0.308 N 
ATOM     13  H6  UNL     1      14.656  -5.229  11.945  1.00  0.00     0.170 HD
HETATM   14  C6  UNL     1      15.437  -4.593  10.109  1.00  0.00     0.250 A 
HETATM   15  O2  UNL     1      15.215  -5.638   9.460  1.00  0.00    -0.271 OA
ENDROOT
BRANCH   1  16
HETATM   16  C1  UNL     1      17.446  -3.782   8.900  1.00  0.00     0.409 C 
BRANCH  16  17
HETATM   17  N1  UNL     1      18.176  -4.677   9.755  1.00  0.00    -0.048 N 
ATOM     18  H13 UNL     1      17.577  -5.092  10.469  1.00  0.00     0.276 HD
ATOM     19  H12 UNL     1      18.446  -5.530   9.266  1.00  0.00     0.276 HD
ATOM     20  H11 UNL     1      18.981  -4.205  10.165  1.00  0.00     0.276 HD
ENDBRANCH  16  17
BRANCH  16  21
HETATM   21  N2  UNL     1      17.355  -4.320   7.552  1.00  0.00    -0.048 N 
ATOM     22  H23 UNL     1      18.277  -4.491   7.150  1.00  0.00     0.276 HD
ATOM     23  H22 UNL     1      17.007  -5.279   7.551  1.00  0.00     0.276 HD
ATOM     24  H21 UNL     1      16.791  -3.711   6.959  1.00  0.00     0.276 HD
ENDBRANCH  16  21
ENDBRANCH   1  16
TORSDOF 3
ENDMDL
