MODEL 1
REMARK VINA RESULT: -7.084684388      0.000      0.000
REMARK  3 active torsions:
REMARK  status: ('A' for Active; 'I' for Inactive)
REMARK    1  A    between atoms: N1_4  and  N2_6 
REMARK    2  A    between atoms: C6_15  and  C7_16 
REMARK    3  A    between atoms: N5_17  and  N6_19 
ROOT
HETATM    1  C1  UNL     1      18.210  -1.457   8.180  1.00  0.00     0.027 C 
HETATM    2  C2  UNL     1      17.867  -2.586   8.789  1.00  0.00     0.003 A 
HETATM    3  C3  UNL     1      16.563  -2.732   9.426  1.00  0.00     0.126 A 
HETATM    4  N1  UNL     1      15.678  -1.869   9.471  1.00  0.00    -0.301 N 
ATOM      5  H1  UNL     1      14.860  -2.211   9.973  1.00  0.00     0.186 HD
HETATM    6  C4  UNL     1      16.311  -4.062  10.076  1.00  0.00     0.275 A 
HETATM    7  O1  UNL     1      15.184  -4.186  10.626  1.00  0.00    -0.266 OA
HETATM    8  N3  UNL     1      17.256  -5.101  10.077  1.00  0.00    -0.309 N 
ATOM      9  H3  UNL     1      17.052  -5.993  10.528  1.00  0.00     0.170 HD
HETATM   10  C5  UNL     1      18.494  -4.882   9.439  1.00  0.00     0.131 A 
HETATM   11  N4  UNL     1      19.424  -5.960   9.463  1.00  0.00    -0.082 NA
HETATM   12  C6  UNL     1      18.800  -3.726   8.835  1.00  0.00     0.034 A 
ENDROOT
BRANCH  12  13
HETATM   13  C7  UNL     1      20.101  -3.617   8.214  1.00  0.00     0.124 C 
HETATM   14  N5  UNL     1      21.165  -3.501   8.973  1.00  0.00    -0.297 N 
ATOM     15  H5  UNL     1      21.078  -3.486   9.989  1.00  0.00     0.187 HD
BRANCH  14  16
HETATM   16  N6  UNL     1      22.411  -3.400   8.368  1.00  0.00    -0.250 N 
HETATM   17  N7  UNL     1      22.951  -4.412   7.832  1.00  0.00    -0.331 N 
ATOM     18  H72 UNL     1      22.453  -5.302   7.852  1.00  0.00     0.178 HD
ATOM     19  H71 UNL     1      23.866  -4.337   7.388  1.00  0.00     0.178 HD
ATOM     20  H6  UNL     1      22.896  -2.502   8.355  1.00  0.00     0.207 HD
ENDBRANCH  14  16
ENDBRANCH  12  13
BRANCH   4  21
HETATM   21  N2  UNL     1      15.490  -0.618   9.049  1.00  0.00    -0.344 N 
ATOM     22  H22 UNL     1      16.115   0.008   9.556  1.00  0.00     0.176 HD
ATOM     23  H21 UNL     1      14.906  -0.124   8.375  1.00  0.00     0.176 HD
ENDBRANCH   4  21
TORSDOF 3
ENDMDL
MODEL 2
REMARK VINA RESULT: -6.703052916      3.323      4.752
REMARK  3 active torsions:
REMARK  status: ('A' for Active; 'I' for Inactive)
REMARK    1  A    between atoms: N1_4  and  N2_6 
REMARK    2  A    between atoms: C6_15  and  C7_16 
REMARK    3  A    between atoms: N5_17  and  N6_19 
ROOT
HETATM    1  C1  UNL     1      15.400  -4.229  11.746  1.00  0.00     0.027 C 
HETATM    2  C2  UNL     1      15.650  -2.963  11.434  1.00  0.00     0.003 A 
HETATM    3  C3  UNL     1      15.584  -1.912  12.442  1.00  0.00     0.126 A 
HETATM    4  N1  UNL     1      15.301  -2.069  13.636  1.00  0.00    -0.301 N 
ATOM      5  H1  UNL     1      15.320  -1.181  14.136  1.00  0.00     0.186 HD
HETATM    6  C4  UNL     1      15.890  -0.527  11.947  1.00  0.00     0.275 A 
HETATM    7  O1  UNL     1      15.832   0.380  12.819  1.00  0.00    -0.266 OA
HETATM    8  N3  UNL     1      16.220  -0.251  10.609  1.00  0.00    -0.309 N 
ATOM      9  H3  UNL     1      16.423   0.701  10.307  1.00  0.00     0.170 HD
HETATM   10  C5  UNL     1      16.263  -1.324   9.695  1.00  0.00     0.131 A 
HETATM   11  N4  UNL     1      16.600  -1.002   8.349  1.00  0.00    -0.082 NA
HETATM   12  C6  UNL     1      16.004  -2.588  10.054  1.00  0.00     0.034 A 
ENDROOT
BRANCH  12  13
HETATM   13  C7  UNL     1      16.079  -3.604   9.028  1.00  0.00     0.124 C 
HETATM   14  N5  UNL     1      17.214  -3.796   8.398  1.00  0.00    -0.297 N 
ATOM     15  H5  UNL     1      18.035  -3.236   8.627  1.00  0.00     0.187 HD
BRANCH  14  16
HETATM   16  N6  UNL     1      17.278  -4.775   7.415  1.00  0.00    -0.250 N 
HETATM   17  N7  UNL     1      16.518  -5.787   7.465  1.00  0.00    -0.331 N 
ATOM     18  H72 UNL     1      15.859  -5.869   8.239  1.00  0.00     0.178 HD
ATOM     19  H71 UNL     1      16.565  -6.507   6.742  1.00  0.00     0.178 HD
ATOM     20  H6  UNL     1      17.942  -4.678   6.647  1.00  0.00     0.207 HD
ENDBRANCH  14  16
ENDBRANCH  12  13
BRANCH   4  21
HETATM   21  N2  UNL     1      14.979  -3.070  14.455  1.00  0.00    -0.344 N 
ATOM     22  H22 UNL     1      14.472  -3.786  13.934  1.00  0.00     0.176 HD
ATOM     23  H21 UNL     1      15.095  -3.314  15.439  1.00  0.00     0.176 HD
ENDBRANCH   4  21
TORSDOF 3
ENDMDL
MODEL 3
REMARK VINA RESULT: -6.528590302      3.029      5.275
REMARK  3 active torsions:
REMARK  status: ('A' for Active; 'I' for Inactive)
REMARK    1  A    between atoms: N1_4  and  N2_6 
REMARK    2  A    between atoms: C6_15  and  C7_16 
REMARK    3  A    between atoms: N5_17  and  N6_19 
ROOT
HETATM    1  C1  UNL     1      14.468  -4.663  10.409  1.00  0.00     0.027 C 
HETATM    2  C2  UNL     1      15.481  -4.293   9.634  1.00  0.00     0.003 A 
HETATM    3  C3  UNL     1      16.020  -5.191   8.620  1.00  0.00     0.126 A 
HETATM    4  N1  UNL     1      15.620  -6.337   8.381  1.00  0.00    -0.301 N 
ATOM      5  H1  UNL     1      16.161  -6.762   7.627  1.00  0.00     0.186 HD
HETATM    6  C4  UNL     1      17.165  -4.641   7.818  1.00  0.00     0.275 A 
HETATM    7  O1  UNL     1      17.630  -5.419   6.943  1.00  0.00    -0.266 OA
HETATM    8  N3  UNL     1      17.687  -3.353   8.020  1.00  0.00    -0.309 N 
ATOM      9  H3  UNL     1      18.465  -3.010   7.456  1.00  0.00     0.170 HD
HETATM   10  C5  UNL     1      17.109  -2.544   9.020  1.00  0.00     0.131 A 
HETATM   11  N4  UNL     1      17.668  -1.246   9.193  1.00  0.00    -0.082 NA
HETATM   12  C6  UNL     1      16.086  -2.958   9.780  1.00  0.00     0.034 A 
ENDROOT
BRANCH  12  13
HETATM   13  C7  UNL     1      15.577  -2.040  10.775  1.00  0.00     0.124 C 
HETATM   14  N5  UNL     1      16.200  -1.932  11.924  1.00  0.00    -0.297 N 
ATOM     15  H5  UNL     1      17.033  -2.487  12.118  1.00  0.00     0.187 HD
BRANCH  14  16
HETATM   16  N6  UNL     1      15.704  -1.046  12.874  1.00  0.00    -0.250 N 
HETATM   17  N7  UNL     1      16.006   0.183  12.827  1.00  0.00    -0.331 N 
ATOM     18  H72 UNL     1      16.618   0.509  12.079  1.00  0.00     0.178 HD
ATOM     19  H71 UNL     1      15.642   0.833  13.524  1.00  0.00     0.178 HD
ATOM     20  H6  UNL     1      15.092  -1.389  13.614  1.00  0.00     0.207 HD
ENDBRANCH  14  16
ENDBRANCH  12  13
BRANCH   4  21
HETATM   21  N2  UNL     1      14.684  -7.175   8.827  1.00  0.00    -0.344 N 
ATOM     22  H22 UNL     1      15.029  -8.132   8.766  1.00  0.00     0.176 HD
ATOM     23  H21 UNL     1      13.737  -7.125   9.204  1.00  0.00     0.176 HD
ENDBRANCH   4  21
TORSDOF 3
ENDMDL
MODEL 4
REMARK VINA RESULT: -6.443586636      3.537      4.575
REMARK  3 active torsions:
REMARK  status: ('A' for Active; 'I' for Inactive)
REMARK    1  A    between atoms: N1_4  and  N2_6 
REMARK    2  A    between atoms: C6_15  and  C7_16 
REMARK    3  A    between atoms: N5_17  and  N6_19 
ROOT
HETATM    1  C1  UNL     1      16.387   0.171  11.116  1.00  0.00     0.027 C 
HETATM    2  C2  UNL     1      16.019  -0.874  11.848  1.00  0.00     0.003 A 
HETATM    3  C3  UNL     1      15.757  -0.739  13.276  1.00  0.00     0.126 A 
HETATM    4  N1  UNL     1      15.843   0.305  13.933  1.00  0.00    -0.301 N 
ATOM      5  H1  UNL     1      15.611   0.141  14.912  1.00  0.00     0.186 HD
HETATM    6  C4  UNL     1      15.350  -2.004  13.977  1.00  0.00     0.275 A 
HETATM    7  O1  UNL     1      15.125  -1.885  15.211  1.00  0.00    -0.266 OA
HETATM    8  N3  UNL     1      15.226  -3.236  13.314  1.00  0.00    -0.309 N 
ATOM      9  H3  UNL     1      14.947  -4.076  13.821  1.00  0.00     0.170 HD
HETATM   10  C5  UNL     1      15.497  -3.284  11.932  1.00  0.00     0.131 A 
HETATM   11  N4  UNL     1      15.361  -4.553  11.298  1.00  0.00    -0.082 NA
HETATM   12  C6  UNL     1      15.865  -2.203  11.231  1.00  0.00     0.034 A 
ENDROOT
BRANCH  12  13
HETATM   13  C7  UNL     1      16.116  -2.375   9.817  1.00  0.00     0.124 C 
HETATM   14  N5  UNL     1      17.206  -2.994   9.431  1.00  0.00    -0.297 N 
ATOM     15  H5  UNL     1      17.871  -3.351  10.117  1.00  0.00     0.187 HD
BRANCH  14  16
HETATM   16  N6  UNL     1      17.439  -3.156   8.071  1.00  0.00    -0.250 N 
HETATM   17  N7  UNL     1      17.457  -4.312   7.554  1.00  0.00    -0.331 N 
ATOM     18  H72 UNL     1      17.297  -5.120   8.156  1.00  0.00     0.178 HD
ATOM     19  H71 UNL     1      17.628  -4.431   6.556  1.00  0.00     0.178 HD
ATOM     20  H6  UNL     1      17.596  -2.337   7.484  1.00  0.00     0.207 HD
ENDBRANCH  14  16
ENDBRANCH  12  13
BRANCH   4  21
HETATM   21  N2  UNL     1      16.154   1.585  13.726  1.00  0.00    -0.344 N 
ATOM     22  H22 UNL     1      16.628   1.677  12.827  1.00  0.00     0.176 HD
ATOM     23  H21 UNL     1      16.052   2.479  14.206  1.00  0.00     0.176 HD
ENDBRANCH   4  21
TORSDOF 3
ENDMDL
MODEL 5
REMARK VINA RESULT: -6.435761418      3.668      4.756
REMARK  3 active torsions:
REMARK  status: ('A' for Active; 'I' for Inactive)
REMARK    1  A    between atoms: N1_4  and  N2_6 
REMARK    2  A    between atoms: C6_15  and  C7_16 
REMARK    3  A    between atoms: N5_17  and  N6_19 
ROOT
HETATM    1  C1  UNL     1      16.178  -0.042  10.110  1.00  0.00     0.027 C 
HETATM    2  C2  UNL     1      15.955  -0.703  11.241  1.00  0.00     0.003 A 
HETATM    3  C3  UNL     1      15.999  -0.025  12.531  1.00  0.00     0.126 A 
HETATM    4  N1  UNL     1      16.239   1.176  12.710  1.00  0.00    -0.301 N 
ATOM      5  H1  UNL     1      16.214   1.408  13.703  1.00  0.00     0.186 HD
HETATM    6  C4  UNL     1      15.728  -0.895  13.724  1.00  0.00     0.275 A 
HETATM    7  O1  UNL     1      15.768  -0.307  14.838  1.00  0.00    -0.266 OA
HETATM    8  N3  UNL     1      15.448  -2.268  13.618  1.00  0.00    -0.309 N 
ATOM      9  H3  UNL     1      15.268  -2.830  14.449  1.00  0.00     0.170 HD
HETATM   10  C5  UNL     1      15.422  -2.849  12.334  1.00  0.00     0.131 A 
HETATM   11  N4  UNL     1      15.136  -4.243  12.270  1.00  0.00    -0.082 NA
HETATM   12  C6  UNL     1      15.653  -2.145  11.218  1.00  0.00     0.034 A 
ENDROOT
BRANCH  12  13
HETATM   13  C7  UNL     1      15.600  -2.850   9.957  1.00  0.00     0.124 C 
HETATM   14  N5  UNL     1      16.579  -3.662   9.636  1.00  0.00    -0.297 N 
ATOM     15  H5  UNL     1      17.371  -3.795  10.265  1.00  0.00     0.187 HD
BRANCH  14  16
HETATM   16  N6  UNL     1      16.519  -4.337   8.423  1.00  0.00    -0.250 N 
HETATM   17  N7  UNL     1      17.463  -4.237   7.584  1.00  0.00    -0.331 N 
ATOM     18  H72 UNL     1      18.266  -3.654   7.816  1.00  0.00     0.178 HD
ATOM     19  H71 UNL     1      17.419  -4.733   6.693  1.00  0.00     0.178 HD
ATOM     20  H6  UNL     1      15.709  -4.917   8.206  1.00  0.00     0.207 HD
ENDBRANCH  14  16
ENDBRANCH  12  13
BRANCH   4  21
HETATM   21  N2  UNL     1      16.520   2.252  11.976  1.00  0.00    -0.344 N 
ATOM     22  H22 UNL     1      15.752   2.433  11.331  1.00  0.00     0.176 HD
ATOM     23  H21 UNL     1      17.276   2.931  11.882  1.00  0.00     0.176 HD
ENDBRANCH   4  21
TORSDOF 3
ENDMDL
