MODEL 1
REMARK VINA RESULT: -7.286434074      0.000      0.000
REMARK  4 active torsions:
REMARK  status: ('A' for Active; 'I' for Inactive)
REMARK    1  A    between atoms: N1_1  and  C1_5 
REMARK    2  A    between atoms: C1_5  and  C2_6 
REMARK    3  A    between atoms: C1_5  and  C3_8 
REMARK       I    between atoms: C3_8  and  N2_10 
REMARK    4  A    between atoms: N2_10  and  C4_12 
ROOT
HETATM    1  C4  UNL     1      19.672  -3.574   8.640  1.00  0.00     0.693 A 
HETATM    2  N3  UNL     1      20.636  -4.510   8.704  1.00  0.00    -0.141 N 
ATOM      3  H3  UNL     1      20.433  -5.403   9.154  1.00  0.00     0.189 HD
HETATM    4  C5  UNL     1      21.869  -4.297   8.187  1.00  0.00     0.342 A 
HETATM    5  O3  UNL     1      22.784  -5.170   8.242  1.00  0.00    -0.246 OA
HETATM    6  N4  UNL     1      22.094  -3.112   7.604  1.00  0.00    -0.260 N 
ATOM      7  H4  UNL     1      23.018  -2.938   7.209  1.00  0.00     0.175 HD
HETATM    8  C6  UNL     1      21.168  -2.138   7.510  1.00  0.00     0.342 A 
HETATM    9  O4  UNL     1      21.435  -1.039   6.950  1.00  0.00    -0.246 OA
HETATM   10  N5  UNL     1      19.961  -2.402   8.040  1.00  0.00    -0.141 N 
ATOM     11  H5  UNL     1      19.235  -1.686   7.987  1.00  0.00     0.189 HD
ENDROOT
BRANCH   1  12
HETATM   12  N2  UNL     1      18.487  -3.742   9.122  1.00  0.00    -0.157 N 
HETATM   13  C3  UNL     1      17.777  -4.948   9.069  1.00  0.00     0.273 C 
HETATM   14  O2  UNL     1      18.196  -5.938   9.726  1.00  0.00    -0.270 OA
ATOM     15  H2  UNL     1      18.037  -2.943   9.571  1.00  0.00     0.187 HD
BRANCH  13  16
HETATM   16  C1  UNL     1      16.537  -5.148   8.277  1.00  0.00     0.336 C 
BRANCH  16  17
HETATM   17  N1  UNL     1      16.791  -5.490   6.911  1.00  0.00    -0.060 N 
ATOM     18  H13 UNL     1      17.790  -5.621   6.751  1.00  0.00     0.275 HD
ATOM     19  H12 UNL     1      16.462  -6.434   6.708  1.00  0.00     0.275 HD
ATOM     20  H11 UNL     1      16.403  -4.822   6.247  1.00  0.00     0.275 HD
ENDBRANCH  16  17
BRANCH  16  21
HETATM   21  C2  UNL     1      15.690  -6.134   8.983  1.00  0.00     0.273 C 
HETATM   22  O1  UNL     1      15.265  -7.082   8.367  1.00  0.00    -0.304 OA
ENDBRANCH  16  21
ENDBRANCH  13  16
ENDBRANCH   1  12
TORSDOF 4
ENDMDL
MODEL 2
REMARK VINA RESULT: -7.264164596      0.068      2.050
REMARK  4 active torsions:
REMARK  status: ('A' for Active; 'I' for Inactive)
REMARK    1  A    between atoms: N1_1  and  C1_5 
REMARK    2  A    between atoms: C1_5  and  C2_6 
REMARK    3  A    between atoms: C1_5  and  C3_8 
REMARK       I    between atoms: C3_8  and  N2_10 
REMARK    4  A    between atoms: N2_10  and  C4_12 
ROOT
HETATM    1  C4  UNL     1      19.625  -3.481   8.622  1.00  0.00     0.693 A 
HETATM    2  N3  UNL     1      19.945  -2.320   8.023  1.00  0.00    -0.141 N 
ATOM      3  H3  UNL     1      19.244  -1.583   7.960  1.00  0.00     0.189 HD
HETATM    4  C5  UNL     1      21.176  -2.106   7.501  1.00  0.00     0.342 A 
HETATM    5  O3  UNL     1      21.489  -1.018   6.935  1.00  0.00    -0.246 OA
HETATM    6  N4  UNL     1      22.069  -3.099   7.606  1.00  0.00    -0.260 N 
ATOM      7  H4  UNL     1      23.001  -2.951   7.218  1.00  0.00     0.175 HD
HETATM    8  C6  UNL     1      21.805  -4.282   8.194  1.00  0.00     0.342 A 
HETATM    9  O4  UNL     1      22.685  -5.184   8.265  1.00  0.00    -0.246 OA
HETATM   10  N5  UNL     1      20.568  -4.442   8.695  1.00  0.00    -0.141 N 
ATOM     11  H5  UNL     1      20.333  -5.326   9.148  1.00  0.00     0.189 HD
ENDROOT
BRANCH   1  12
HETATM   12  N2  UNL     1      18.463  -3.721   9.129  1.00  0.00    -0.157 N 
HETATM   13  C3  UNL     1      17.801  -4.952   9.036  1.00  0.00     0.273 C 
HETATM   14  O2  UNL     1      18.278  -5.955   9.631  1.00  0.00    -0.270 OA
ATOM     15  H2  UNL     1      17.996  -2.965   9.629  1.00  0.00     0.187 HD
BRANCH  13  16
HETATM   16  C1  UNL     1      16.546  -5.164   8.271  1.00  0.00     0.336 C 
BRANCH  16  17
HETATM   17  N1  UNL     1      16.774  -5.505   6.900  1.00  0.00    -0.060 N 
ATOM     18  H13 UNL     1      17.572  -6.133   6.811  1.00  0.00     0.275 HD
ATOM     19  H12 UNL     1      16.037  -6.118   6.552  1.00  0.00     0.275 HD
ATOM     20  H11 UNL     1      16.884  -4.693   6.293  1.00  0.00     0.275 HD
ENDBRANCH  16  17
BRANCH  16  21
HETATM   21  C2  UNL     1      15.724  -6.159   8.995  1.00  0.00     0.273 C 
HETATM   22  O1  UNL     1      15.253  -7.083   8.377  1.00  0.00    -0.304 OA
ENDBRANCH  16  21
ENDBRANCH  13  16
ENDBRANCH   1  12
TORSDOF 4
ENDMDL
MODEL 3
REMARK VINA RESULT: -7.111347225      2.107      2.559
REMARK  4 active torsions:
REMARK  status: ('A' for Active; 'I' for Inactive)
REMARK    1  A    between atoms: N1_1  and  C1_5 
REMARK    2  A    between atoms: C1_5  and  C2_6 
REMARK    3  A    between atoms: C1_5  and  C3_8 
REMARK       I    between atoms: C3_8  and  N2_10 
REMARK    4  A    between atoms: N2_10  and  C4_12 
ROOT
HETATM    1  C4  UNL     1      18.297  -4.321   8.863  1.00  0.00     0.693 A 
HETATM    2  N3  UNL     1      19.618  -4.254   9.108  1.00  0.00    -0.141 N 
ATOM      3  H3  UNL     1      20.110  -5.092   9.415  1.00  0.00     0.189 HD
HETATM    4  C5  UNL     1      20.310  -3.100   8.956  1.00  0.00     0.342 A 
HETATM    5  O3  UNL     1      21.554  -3.025   9.183  1.00  0.00    -0.246 OA
HETATM    6  N4  UNL     1      19.627  -2.022   8.550  1.00  0.00    -0.260 N 
ATOM      7  H4  UNL     1      20.136  -1.146   8.430  1.00  0.00     0.175 HD
HETATM    8  C6  UNL     1      18.305  -2.030   8.290  1.00  0.00     0.342 A 
HETATM    9  O4  UNL     1      17.710  -0.984   7.909  1.00  0.00    -0.246 OA
HETATM   10  N5  UNL     1      17.666  -3.201   8.457  1.00  0.00    -0.141 N 
ATOM     11  H5  UNL     1      16.664  -3.244   8.269  1.00  0.00     0.189 HD
ENDROOT
BRANCH   1  12
HETATM   12  N2  UNL     1      17.605  -5.402   8.998  1.00  0.00    -0.157 N 
HETATM   13  C3  UNL     1      16.519  -5.750   8.184  1.00  0.00     0.273 C 
HETATM   14  O2  UNL     1      16.721  -6.017   6.970  1.00  0.00    -0.270 OA
ATOM     15  H2  UNL     1      17.865  -6.044   9.746  1.00  0.00     0.187 HD
BRANCH  13  16
HETATM   16  C1  UNL     1      15.115  -5.828   8.661  1.00  0.00     0.336 C 
BRANCH  16  17
HETATM   17  N1  UNL     1      14.633  -7.171   8.770  1.00  0.00    -0.060 N 
ATOM     18  H13 UNL     1      15.294  -7.828   8.356  1.00  0.00     0.275 HD
ATOM     19  H12 UNL     1      14.664  -7.489   9.739  1.00  0.00     0.275 HD
ATOM     20  H11 UNL     1      13.701  -7.301   8.377  1.00  0.00     0.275 HD
ENDBRANCH  16  17
BRANCH  16  21
HETATM   21  C2  UNL     1      15.009  -5.061   9.921  1.00  0.00     0.273 C 
HETATM   22  O1  UNL     1      15.028  -3.855   9.869  1.00  0.00    -0.304 OA
ENDBRANCH  16  21
ENDBRANCH  13  16
ENDBRANCH   1  12
TORSDOF 4
ENDMDL
MODEL 4
REMARK VINA RESULT: -7.051534393      2.718      3.873
REMARK  4 active torsions:
REMARK  status: ('A' for Active; 'I' for Inactive)
REMARK    1  A    between atoms: N1_1  and  C1_5 
REMARK    2  A    between atoms: C1_5  and  C2_6 
REMARK    3  A    between atoms: C1_5  and  C3_8 
REMARK       I    between atoms: C3_8  and  N2_10 
REMARK    4  A    between atoms: N2_10  and  C4_12 
ROOT
HETATM    1  C4  UNL     1      18.427  -3.857   8.744  1.00  0.00     0.693 A 
HETATM    2  N3  UNL     1      19.506  -3.573   7.992  1.00  0.00    -0.141 N 
ATOM      3  H3  UNL     1      19.440  -2.844   7.282  1.00  0.00     0.189 HD
HETATM    4  C5  UNL     1      20.679  -4.231   8.155  1.00  0.00     0.342 A 
HETATM    5  O3  UNL     1      21.700  -3.973   7.454  1.00  0.00    -0.246 OA
HETATM    6  N4  UNL     1      20.724  -5.180   9.099  1.00  0.00    -0.260 N 
ATOM      7  H4  UNL     1      21.601  -5.683   9.234  1.00  0.00     0.175 HD
HETATM    8  C6  UNL     1      19.677  -5.508   9.881  1.00  0.00     0.342 A 
HETATM    9  O4  UNL     1      19.776  -6.411  10.756  1.00  0.00    -0.246 OA
HETATM   10  N5  UNL     1      18.538  -4.824   9.678  1.00  0.00    -0.141 N 
ATOM     11  H5  UNL     1      17.724  -5.045  10.252  1.00  0.00     0.189 HD
ENDROOT
BRANCH   1  12
HETATM   12  N2  UNL     1      17.295  -3.252   8.616  1.00  0.00    -0.157 N 
HETATM   13  C3  UNL     1      17.104  -1.882   8.833  1.00  0.00     0.273 C 
HETATM   14  O2  UNL     1      17.646  -1.053   8.054  1.00  0.00    -0.270 OA
ATOM     15  H2  UNL     1      16.486  -3.808   8.340  1.00  0.00     0.187 HD
BRANCH  13  16
HETATM   16  C1  UNL     1      16.288  -1.321   9.940  1.00  0.00     0.336 C 
BRANCH  16  17
HETATM   17  N1  UNL     1      15.592  -0.125   9.576  1.00  0.00    -0.060 N 
ATOM     18  H13 UNL     1      14.878  -0.322   8.874  1.00  0.00     0.275 HD
ATOM     19  H12 UNL     1      14.995   0.192  10.340  1.00  0.00     0.275 HD
ATOM     20  H11 UNL     1      16.208   0.624   9.265  1.00  0.00     0.275 HD
ENDBRANCH  16  17
BRANCH  16  21
HETATM   21  C2  UNL     1      15.399  -2.389  10.448  1.00  0.00     0.273 C 
HETATM   22  O1  UNL     1      15.885  -3.302  11.071  1.00  0.00    -0.304 OA
ENDBRANCH  16  21
ENDBRANCH  13  16
ENDBRANCH   1  12
TORSDOF 4
ENDMDL
MODEL 5
REMARK VINA RESULT: -7.049607675      2.711      3.519
REMARK  4 active torsions:
REMARK  status: ('A' for Active; 'I' for Inactive)
REMARK    1  A    between atoms: N1_1  and  C1_5 
REMARK    2  A    between atoms: C1_5  and  C2_6 
REMARK    3  A    between atoms: C1_5  and  C3_8 
REMARK       I    between atoms: C3_8  and  N2_10 
REMARK    4  A    between atoms: N2_10  and  C4_12 
ROOT
HETATM    1  C4  UNL     1      18.377  -3.926   8.760  1.00  0.00     0.693 A 
HETATM    2  N3  UNL     1      18.518  -4.878   9.700  1.00  0.00    -0.141 N 
ATOM      3  H3  UNL     1      17.721  -5.118  10.289  1.00  0.00     0.189 HD
HETATM    4  C5  UNL     1      19.692  -5.528   9.883  1.00  0.00     0.342 A 
HETATM    5  O3  UNL     1      19.837  -6.425  10.763  1.00  0.00    -0.246 OA
HETATM    6  N4  UNL     1      20.714  -5.185   9.087  1.00  0.00    -0.260 N 
ATOM      7  H4  UNL     1      21.604  -5.667   9.212  1.00  0.00     0.175 HD
HETATM    8  C6  UNL     1      20.631  -4.240   8.130  1.00  0.00     0.342 A 
HETATM    9  O4  UNL     1      21.627  -3.956   7.408  1.00  0.00    -0.246 OA
HETATM   10  N5  UNL     1      19.443  -3.627   7.991  1.00  0.00    -0.141 N 
ATOM     11  H5  UNL     1      19.344  -2.906   7.276  1.00  0.00     0.189 HD
ENDROOT
BRANCH   1  12
HETATM   12  N2  UNL     1      17.274  -3.286   8.559  1.00  0.00    -0.157 N 
HETATM   13  C3  UNL     1      17.106  -1.914   8.784  1.00  0.00     0.273 C 
HETATM   14  O2  UNL     1      17.729  -1.091   8.062  1.00  0.00    -0.270 OA
ATOM     15  H2  UNL     1      16.473  -3.814   8.212  1.00  0.00     0.187 HD
BRANCH  13  16
HETATM   16  C1  UNL     1      16.225  -1.347   9.837  1.00  0.00     0.336 C 
BRANCH  16  17
HETATM   17  N1  UNL     1      15.478  -0.210   9.392  1.00  0.00    -0.060 N 
ATOM     18  H13 UNL     1      15.720   0.028   8.430  1.00  0.00     0.275 HD
ATOM     19  H12 UNL     1      14.495  -0.451   9.266  1.00  0.00     0.275 HD
ATOM     20  H11 UNL     1      15.576   0.602  10.001  1.00  0.00     0.275 HD
ENDBRANCH  16  17
BRANCH  16  21
HETATM   21  C2  UNL     1      15.378  -2.437  10.369  1.00  0.00     0.273 C 
HETATM   22  O1  UNL     1      15.891  -3.291  11.050  1.00  0.00    -0.304 OA
ENDBRANCH  16  21
ENDBRANCH  13  16
ENDBRANCH   1  12
TORSDOF 4
ENDMDL
