MODEL 1
REMARK VINA RESULT: -6.651775493      0.000      0.000
REMARK  2 active torsions:
REMARK  status: ('A' for Active; 'I' for Inactive)
REMARK    1  A    between atoms: C1_4  and  C2_6 
REMARK    2  A    between atoms: C3_7  and  C4_8 
ROOT
HETATM    1  C2  UNL     1      16.157  -3.214   9.620  1.00  0.00     0.104 A 
HETATM    2  C3  UNL     1      17.170  -3.191   8.730  1.00  0.00     0.121 A 
HETATM    3  N4  UNL     1      17.331  -4.294   7.905  1.00  0.00    -0.303 N 
ATOM      4  H4  UNL     1      18.095  -4.291   7.228  1.00  0.00     0.171 HD
HETATM    5  C5  UNL     1      16.533  -5.356   7.957  1.00  0.00     0.327 A 
HETATM    6  O2  UNL     1      16.714  -6.354   7.181  1.00  0.00    -0.247 OA
HETATM    7  N5  UNL     1      15.529  -5.359   8.844  1.00  0.00    -0.275 N 
ATOM      8  H5  UNL     1      14.918  -6.174   8.880  1.00  0.00     0.173 HD
HETATM    9  C6  UNL     1      15.293  -4.356   9.677  1.00  0.00     0.265 A 
HETATM   10  O3  UNL     1      14.344  -4.396  10.493  1.00  0.00    -0.267 OA
ENDROOT
BRANCH   1  11
HETATM   11  C1  UNL     1      15.933  -2.206  10.618  1.00  0.00     0.128 C 
HETATM   12  N1  UNL     1      16.114  -2.339  11.855  1.00  0.00    -0.387 N 
ATOM     13  H12 UNL     1      15.955  -1.623  12.564  1.00  0.00     0.157 HD
ATOM     14  H11 UNL     1      16.447  -3.254  12.159  1.00  0.00     0.157 HD
HETATM   15  N2  UNL     1      15.458  -0.901  10.184  1.00  0.00    -0.082 NA
ENDBRANCH   1  11
BRANCH   2  16
HETATM   16  C4  UNL     1      18.034  -2.070   8.476  1.00  0.00     0.282 C 
HETATM   17  N3  UNL     1      19.448  -2.268   8.822  1.00  0.00    -0.056 NA
HETATM   18  O1  UNL     1      17.748  -0.966   8.009  1.00  0.00    -0.269 OA
ENDBRANCH   2  16
TORSDOF 2
ENDMDL
MODEL 2
REMARK VINA RESULT: -6.475598948      2.196      4.435
REMARK  2 active torsions:
REMARK  status: ('A' for Active; 'I' for Inactive)
REMARK    1  A    between atoms: C1_4  and  C2_6 
REMARK    2  A    between atoms: C3_7  and  C4_8 
ROOT
HETATM    1  C2  UNL     1      15.740  -2.179  10.796  1.00  0.00     0.104 A 
HETATM    2  C3  UNL     1      15.641  -3.511  10.981  1.00  0.00     0.121 A 
HETATM    3  N4  UNL     1      15.526  -3.976  12.283  1.00  0.00    -0.303 N 
ATOM      4  H4  UNL     1      15.452  -4.981  12.439  1.00  0.00     0.171 HD
HETATM    5  C5  UNL     1      15.508  -3.167  13.338  1.00  0.00     0.327 A 
HETATM    6  O2  UNL     1      15.402  -3.633  14.522  1.00  0.00    -0.247 OA
HETATM    7  N5  UNL     1      15.604  -1.847  13.134  1.00  0.00    -0.275 N 
ATOM      8  H5  UNL     1      15.589  -1.229  13.945  1.00  0.00     0.173 HD
HETATM    9  C6  UNL     1      15.719  -1.304  11.930  1.00  0.00     0.265 A 
HETATM   10  O3  UNL     1      15.807  -0.064  11.780  1.00  0.00    -0.267 OA
ENDROOT
BRANCH   1  11
HETATM   11  C1  UNL     1      15.984  -1.555   9.525  1.00  0.00     0.128 C 
HETATM   12  N1  UNL     1      15.232  -0.725   8.954  1.00  0.00    -0.387 N 
ATOM     13  H12 UNL     1      15.405  -0.282   8.052  1.00  0.00     0.157 HD
ATOM     14  H11 UNL     1      14.374  -0.487   9.452  1.00  0.00     0.157 HD
HETATM   15  N2  UNL     1      17.207  -1.895   8.815  1.00  0.00    -0.082 NA
ENDBRANCH   1  11
BRANCH   2  16
HETATM   16  C4  UNL     1      15.524  -4.494   9.939  1.00  0.00     0.282 C 
HETATM   17  N3  UNL     1      16.750  -5.244   9.632  1.00  0.00    -0.056 NA
HETATM   18  O1  UNL     1      14.534  -4.791   9.265  1.00  0.00    -0.269 OA
ENDBRANCH   2  16
TORSDOF 2
ENDMDL
MODEL 3
REMARK VINA RESULT: -6.437726028      1.787      3.229
REMARK  2 active torsions:
REMARK  status: ('A' for Active; 'I' for Inactive)
REMARK    1  A    between atoms: C1_4  and  C2_6 
REMARK    2  A    between atoms: C3_7  and  C4_8 
ROOT
HETATM    1  C2  UNL     1      16.839  -4.010   8.811  1.00  0.00     0.104 A 
HETATM    2  C3  UNL     1      15.725  -3.973   9.571  1.00  0.00     0.121 A 
HETATM    3  N4  UNL     1      14.799  -4.993   9.411  1.00  0.00    -0.303 N 
ATOM      4  H4  UNL     1      13.951  -4.977   9.978  1.00  0.00     0.171 HD
HETATM    5  C5  UNL     1      14.969  -5.992   8.550  1.00  0.00     0.327 A 
HETATM    6  O2  UNL     1      14.092  -6.913   8.430  1.00  0.00    -0.247 OA
HETATM    7  N5  UNL     1      16.083  -6.014   7.806  1.00  0.00    -0.275 N 
ATOM      8  H5  UNL     1      16.211  -6.782   7.148  1.00  0.00     0.173 HD
HETATM    9  C6  UNL     1      17.026  -5.086   7.883  1.00  0.00     0.265 A 
HETATM   10  O3  UNL     1      18.054  -5.141   7.171  1.00  0.00    -0.267 OA
ENDROOT
BRANCH   1  11
HETATM   11  C1  UNL     1      17.829  -2.970   8.775  1.00  0.00     0.128 C 
HETATM   12  N1  UNL     1      19.020  -3.071   9.162  1.00  0.00    -0.387 N 
ATOM     13  H12 UNL     1      19.723  -2.333   9.137  1.00  0.00     0.157 HD
ATOM     14  H11 UNL     1      19.290  -3.981   9.536  1.00  0.00     0.157 HD
HETATM   15  N2  UNL     1      17.444  -1.672   8.243  1.00  0.00    -0.082 NA
ENDBRANCH   1  11
BRANCH   2  16
HETATM   16  C4  UNL     1      15.463  -3.030  10.624  1.00  0.00     0.282 C 
HETATM   17  N3  UNL     1      15.367  -3.599  11.976  1.00  0.00    -0.056 NA
HETATM   18  O1  UNL     1      15.304  -1.810  10.546  1.00  0.00    -0.269 OA
ENDBRANCH   2  16
TORSDOF 2
ENDMDL
MODEL 4
REMARK VINA RESULT: -6.426962468      1.669      4.780
REMARK  2 active torsions:
REMARK  status: ('A' for Active; 'I' for Inactive)
REMARK    1  A    between atoms: C1_4  and  C2_6 
REMARK    2  A    between atoms: C3_7  and  C4_8 
ROOT
HETATM    1  C2  UNL     1      17.023  -3.072   9.146  1.00  0.00     0.104 A 
HETATM    2  C3  UNL     1      15.934  -3.125   9.939  1.00  0.00     0.121 A 
HETATM    3  N4  UNL     1      15.538  -1.957  10.574  1.00  0.00    -0.303 N 
ATOM      4  H4  UNL     1      14.717  -1.983  11.179  1.00  0.00     0.171 HD
HETATM    5  C5  UNL     1      16.184  -0.804  10.429  1.00  0.00     0.327 A 
HETATM    6  O2  UNL     1      15.790   0.251  11.032  1.00  0.00    -0.247 OA
HETATM    7  N5  UNL     1      17.261  -0.769   9.634  1.00  0.00    -0.275 N 
ATOM      8  H5  UNL     1      17.753   0.117   9.523  1.00  0.00     0.173 HD
HETATM    9  C6  UNL     1      17.720  -1.830   8.985  1.00  0.00     0.265 A 
HETATM   10  O3  UNL     1      18.731  -1.757   8.250  1.00  0.00    -0.267 OA
ENDROOT
BRANCH   1  11
HETATM   11  C1  UNL     1      17.624  -4.215   8.518  1.00  0.00     0.128 C 
HETATM   12  N1  UNL     1      17.410  -4.611   7.345  1.00  0.00    -0.387 N 
ATOM     13  H12 UNL     1      17.836  -5.423   6.899  1.00  0.00     0.157 HD
ATOM     14  H11 UNL     1      16.743  -4.059   6.805  1.00  0.00     0.157 HD
HETATM   15  N2  UNL     1      18.574  -5.003   9.288  1.00  0.00    -0.082 NA
ENDBRANCH   1  11
BRANCH   2  16
HETATM   16  C4  UNL     1      15.068  -4.263  10.096  1.00  0.00     0.282 C 
HETATM   17  N3  UNL     1      14.634  -4.545  11.471  1.00  0.00    -0.056 NA
HETATM   18  O1  UNL     1      14.644  -5.034   9.233  1.00  0.00    -0.269 OA
ENDBRANCH   2  16
TORSDOF 2
ENDMDL
MODEL 5
REMARK VINA RESULT: -6.401483048      1.705      4.751
REMARK  2 active torsions:
REMARK  status: ('A' for Active; 'I' for Inactive)
REMARK    1  A    between atoms: C1_4  and  C2_6 
REMARK    2  A    between atoms: C3_7  and  C4_8 
ROOT
HETATM    1  C2  UNL     1      16.993  -2.700   9.323  1.00  0.00     0.104 A 
HETATM    2  C3  UNL     1      15.941  -2.582  10.158  1.00  0.00     0.121 A 
HETATM    3  N4  UNL     1      15.553  -1.303  10.533  1.00  0.00    -0.303 N 
ATOM      4  H4  UNL     1      14.760  -1.199  11.165  1.00  0.00     0.171 HD
HETATM    5  C5  UNL     1      16.171  -0.208  10.102  1.00  0.00     0.327 A 
HETATM    6  O2  UNL     1      15.785   0.952  10.470  1.00  0.00    -0.247 OA
HETATM    7  N5  UNL     1      17.212  -0.345   9.270  1.00  0.00    -0.275 N 
ATOM      8  H5  UNL     1      17.682   0.497   8.940  1.00  0.00     0.173 HD
HETATM    9  C6  UNL     1      17.660  -1.521   8.855  1.00  0.00     0.265 A 
HETATM   10  O3  UNL     1      18.637  -1.608   8.077  1.00  0.00    -0.267 OA
ENDROOT
BRANCH   1  11
HETATM   11  C1  UNL     1      17.586  -3.951   8.941  1.00  0.00     0.128 C 
HETATM   12  N1  UNL     1      18.508  -4.548   9.551  1.00  0.00    -0.387 N 
ATOM     13  H12 UNL     1      18.930  -5.436   9.281  1.00  0.00     0.157 HD
ATOM     14  H11 UNL     1      18.857  -4.085  10.391  1.00  0.00     0.157 HD
HETATM   15  N2  UNL     1      17.089  -4.611   7.744  1.00  0.00    -0.082 NA
ENDBRANCH   1  11
BRANCH   2  16
HETATM   16  C4  UNL     1      15.104  -3.661  10.606  1.00  0.00     0.282 C 
HETATM   17  N3  UNL     1      15.140  -3.936  12.050  1.00  0.00    -0.056 NA
HETATM   18  O1  UNL     1      14.361  -4.389   9.944  1.00  0.00    -0.269 OA
ENDBRANCH   2  16
TORSDOF 2
ENDMDL
