MODEL 1
REMARK VINA RESULT: -9.931071607      0.000      0.000
REMARK  5 active torsions:
REMARK  status: ('A' for Active; 'I' for Inactive)
REMARK    1  A    between atoms: C2_2  and  C3_3 
REMARK    2  A    between atoms: C3_3  and  C4_4 
REMARK    3  A    between atoms: C4_4  and  C5_5 
REMARK    4  A    between atoms: C9_9  and  C10_10 
REMARK    5  A    between atoms: C14_17  and  C15_18 
ROOT
HETATM    1  C10 UNL     1      48.646   8.451  11.589  1.00  0.00     0.005 A 
HETATM    2  C11 UNL     1      47.964   9.096  12.605  1.00  0.00     0.055 A 
HETATM    3  C12 UNL     1      48.259  10.448  12.485  1.00  0.00     0.115 A 
HETATM    4  C13 UNL     1      47.746  11.460  13.353  1.00  0.00     0.117 C 
HETATM    5  N1  UNL     1      47.322  12.275  14.042  1.00  0.00    -0.190 NA
HETATM    6  N2  UNL     1      49.098  10.618  11.424  1.00  0.00    -0.346 N 
ATOM      7  H2  UNL     1      49.479  11.507  11.099  1.00  0.00     0.167 HD
HETATM    8  C14 UNL     1      49.335   9.409  10.877  1.00  0.00     0.054 A 
ENDROOT
BRANCH   1   9
HETATM    9  C9  UNL     1      48.677   7.029  11.270  1.00  0.00    -0.023 A 
HETATM   10  C8  UNL     1      49.829   6.276  11.337  1.00  0.00     0.012 A 
HETATM   11  C7  UNL     1      49.866   4.931  11.037  1.00  0.00     0.001 A 
HETATM   12  C6  UNL     1      48.699   4.320  10.659  1.00  0.00     0.007 A 
HETATM   13  C5  UNL     1      47.512   5.029  10.575  1.00  0.00    -0.057 A 
HETATM   14  C21 UNL     1      47.519   6.388  10.886  1.00  0.00     0.019 A 
BRANCH  13  15
HETATM   15  C4  UNL     1      46.275   4.358  10.169  1.00  0.00     0.038 C 
BRANCH  15  16
HETATM   16  C3  UNL     1      46.263   2.943  10.655  1.00  0.00     0.004 C 
BRANCH  16  17
HETATM   17  C2  UNL     1      44.839   2.546  11.059  1.00  0.00    -0.004 C 
HETATM   18  C1  UNL     1      44.858   1.771  12.348  1.00  0.00     0.005 C 
ENDBRANCH  16  17
ENDBRANCH  15  16
ENDBRANCH  13  15
ENDBRANCH   1   9
BRANCH   8  19
HETATM   19  C15 UNL     1      50.186   9.160   9.721  1.00  0.00    -0.009 A 
HETATM   20  C16 UNL     1      49.677   8.782   8.493  1.00  0.00     0.014 A 
HETATM   21  C17 UNL     1      50.482   8.547   7.400  1.00  0.00     0.001 A 
HETATM   22  C18 UNL     1      51.850   8.683   7.499  1.00  0.00     0.000 A 
HETATM   23  C19 UNL     1      52.383   9.052   8.691  1.00  0.00     0.001 A 
HETATM   24  C20 UNL     1      51.567   9.286   9.779  1.00  0.00     0.014 A 
ENDBRANCH   8  19
TORSDOF 5
ENDMDL
MODEL 2
REMARK VINA RESULT: -9.809774817      0.977      1.151
REMARK  5 active torsions:
REMARK  status: ('A' for Active; 'I' for Inactive)
REMARK    1  A    between atoms: C2_2  and  C3_3 
REMARK    2  A    between atoms: C3_3  and  C4_4 
REMARK    3  A    between atoms: C4_4  and  C5_5 
REMARK    4  A    between atoms: C9_9  and  C10_10 
REMARK    5  A    between atoms: C14_17  and  C15_18 
ROOT
HETATM    1  C10 UNL     1      48.642   8.428  11.594  1.00  0.00     0.005 A 
HETATM    2  C11 UNL     1      47.937   9.056  12.605  1.00  0.00     0.055 A 
HETATM    3  C12 UNL     1      48.196  10.415  12.484  1.00  0.00     0.115 A 
HETATM    4  C13 UNL     1      47.650  11.414  13.347  1.00  0.00     0.117 C 
HETATM    5  N1  UNL     1      47.201  12.218  14.032  1.00  0.00    -0.190 NA
HETATM    6  N2  UNL     1      49.036  10.606  11.427  1.00  0.00    -0.346 N 
ATOM      7  H2  UNL     1      49.395  11.505  11.103  1.00  0.00     0.167 HD
HETATM    8  C14 UNL     1      49.309   9.403  10.884  1.00  0.00     0.054 A 
ENDROOT
BRANCH   1   9
HETATM    9  C9  UNL     1      48.713   7.007  11.277  1.00  0.00    -0.023 A 
HETATM   10  C8  UNL     1      49.869   6.269  11.420  1.00  0.00     0.012 A 
HETATM   11  C7  UNL     1      49.944   4.925  11.124  1.00  0.00     0.001 A 
HETATM   12  C6  UNL     1      48.813   4.298  10.669  1.00  0.00     0.007 A 
HETATM   13  C5  UNL     1      47.624   4.992  10.507  1.00  0.00    -0.057 A 
HETATM   14  C21 UNL     1      47.592   6.351  10.818  1.00  0.00     0.019 A 
BRANCH  13  15
HETATM   15  C4  UNL     1      46.426   4.304  10.019  1.00  0.00     0.038 C 
BRANCH  15  16
HETATM   16  C3  UNL     1      45.193   4.949  10.568  1.00  0.00     0.004 C 
BRANCH  16  17
HETATM   17  C2  UNL     1      44.065   4.874   9.533  1.00  0.00    -0.004 C 
HETATM   18  C1  UNL     1      42.758   4.557  10.207  1.00  0.00     0.005 C 
ENDBRANCH  16  17
ENDBRANCH  15  16
ENDBRANCH  13  15
ENDBRANCH   1   9
BRANCH   8  19
HETATM   19  C15 UNL     1      50.174   9.175   9.733  1.00  0.00    -0.009 A 
HETATM   20  C16 UNL     1      49.678   8.821   8.492  1.00  0.00     0.014 A 
HETATM   21  C17 UNL     1      50.495   8.606   7.405  1.00  0.00     0.001 A 
HETATM   22  C18 UNL     1      51.863   8.739   7.522  1.00  0.00     0.000 A 
HETATM   23  C19 UNL     1      52.382   9.085   8.727  1.00  0.00     0.001 A 
HETATM   24  C20 UNL     1      51.554   9.298   9.810  1.00  0.00     0.014 A 
ENDBRANCH   8  19
TORSDOF 5
ENDMDL
MODEL 3
REMARK VINA RESULT: -9.428375203      0.919      1.505
REMARK  5 active torsions:
REMARK  status: ('A' for Active; 'I' for Inactive)
REMARK    1  A    between atoms: C2_2  and  C3_3 
REMARK    2  A    between atoms: C3_3  and  C4_4 
REMARK    3  A    between atoms: C4_4  and  C5_5 
REMARK    4  A    between atoms: C9_9  and  C10_10 
REMARK    5  A    between atoms: C14_17  and  C15_18 
ROOT
HETATM    1  C10 UNL     1      48.692   8.320  11.560  1.00  0.00     0.005 A 
HETATM    2  C11 UNL     1      47.984   8.918  12.588  1.00  0.00     0.055 A 
HETATM    3  C12 UNL     1      48.157  10.288  12.443  1.00  0.00     0.115 A 
HETATM    4  C13 UNL     1      47.581  11.264  13.313  1.00  0.00     0.117 C 
HETATM    5  N1  UNL     1      47.106  12.049  14.003  1.00  0.00    -0.190 NA
HETATM    6  N2  UNL     1      48.948  10.515  11.356  1.00  0.00    -0.346 N 
ATOM      7  H2  UNL     1      49.242  11.429  11.010  1.00  0.00     0.167 HD
HETATM    8  C14 UNL     1      49.276   9.324  10.818  1.00  0.00     0.054 A 
ENDROOT
BRANCH   1   9
HETATM    9  C9  UNL     1      48.838   6.902  11.258  1.00  0.00    -0.023 A 
HETATM   10  C8  UNL     1      50.058   6.260  11.267  1.00  0.00     0.012 A 
HETATM   11  C7  UNL     1      50.204   4.920  10.983  1.00  0.00     0.001 A 
HETATM   12  C6  UNL     1      49.081   4.195  10.680  1.00  0.00     0.007 A 
HETATM   13  C5  UNL     1      47.829   4.790  10.656  1.00  0.00    -0.057 A 
HETATM   14  C21 UNL     1      47.726   6.149  10.949  1.00  0.00     0.019 A 
BRANCH  13  15
HETATM   15  C4  UNL     1      46.640   3.999  10.330  1.00  0.00     0.038 C 
BRANCH  15  16
HETATM   16  C3  UNL     1      45.575   4.873   9.746  1.00  0.00     0.004 C 
BRANCH  16  17
HETATM   17  C2  UNL     1      44.210   4.191   9.888  1.00  0.00    -0.004 C 
HETATM   18  C1  UNL     1      43.152   5.203  10.232  1.00  0.00     0.005 C 
ENDBRANCH  16  17
ENDBRANCH  15  16
ENDBRANCH  13  15
ENDBRANCH   1   9
BRANCH   8  19
HETATM   19  C15 UNL     1      50.113   9.133   9.641  1.00  0.00    -0.009 A 
HETATM   20  C16 UNL     1      51.483   9.313   9.668  1.00  0.00     0.014 A 
HETATM   21  C17 UNL     1      52.274   9.131   8.556  1.00  0.00     0.001 A 
HETATM   22  C18 UNL     1      51.713   8.756   7.353  1.00  0.00     0.000 A 
HETATM   23  C19 UNL     1      50.370   8.571   7.293  1.00  0.00     0.001 A 
HETATM   24  C20 UNL     1      49.587   8.756   8.413  1.00  0.00     0.014 A 
ENDBRANCH   8  19
TORSDOF 5
ENDMDL
MODEL 4
REMARK VINA RESULT: -9.107210543      1.925      4.251
REMARK  5 active torsions:
REMARK  status: ('A' for Active; 'I' for Inactive)
REMARK    1  A    between atoms: C2_2  and  C3_3 
REMARK    2  A    between atoms: C3_3  and  C4_4 
REMARK    3  A    between atoms: C4_4  and  C5_5 
REMARK    4  A    between atoms: C9_9  and  C10_10 
REMARK    5  A    between atoms: C14_17  and  C15_18 
ROOT
HETATM    1  C10 UNL     1      49.963   7.834   8.737  1.00  0.00     0.005 A 
HETATM    2  C11 UNL     1      50.412   7.912   7.431  1.00  0.00     0.055 A 
HETATM    3  C12 UNL     1      50.651   9.255   7.173  1.00  0.00     0.115 A 
HETATM    4  C13 UNL     1      51.130   9.758   5.925  1.00  0.00     0.117 C 
HETATM    5  N1  UNL     1      51.528  10.160   4.926  1.00  0.00    -0.190 NA
HETATM    6  N2  UNL     1      50.355   9.973   8.294  1.00  0.00    -0.346 N 
ATOM      7  H2  UNL     1      50.437  10.986   8.394  1.00  0.00     0.167 HD
HETATM    8  C14 UNL     1      49.937   9.116   9.245  1.00  0.00     0.054 A 
ENDROOT
BRANCH   1   9
HETATM    9  C9  UNL     1      49.571   6.655   9.499  1.00  0.00    -0.023 A 
HETATM   10  C8  UNL     1      50.452   5.960  10.301  1.00  0.00     0.012 A 
HETATM   11  C7  UNL     1      50.089   4.845  11.024  1.00  0.00     0.001 A 
HETATM   12  C6  UNL     1      48.791   4.413  10.941  1.00  0.00     0.007 A 
HETATM   13  C5  UNL     1      47.864   5.074  10.151  1.00  0.00    -0.057 A 
HETATM   14  C21 UNL     1      48.273   6.198   9.434  1.00  0.00     0.019 A 
BRANCH  13  15
HETATM   15  C4  UNL     1      46.481   4.597  10.075  1.00  0.00     0.038 C 
BRANCH  15  16
HETATM   16  C3  UNL     1      46.385   3.191  10.576  1.00  0.00     0.004 C 
BRANCH  16  17
HETATM   17  C2  UNL     1      44.939   2.884  10.983  1.00  0.00    -0.004 C 
HETATM   18  C1  UNL     1      44.913   1.871  12.095  1.00  0.00     0.005 C 
ENDBRANCH  16  17
ENDBRANCH  15  16
ENDBRANCH  13  15
ENDBRANCH   1   9
BRANCH   8  19
HETATM   19  C15 UNL     1      49.523   9.487  10.592  1.00  0.00    -0.009 A 
HETATM   20  C16 UNL     1      50.413   9.959  11.538  1.00  0.00     0.014 A 
HETATM   21  C17 UNL     1      50.021  10.310  12.810  1.00  0.00     0.001 A 
HETATM   22  C18 UNL     1      48.700  10.200  13.190  1.00  0.00     0.000 A 
HETATM   23  C19 UNL     1      47.800   9.739  12.284  1.00  0.00     0.001 A 
HETATM   24  C20 UNL     1      48.203   9.390  11.012  1.00  0.00     0.014 A 
ENDBRANCH   8  19
TORSDOF 5
ENDMDL
MODEL 5
REMARK VINA RESULT: -9.098181455      1.474      6.343
REMARK  5 active torsions:
REMARK  status: ('A' for Active; 'I' for Inactive)
REMARK    1  A    between atoms: C2_2  and  C3_3 
REMARK    2  A    between atoms: C3_3  and  C4_4 
REMARK    3  A    between atoms: C4_4  and  C5_5 
REMARK    4  A    between atoms: C9_9  and  C10_10 
REMARK    5  A    between atoms: C14_17  and  C15_18 
ROOT
HETATM    1  C10 UNL     1      49.463   9.346  10.912  1.00  0.00     0.005 A 
HETATM    2  C11 UNL     1      49.218  10.543  11.561  1.00  0.00     0.055 A 
HETATM    3  C12 UNL     1      48.373  10.252  12.623  1.00  0.00     0.115 A 
HETATM    4  C13 UNL     1      47.881  11.227  13.545  1.00  0.00     0.117 C 
HETATM    5  N1  UNL     1      47.498  12.007  14.294  1.00  0.00    -0.190 NA
HETATM    6  N2  UNL     1      48.112   8.914  12.619  1.00  0.00    -0.346 N 
ATOM      7  H2  UNL     1      47.520   8.418  13.286  1.00  0.00     0.167 HD
HETATM    8  C14 UNL     1      48.771   8.360  11.583  1.00  0.00     0.054 A 
ENDROOT
BRANCH   1   9
HETATM    9  C9  UNL     1      50.287   9.098   9.736  1.00  0.00    -0.023 A 
HETATM   10  C8  UNL     1      49.768   8.628   8.548  1.00  0.00     0.012 A 
HETATM   11  C7  UNL     1      50.540   8.391   7.432  1.00  0.00     0.001 A 
HETATM   12  C6  UNL     1      51.885   8.639   7.510  1.00  0.00     0.007 A 
HETATM   13  C5  UNL     1      52.460   9.112   8.679  1.00  0.00    -0.057 A 
HETATM   14  C21 UNL     1      51.643   9.337   9.786  1.00  0.00     0.019 A 
BRANCH  13  15
HETATM   15  C4  UNL     1      53.901   9.370   8.744  1.00  0.00     0.038 C 
BRANCH  15  16
HETATM   16  C3  UNL     1      54.350  10.134   7.539  1.00  0.00     0.004 C 
BRANCH  16  17
HETATM   17  C2  UNL     1      53.714  11.528   7.543  1.00  0.00    -0.004 C 
HETATM   18  C1  UNL     1      53.204  11.874   6.170  1.00  0.00     0.005 C 
ENDBRANCH  16  17
ENDBRANCH  15  16
ENDBRANCH  13  15
ENDBRANCH   1   9
BRANCH   8  19
HETATM   19  C15 UNL     1      48.752   6.946  11.230  1.00  0.00    -0.009 A 
HETATM   20  C16 UNL     1      49.882   6.153  11.286  1.00  0.00     0.014 A 
HETATM   21  C17 UNL     1      49.863   4.816  10.953  1.00  0.00     0.001 A 
HETATM   22  C18 UNL     1      48.692   4.215  10.544  1.00  0.00     0.000 A 
HETATM   23  C19 UNL     1      47.564   4.967  10.479  1.00  0.00     0.001 A 
HETATM   24  C20 UNL     1      47.594   6.305  10.814  1.00  0.00     0.014 A 
ENDBRANCH   8  19
TORSDOF 5
ENDMDL
