MODEL 1
REMARK VINA RESULT: -10.307867967      0.000      0.000
REMARK  5 active torsions:
REMARK  status: ('A' for Active; 'I' for Inactive)
REMARK    1  A    between atoms: C1_1  and  C17_21 
REMARK    2  A    between atoms: N1_2  and  C2_4 
REMARK    3  A    between atoms: C2_4  and  C3_5 
REMARK    4  A    between atoms: C3_5  and  C4_6 
REMARK    5  A    between atoms: C4_6  and  C5_7 
ROOT
HETATM    1  C5  UNL     1      45.099   3.762  10.266  1.00  0.00    -0.030 A 
HETATM    2  C6  UNL     1      44.280   4.857  10.089  1.00  0.00     0.009 A 
HETATM    3  C7  UNL     1      42.905   4.683   9.950  1.00  0.00     0.002 A 
HETATM    4  C8  UNL     1      42.397   3.395   9.994  1.00  0.00     0.014 A 
HETATM    5  C9  UNL     1      43.208   2.293  10.171  1.00  0.00     0.004 A 
HETATM    6  C10 UNL     1      44.576   2.471  10.309  1.00  0.00     0.050 A 
HETATM    7  N2  UNL     1      45.165   1.274  10.467  1.00  0.00    -0.354 N 
ATOM      8  H2  UNL     1      46.167   1.127  10.591  1.00  0.00     0.166 HD
HETATM    9  C11 UNL     1      44.228   0.284  10.439  1.00  0.00     0.043 A 
HETATM   10  C12 UNL     1      44.309  -1.089  10.554  1.00  0.00     0.030 A 
HETATM   11  C13 UNL     1      43.154  -1.835  10.482  1.00  0.00     0.002 A 
HETATM   12  C14 UNL     1      41.944  -1.201  10.299  1.00  0.00     0.001 A 
HETATM   13  C15 UNL     1      41.849   0.176  10.183  1.00  0.00     0.014 A 
HETATM   14  C16 UNL     1      43.023   0.928  10.255  1.00  0.00     0.003 A 
ENDROOT
BRANCH   1  15
HETATM   15  C4  UNL     1      46.560   3.956  10.416  1.00  0.00     0.042 C 
BRANCH  15  16
HETATM   16  C3  UNL     1      46.998   5.203   9.710  1.00  0.00     0.024 C 
BRANCH  16  17
HETATM   17  C2  UNL     1      48.137   5.900  10.442  1.00  0.00     0.119 C 
BRANCH  17  18
HETATM   18  N1  UNL     1      47.565   6.841  11.351  1.00  0.00    -0.397 N 
HETATM   19  C1  UNL     1      47.925   8.036  11.576  1.00  0.00     0.120 C 
ATOM     20  H1  UNL     1      46.763   6.510  11.888  1.00  0.00     0.158 HD
BRANCH  19  21
HETATM   21  C17 UNL     1      49.039   8.733  10.938  1.00  0.00     0.089 A 
HETATM   22  C18 UNL     1      50.035   9.408  11.615  1.00  0.00     0.040 A 
HETATM   23  C19 UNL     1      50.895   9.927  10.674  1.00  0.00     0.027 A 
HETATM   24  C20 UNL     1      50.397   9.552   9.448  1.00  0.00     0.142 A 
HETATM   25  O1  UNL     1      49.318   8.861   9.676  1.00  0.00    -0.321 OA
ENDBRANCH  19  21
ENDBRANCH  17  18
ENDBRANCH  16  17
ENDBRANCH  15  16
ENDBRANCH   1  15
TORSDOF 5
ENDMDL
MODEL 2
REMARK VINA RESULT: -10.266234068      0.914      1.229
REMARK  5 active torsions:
REMARK  status: ('A' for Active; 'I' for Inactive)
REMARK    1  A    between atoms: C1_1  and  C17_21 
REMARK    2  A    between atoms: N1_2  and  C2_4 
REMARK    3  A    between atoms: C2_4  and  C3_5 
REMARK    4  A    between atoms: C3_5  and  C4_6 
REMARK    5  A    between atoms: C4_6  and  C5_7 
ROOT
HETATM    1  C5  UNL     1      45.106   3.733  10.267  1.00  0.00    -0.030 A 
HETATM    2  C6  UNL     1      44.294   4.832  10.083  1.00  0.00     0.009 A 
HETATM    3  C7  UNL     1      42.919   4.665   9.938  1.00  0.00     0.002 A 
HETATM    4  C8  UNL     1      42.403   3.380   9.984  1.00  0.00     0.014 A 
HETATM    5  C9  UNL     1      43.207   2.274  10.169  1.00  0.00     0.004 A 
HETATM    6  C10 UNL     1      44.576   2.446  10.313  1.00  0.00     0.050 A 
HETATM    7  N2  UNL     1      45.158   1.245  10.477  1.00  0.00    -0.354 N 
ATOM      8  H2  UNL     1      46.158   1.094  10.605  1.00  0.00     0.166 HD
HETATM    9  C11 UNL     1      44.215   0.261  10.448  1.00  0.00     0.043 A 
HETATM   10  C12 UNL     1      44.289  -1.112  10.568  1.00  0.00     0.030 A 
HETATM   11  C13 UNL     1      43.130  -1.852  10.494  1.00  0.00     0.002 A 
HETATM   12  C14 UNL     1      41.924  -1.212  10.303  1.00  0.00     0.001 A 
HETATM   13  C15 UNL     1      41.837   0.164  10.181  1.00  0.00     0.014 A 
HETATM   14  C16 UNL     1      43.014   0.911  10.256  1.00  0.00     0.003 A 
ENDROOT
BRANCH   1  15
HETATM   15  C4  UNL     1      46.567   3.920  10.424  1.00  0.00     0.042 C 
BRANCH  15  16
HETATM   16  C3  UNL     1      46.906   5.379  10.479  1.00  0.00     0.024 C 
BRANCH  16  17
HETATM   17  C2  UNL     1      48.406   5.617  10.383  1.00  0.00     0.119 C 
BRANCH  17  18
HETATM   18  N1  UNL     1      48.640   6.531   9.311  1.00  0.00    -0.397 N 
HETATM   19  C1  UNL     1      48.830   7.783   9.372  1.00  0.00     0.120 C 
ATOM     20  H1  UNL     1      48.655   6.125   8.376  1.00  0.00     0.158 HD
BRANCH  19  21
HETATM   21  C17 UNL     1      48.852   8.591  10.589  1.00  0.00     0.089 A 
HETATM   22  C18 UNL     1      49.997   9.074  11.192  1.00  0.00     0.040 A 
HETATM   23  C19 UNL     1      49.609   9.784  12.305  1.00  0.00     0.027 A 
HETATM   24  C20 UNL     1      48.237   9.713  12.349  1.00  0.00     0.142 A 
HETATM   25  O1  UNL     1      47.863   9.006  11.323  1.00  0.00    -0.321 OA
ENDBRANCH  19  21
ENDBRANCH  17  18
ENDBRANCH  16  17
ENDBRANCH  15  16
ENDBRANCH   1  15
TORSDOF 5
ENDMDL
MODEL 3
REMARK VINA RESULT: -10.260434813      0.862      1.176
REMARK  5 active torsions:
REMARK  status: ('A' for Active; 'I' for Inactive)
REMARK    1  A    between atoms: C1_1  and  C17_21 
REMARK    2  A    between atoms: N1_2  and  C2_4 
REMARK    3  A    between atoms: C2_4  and  C3_5 
REMARK    4  A    between atoms: C3_5  and  C4_6 
REMARK    5  A    between atoms: C4_6  and  C5_7 
ROOT
HETATM    1  C5  UNL     1      45.102   3.598  10.238  1.00  0.00    -0.030 A 
HETATM    2  C6  UNL     1      44.311   4.698   9.983  1.00  0.00     0.009 A 
HETATM    3  C7  UNL     1      42.938   4.543   9.813  1.00  0.00     0.002 A 
HETATM    4  C8  UNL     1      42.402   3.269   9.905  1.00  0.00     0.014 A 
HETATM    5  C9  UNL     1      43.185   2.162  10.160  1.00  0.00     0.004 A 
HETATM    6  C10 UNL     1      44.552   2.321  10.329  1.00  0.00     0.050 A 
HETATM    7  N2  UNL     1      45.112   1.122  10.563  1.00  0.00    -0.354 N 
ATOM      8  H2  UNL     1      46.107   0.963  10.722  1.00  0.00     0.166 HD
HETATM    9  C11 UNL     1      44.155   0.150  10.556  1.00  0.00     0.043 A 
HETATM   10  C12 UNL     1      44.206  -1.217  10.741  1.00  0.00     0.030 A 
HETATM   11  C13 UNL     1      43.038  -1.943  10.672  1.00  0.00     0.002 A 
HETATM   12  C14 UNL     1      41.847  -1.296  10.423  1.00  0.00     0.001 A 
HETATM   13  C15 UNL     1      41.784   0.075  10.236  1.00  0.00     0.014 A 
HETATM   14  C16 UNL     1      42.970   0.807  10.306  1.00  0.00     0.003 A 
ENDROOT
BRANCH   1  15
HETATM   15  C4  UNL     1      46.562   3.771  10.421  1.00  0.00     0.042 C 
BRANCH  15  16
HETATM   16  C3  UNL     1      46.937   5.218  10.300  1.00  0.00     0.024 C 
BRANCH  16  17
HETATM   17  C2  UNL     1      48.312   5.397   9.672  1.00  0.00     0.119 C 
BRANCH  17  18
HETATM   18  N1  UNL     1      49.284   5.341  10.717  1.00  0.00    -0.397 N 
HETATM   19  C1  UNL     1      49.738   6.293  11.421  1.00  0.00     0.120 C 
ATOM     20  H1  UNL     1      49.662   4.416  10.923  1.00  0.00     0.158 HD
BRANCH  19  21
HETATM   21  C17 UNL     1      49.356   7.698  11.314  1.00  0.00     0.089 A 
HETATM   22  C18 UNL     1      48.272   8.269  11.952  1.00  0.00     0.040 A 
HETATM   23  C19 UNL     1      48.245   9.602  11.606  1.00  0.00     0.027 A 
HETATM   24  C20 UNL     1      49.315   9.805  10.767  1.00  0.00     0.142 A 
HETATM   25  O1  UNL     1      49.917   8.658  10.641  1.00  0.00    -0.321 OA
ENDBRANCH  19  21
ENDBRANCH  17  18
ENDBRANCH  16  17
ENDBRANCH  15  16
ENDBRANCH   1  15
TORSDOF 5
ENDMDL
MODEL 4
REMARK VINA RESULT: -10.053444976      1.189      1.331
REMARK  5 active torsions:
REMARK  status: ('A' for Active; 'I' for Inactive)
REMARK    1  A    between atoms: C1_1  and  C17_21 
REMARK    2  A    between atoms: N1_2  and  C2_4 
REMARK    3  A    between atoms: C2_4  and  C3_5 
REMARK    4  A    between atoms: C3_5  and  C4_6 
REMARK    5  A    between atoms: C4_6  and  C5_7 
ROOT
HETATM    1  C5  UNL     1      45.116   3.719  10.260  1.00  0.00    -0.030 A 
HETATM    2  C6  UNL     1      44.306   4.816  10.060  1.00  0.00     0.009 A 
HETATM    3  C7  UNL     1      42.932   4.649   9.904  1.00  0.00     0.002 A 
HETATM    4  C8  UNL     1      42.416   3.364   9.955  1.00  0.00     0.014 A 
HETATM    5  C9  UNL     1      43.218   2.260  10.156  1.00  0.00     0.004 A 
HETATM    6  C10 UNL     1      44.585   2.432  10.311  1.00  0.00     0.050 A 
HETATM    7  N2  UNL     1      45.166   1.233  10.490  1.00  0.00    -0.354 N 
ATOM      8  H2  UNL     1      46.165   1.082  10.628  1.00  0.00     0.166 HD
HETATM    9  C11 UNL     1      44.222   0.248  10.461  1.00  0.00     0.043 A 
HETATM   10  C12 UNL     1      44.295  -1.124  10.592  1.00  0.00     0.030 A 
HETATM   11  C13 UNL     1      43.136  -1.864  10.513  1.00  0.00     0.002 A 
HETATM   12  C14 UNL     1      41.932  -1.225  10.307  1.00  0.00     0.001 A 
HETATM   13  C15 UNL     1      41.847   0.151  10.173  1.00  0.00     0.014 A 
HETATM   14  C16 UNL     1      43.024   0.897  10.253  1.00  0.00     0.003 A 
ENDROOT
BRANCH   1  15
HETATM   15  C4  UNL     1      46.577   3.907  10.428  1.00  0.00     0.042 C 
BRANCH  15  16
HETATM   16  C3  UNL     1      46.995   5.249   9.910  1.00  0.00     0.024 C 
BRANCH  16  17
HETATM   17  C2  UNL     1      47.858   6.000  10.913  1.00  0.00     0.119 C 
BRANCH  17  18
HETATM   18  N1  UNL     1      47.781   7.393  10.606  1.00  0.00    -0.397 N 
HETATM   19  C1  UNL     1      48.651   8.124  10.043  1.00  0.00     0.120 C 
ATOM     20  H1  UNL     1      46.914   7.860  10.874  1.00  0.00     0.158 HD
BRANCH  19  21
HETATM   21  C17 UNL     1      49.963   7.690   9.572  1.00  0.00     0.089 A 
HETATM   22  C18 UNL     1      51.116   8.448   9.649  1.00  0.00     0.040 A 
HETATM   23  C19 UNL     1      52.137   7.701   9.106  1.00  0.00     0.027 A 
HETATM   24  C20 UNL     1      51.577   6.508   8.714  1.00  0.00     0.142 A 
HETATM   25  O1  UNL     1      50.312   6.570   9.015  1.00  0.00    -0.321 OA
ENDBRANCH  19  21
ENDBRANCH  17  18
ENDBRANCH  16  17
ENDBRANCH  15  16
ENDBRANCH   1  15
TORSDOF 5
ENDMDL
MODEL 5
REMARK VINA RESULT: -10.031803306      1.349      1.647
REMARK  5 active torsions:
REMARK  status: ('A' for Active; 'I' for Inactive)
REMARK    1  A    between atoms: C1_1  and  C17_21 
REMARK    2  A    between atoms: N1_2  and  C2_4 
REMARK    3  A    between atoms: C2_4  and  C3_5 
REMARK    4  A    between atoms: C3_5  and  C4_6 
REMARK    5  A    between atoms: C4_6  and  C5_7 
ROOT
HETATM    1  C5  UNL     1      45.115   3.660  10.330  1.00  0.00    -0.030 A 
HETATM    2  C6  UNL     1      44.327   4.765  10.088  1.00  0.00     0.009 A 
HETATM    3  C7  UNL     1      42.957   4.612   9.889  1.00  0.00     0.002 A 
HETATM    4  C8  UNL     1      42.422   3.335   9.940  1.00  0.00     0.014 A 
HETATM    5  C9  UNL     1      43.202   2.223  10.182  1.00  0.00     0.004 A 
HETATM    6  C10 UNL     1      44.566   2.381  10.379  1.00  0.00     0.050 A 
HETATM    7  N2  UNL     1      45.124   1.177  10.593  1.00  0.00    -0.354 N 
ATOM      8  H2  UNL     1      46.116   1.015  10.766  1.00  0.00     0.166 HD
HETATM    9  C11 UNL     1      44.170   0.204  10.545  1.00  0.00     0.043 A 
HETATM   10  C12 UNL     1      44.219  -1.167  10.696  1.00  0.00     0.030 A 
HETATM   11  C13 UNL     1      43.054  -1.893  10.588  1.00  0.00     0.002 A 
HETATM   12  C14 UNL     1      41.866  -1.242  10.334  1.00  0.00     0.001 A 
HETATM   13  C15 UNL     1      41.804   0.133  10.180  1.00  0.00     0.014 A 
HETATM   14  C16 UNL     1      42.987   0.865  10.289  1.00  0.00     0.003 A 
ENDROOT
BRANCH   1  15
HETATM   15  C4  UNL     1      46.572   3.831  10.543  1.00  0.00     0.042 C 
BRANCH  15  16
HETATM   16  C3  UNL     1      46.940   5.283  10.500  1.00  0.00     0.024 C 
BRANCH  16  17
HETATM   17  C2  UNL     1      48.070   5.552   9.515  1.00  0.00     0.119 C 
BRANCH  17  18
HETATM   18  N1  UNL     1      49.225   4.845   9.967  1.00  0.00    -0.397 N 
HETATM   19  C1  UNL     1      50.406   5.280  10.115  1.00  0.00     0.120 C 
ATOM     20  H1  UNL     1      49.081   3.862  10.201  1.00  0.00     0.158 HD
BRANCH  19  21
HETATM   21  C17 UNL     1      50.860   6.642   9.846  1.00  0.00     0.089 A 
HETATM   22  C18 UNL     1      51.854   6.977   8.947  1.00  0.00     0.040 A 
HETATM   23  C19 UNL     1      51.993   8.346   8.976  1.00  0.00     0.027 A 
HETATM   24  C20 UNL     1      51.078   8.807   9.895  1.00  0.00     0.142 A 
HETATM   25  O1  UNL     1      50.455   7.764  10.361  1.00  0.00    -0.321 OA
ENDBRANCH  19  21
ENDBRANCH  17  18
ENDBRANCH  16  17
ENDBRANCH  15  16
ENDBRANCH   1  15
TORSDOF 5
ENDMDL
