MODEL 1
REMARK VINA RESULT: -10.060712853      0.000      0.000
REMARK  6 active torsions:
REMARK  status: ('A' for Active; 'I' for Inactive)
REMARK    1  A    between atoms: C2_2  and  C3_3 
REMARK    2  A    between atoms: C3_3  and  C4_4 
REMARK    3  A    between atoms: C4_4  and  N1_5 
REMARK    4  A    between atoms: N1_5  and  C5_7 
REMARK    5  A    between atoms: C7_9  and  C8_10 
REMARK    6  A    between atoms: C11_13  and  C12_14 
ROOT
HETATM    1  C5  UNL     1      43.819  -0.157  10.331  1.00  0.00     0.101 A 
HETATM    2  C6  UNL     1      44.731   0.873  10.410  1.00  0.00     0.060 A 
HETATM    3  C7  UNL     1      44.329   2.201  10.306  1.00  0.00    -0.021 A 
HETATM    4  C20 UNL     1      42.988   2.427  10.120  1.00  0.00     0.029 A 
HETATM    5  C21 UNL     1      42.069   1.397  10.041  1.00  0.00     0.090 A 
HETATM    6  N2  UNL     1      42.495   0.138  10.146  1.00  0.00    -0.353 N 
ATOM      7  H2  UNL     1      41.819  -0.624  10.087  1.00  0.00     0.166 HD
ENDROOT
BRANCH   3   8
HETATM    8  C8  UNL     1      45.353   3.221  10.402  1.00  0.00    -0.026 A 
HETATM    9  C9  UNL     1      46.704   2.966  10.449  1.00  0.00     0.013 A 
HETATM   10  C10 UNL     1      47.651   3.968  10.540  1.00  0.00     0.013 A 
HETATM   11  C11 UNL     1      47.246   5.287  10.588  1.00  0.00    -0.026 A 
HETATM   12  C18 UNL     1      45.907   5.555  10.541  1.00  0.00     0.013 A 
HETATM   13  C19 UNL     1      44.966   4.544  10.450  1.00  0.00     0.013 A 
BRANCH  11  14
HETATM   14  C12 UNL     1      48.205   6.385  10.683  1.00  0.00    -0.026 A 
HETATM   15  C13 UNL     1      49.311   6.449   9.859  1.00  0.00     0.012 A 
HETATM   16  C14 UNL     1      50.217   7.484   9.949  1.00  0.00     0.001 A 
HETATM   17  C15 UNL     1      50.054   8.504  10.872  1.00  0.00     0.000 A 
HETATM   18  C16 UNL     1      48.950   8.437  11.694  1.00  0.00     0.001 A 
HETATM   19  C17 UNL     1      48.047   7.398  11.598  1.00  0.00     0.012 A 
ENDBRANCH  11  14
ENDBRANCH   3   8
BRANCH   1  20
HETATM   20  N1  UNL     1      44.160  -1.392  10.425  1.00  0.00    -0.376 N 
ATOM     21  H1  UNL     1      44.875  -1.759   9.797  1.00  0.00     0.161 HD
BRANCH  20  22
HETATM   22  C4  UNL     1      43.560  -2.270  11.390  1.00  0.00     0.121 C 
BRANCH  22  23
HETATM   23  C3  UNL     1      44.250  -2.179  12.745  1.00  0.00     0.019 C 
BRANCH  23  24
HETATM   24  C2  UNL     1      43.510  -1.180  13.601  1.00  0.00    -0.003 C 
HETATM   25  C1  UNL     1      44.436  -0.093  14.087  1.00  0.00     0.005 C 
ENDBRANCH  23  24
ENDBRANCH  22  23
ENDBRANCH  20  22
ENDBRANCH   1  20
TORSDOF 6
ENDMDL
MODEL 2
REMARK VINA RESULT: -10.056228456      0.725      1.284
REMARK  6 active torsions:
REMARK  status: ('A' for Active; 'I' for Inactive)
REMARK    1  A    between atoms: C2_2  and  C3_3 
REMARK    2  A    between atoms: C3_3  and  C4_4 
REMARK    3  A    between atoms: C4_4  and  N1_5 
REMARK    4  A    between atoms: N1_5  and  C5_7 
REMARK    5  A    between atoms: C7_9  and  C8_10 
REMARK    6  A    between atoms: C11_13  and  C12_14 
ROOT
HETATM    1  C5  UNL     1      43.269  -0.578  10.647  1.00  0.00     0.101 A 
HETATM    2  C6  UNL     1      44.154   0.478  10.661  1.00  0.00     0.060 A 
HETATM    3  C7  UNL     1      43.733   1.775  10.384  1.00  0.00    -0.021 A 
HETATM    4  C20 UNL     1      42.401   1.943  10.098  1.00  0.00     0.029 A 
HETATM    5  C21 UNL     1      41.509   0.887  10.083  1.00  0.00     0.090 A 
HETATM    6  N2  UNL     1      41.953  -0.341  10.354  1.00  0.00    -0.353 N 
ATOM      7  H2  UNL     1      41.296  -1.122  10.343  1.00  0.00     0.166 HD
ENDROOT
BRANCH   3   8
HETATM    8  C8  UNL     1      44.729   2.826  10.422  1.00  0.00    -0.026 A 
HETATM    9  C9  UNL     1      44.442   4.171  10.378  1.00  0.00     0.013 A 
HETATM   10  C10 UNL     1      45.421   5.146  10.417  1.00  0.00     0.013 A 
HETATM   11  C11 UNL     1      46.748   4.776  10.503  1.00  0.00    -0.026 A 
HETATM   12  C18 UNL     1      47.047   3.443  10.549  1.00  0.00     0.013 A 
HETATM   13  C19 UNL     1      46.060   2.475  10.508  1.00  0.00     0.013 A 
BRANCH  11  14
HETATM   14  C12 UNL     1      47.823   5.764  10.549  1.00  0.00    -0.026 A 
HETATM   15  C13 UNL     1      48.970   5.616   9.795  1.00  0.00     0.012 A 
HETATM   16  C14 UNL     1      49.985   6.548   9.838  1.00  0.00     0.001 A 
HETATM   17  C15 UNL     1      49.895   7.673  10.642  1.00  0.00     0.000 A 
HETATM   18  C16 UNL     1      48.750   7.817  11.394  1.00  0.00     0.001 A 
HETATM   19  C17 UNL     1      47.737   6.881  11.345  1.00  0.00     0.012 A 
ENDBRANCH  11  14
ENDBRANCH   3   8
BRANCH   1  20
HETATM   20  N1  UNL     1      43.627  -1.785  10.900  1.00  0.00    -0.376 N 
ATOM     21  H1  UNL     1      43.571  -2.485  10.160  1.00  0.00     0.161 HD
BRANCH  20  22
HETATM   22  C4  UNL     1      44.105  -2.176  12.196  1.00  0.00     0.121 C 
BRANCH  22  23
HETATM   23  C3  UNL     1      43.397  -1.419  13.313  1.00  0.00     0.019 C 
BRANCH  23  24
HETATM   24  C2  UNL     1      44.436  -0.800  14.215  1.00  0.00    -0.003 C 
HETATM   25  C1  UNL     1      44.565   0.681  13.956  1.00  0.00     0.005 C 
ENDBRANCH  23  24
ENDBRANCH  22  23
ENDBRANCH  20  22
ENDBRANCH   1  20
TORSDOF 6
ENDMDL
MODEL 3
REMARK VINA RESULT: -9.675047230      3.473      8.910
REMARK  6 active torsions:
REMARK  status: ('A' for Active; 'I' for Inactive)
REMARK    1  A    between atoms: C2_2  and  C3_3 
REMARK    2  A    between atoms: C3_3  and  C4_4 
REMARK    3  A    between atoms: C4_4  and  N1_5 
REMARK    4  A    between atoms: N1_5  and  C5_7 
REMARK    5  A    between atoms: C7_9  and  C8_10 
REMARK    6  A    between atoms: C11_13  and  C12_14 
ROOT
HETATM    1  C5  UNL     1      48.423   7.775  11.248  1.00  0.00     0.101 A 
HETATM    2  C6  UNL     1      47.499   6.753  11.290  1.00  0.00     0.060 A 
HETATM    3  C7  UNL     1      47.549   5.699  10.384  1.00  0.00    -0.021 A 
HETATM    4  C20 UNL     1      48.558   5.732   9.453  1.00  0.00     0.029 A 
HETATM    5  C21 UNL     1      49.488   6.756   9.408  1.00  0.00     0.090 A 
HETATM    6  N2  UNL     1      49.405   7.747  10.295  1.00  0.00    -0.353 N 
ATOM      7  H2  UNL     1      50.089   8.503  10.263  1.00  0.00     0.166 HD
ENDROOT
BRANCH   3   8
HETATM    8  C8  UNL     1      46.540   4.666  10.500  1.00  0.00    -0.026 A 
HETATM    9  C9  UNL     1      45.186   4.904  10.558  1.00  0.00     0.013 A 
HETATM   10  C10 UNL     1      44.254   3.890  10.668  1.00  0.00     0.013 A 
HETATM   11  C11 UNL     1      44.677   2.577  10.725  1.00  0.00    -0.026 A 
HETATM   12  C18 UNL     1      46.020   2.327  10.667  1.00  0.00     0.013 A 
HETATM   13  C19 UNL     1      46.945   3.349  10.557  1.00  0.00     0.013 A 
BRANCH  11  14
HETATM   14  C12 UNL     1      43.734   1.467  10.840  1.00  0.00    -0.026 A 
HETATM   15  C13 UNL     1      43.986   0.392  11.669  1.00  0.00     0.012 A 
HETATM   16  C14 UNL     1      43.097  -0.656  11.778  1.00  0.00     0.001 A 
HETATM   17  C15 UNL     1      41.914  -0.673  11.058  1.00  0.00     0.000 A 
HETATM   18  C16 UNL     1      41.666   0.400  10.231  1.00  0.00     0.001 A 
HETATM   19  C17 UNL     1      42.559   1.447  10.127  1.00  0.00     0.012 A 
ENDBRANCH  11  14
ENDBRANCH   3   8
BRANCH   1  20
HETATM   20  N1  UNL     1      48.403   8.760  12.072  1.00  0.00    -0.376 N 
ATOM     21  H1  UNL     1      47.541   8.969  12.577  1.00  0.00     0.161 HD
BRANCH  20  22
HETATM   22  C4  UNL     1      49.562   9.576  12.302  1.00  0.00     0.121 C 
BRANCH  22  23
HETATM   23  C3  UNL     1      49.384  10.487  13.511  1.00  0.00     0.019 C 
BRANCH  23  24
HETATM   24  C2  UNL     1      48.488  11.638  13.124  1.00  0.00    -0.003 C 
HETATM   25  C1  UNL     1      47.180  11.581  13.874  1.00  0.00     0.005 C 
ENDBRANCH  23  24
ENDBRANCH  22  23
ENDBRANCH  20  22
ENDBRANCH   1  20
TORSDOF 6
ENDMDL
MODEL 4
REMARK VINA RESULT: -9.429137386      3.488      9.149
REMARK  6 active torsions:
REMARK  status: ('A' for Active; 'I' for Inactive)
REMARK    1  A    between atoms: C2_2  and  C3_3 
REMARK    2  A    between atoms: C3_3  and  C4_4 
REMARK    3  A    between atoms: C4_4  and  N1_5 
REMARK    4  A    between atoms: N1_5  and  C5_7 
REMARK    5  A    between atoms: C7_9  and  C8_10 
REMARK    6  A    between atoms: C11_13  and  C12_14 
ROOT
HETATM    1  C5  UNL     1      49.685   6.702   9.679  1.00  0.00     0.101 A 
HETATM    2  C6  UNL     1      48.721   5.718   9.646  1.00  0.00     0.060 A 
HETATM    3  C7  UNL     1      47.617   5.763  10.490  1.00  0.00    -0.021 A 
HETATM    4  C20 UNL     1      47.540   6.831  11.350  1.00  0.00     0.029 A 
HETATM    5  C21 UNL     1      48.505   7.821  11.386  1.00  0.00     0.090 A 
HETATM    6  N2  UNL     1      49.548   7.740  10.560  1.00  0.00    -0.353 N 
ATOM      7  H2  UNL     1      50.261   8.469  10.586  1.00  0.00     0.166 HD
ENDROOT
BRANCH   3   8
HETATM    8  C8  UNL     1      46.650   4.688  10.389  1.00  0.00    -0.026 A 
HETATM    9  C9  UNL     1      45.307   4.870  10.155  1.00  0.00     0.013 A 
HETATM   10  C10 UNL     1      44.415   3.819  10.065  1.00  0.00     0.013 A 
HETATM   11  C11 UNL     1      44.870   2.524  10.212  1.00  0.00    -0.026 A 
HETATM   12  C18 UNL     1      46.203   2.329  10.444  1.00  0.00     0.013 A 
HETATM   13  C19 UNL     1      47.088   3.389  10.533  1.00  0.00     0.013 A 
BRANCH  11  14
HETATM   14  C12 UNL     1      43.971   1.376  10.125  1.00  0.00    -0.026 A 
HETATM   15  C13 UNL     1      42.615   1.505  10.348  1.00  0.00     0.012 A 
HETATM   16  C14 UNL     1      41.766   0.421  10.267  1.00  0.00     0.001 A 
HETATM   17  C15 UNL     1      42.241  -0.843   9.958  1.00  0.00     0.000 A 
HETATM   18  C16 UNL     1      43.595  -0.969   9.738  1.00  0.00     0.001 A 
HETATM   19  C17 UNL     1      44.439   0.120   9.820  1.00  0.00     0.012 A 
ENDBRANCH  11  14
ENDBRANCH   3   8
BRANCH   1  20
HETATM   20  N1  UNL     1      50.715   6.688   8.911  1.00  0.00    -0.376 N 
ATOM     21  H1  UNL     1      50.666   6.189   8.023  1.00  0.00     0.161 HD
BRANCH  20  22
HETATM   22  C4  UNL     1      51.934   7.356   9.270  1.00  0.00     0.121 C 
BRANCH  22  23
HETATM   23  C3  UNL     1      52.237   8.523   8.338  1.00  0.00     0.019 C 
BRANCH  23  24
HETATM   24  C2  UNL     1      53.044   9.551   9.092  1.00  0.00    -0.003 C 
HETATM   25  C1  UNL     1      54.513   9.427   8.772  1.00  0.00     0.005 C 
ENDBRANCH  23  24
ENDBRANCH  22  23
ENDBRANCH  20  22
ENDBRANCH   1  20
TORSDOF 6
ENDMDL
MODEL 5
REMARK VINA RESULT: -9.314225234      3.549      8.609
REMARK  6 active torsions:
REMARK  status: ('A' for Active; 'I' for Inactive)
REMARK    1  A    between atoms: C2_2  and  C3_3 
REMARK    2  A    between atoms: C3_3  and  C4_4 
REMARK    3  A    between atoms: C4_4  and  N1_5 
REMARK    4  A    between atoms: N1_5  and  C5_7 
REMARK    5  A    between atoms: C7_9  and  C8_10 
REMARK    6  A    between atoms: C11_13  and  C12_14 
ROOT
HETATM    1  C5  UNL     1      48.848   7.676   9.242  1.00  0.00     0.101 A 
HETATM    2  C6  UNL     1      48.022   6.572   9.263  1.00  0.00     0.060 A 
HETATM    3  C7  UNL     1      47.375   6.179  10.429  1.00  0.00    -0.021 A 
HETATM    4  C20 UNL     1      47.601   6.942  11.549  1.00  0.00     0.029 A 
HETATM    5  C21 UNL     1      48.428   8.050  11.533  1.00  0.00     0.090 A 
HETATM    6  N2  UNL     1      49.030   8.394  10.394  1.00  0.00    -0.353 N 
ATOM      7  H2  UNL     1      49.641   9.211  10.380  1.00  0.00     0.166 HD
ENDROOT
BRANCH   3   8
HETATM    8  C8  UNL     1      46.524   5.009  10.363  1.00  0.00    -0.026 A 
HETATM    9  C9  UNL     1      45.162   5.047  10.172  1.00  0.00     0.013 A 
HETATM   10  C10 UNL     1      44.383   3.907  10.114  1.00  0.00     0.013 A 
HETATM   11  C11 UNL     1      44.977   2.668  10.250  1.00  0.00    -0.026 A 
HETATM   12  C18 UNL     1      46.329   2.615  10.438  1.00  0.00     0.013 A 
HETATM   13  C19 UNL     1      47.100   3.763  10.496  1.00  0.00     0.013 A 
BRANCH  11  14
HETATM   14  C12 UNL     1      44.201   1.431  10.195  1.00  0.00    -0.026 A 
HETATM   15  C13 UNL     1      42.828   1.436  10.335  1.00  0.00     0.012 A 
HETATM   16  C14 UNL     1      42.095   0.269  10.284  1.00  0.00     0.001 A 
HETATM   17  C15 UNL     1      42.709  -0.958  10.090  1.00  0.00     0.000 A 
HETATM   18  C16 UNL     1      44.080  -0.959   9.953  1.00  0.00     0.001 A 
HETATM   19  C17 UNL     1      44.807   0.212  10.003  1.00  0.00     0.012 A 
ENDBRANCH  11  14
ENDBRANCH   3   8
BRANCH   1  20
HETATM   20  N1  UNL     1      49.458   8.064   8.181  1.00  0.00    -0.376 N 
ATOM     21  H1  UNL     1      48.923   8.208   7.325  1.00  0.00     0.161 HD
BRANCH  20  22
HETATM   22  C4  UNL     1      50.875   8.300   8.167  1.00  0.00     0.121 C 
BRANCH  22  23
HETATM   23  C3  UNL     1      51.665   7.002   8.064  1.00  0.00     0.019 C 
BRANCH  23  24
HETATM   24  C2  UNL     1      52.093   6.582   9.449  1.00  0.00    -0.003 C 
HETATM   25  C1  UNL     1      51.484   5.254   9.824  1.00  0.00     0.005 C 
ENDBRANCH  23  24
ENDBRANCH  22  23
ENDBRANCH  20  22
ENDBRANCH   1  20
TORSDOF 6
ENDMDL
