MODEL 1
REMARK VINA RESULT: -11.064893170      0.000      0.000
REMARK  5 active torsions:
REMARK  status: ('A' for Active; 'I' for Inactive)
REMARK    1  A    between atoms: C6_6  and  O1_7 
REMARK    2  A    between atoms: O1_7  and  C7_8 
REMARK    3  A    between atoms: C7_8  and  C8_9 
REMARK    4  A    between atoms: C8_9  and  C9_10 
REMARK    5  A    between atoms: C9_10  and  C10_11 
ROOT
HETATM    1  C7  UNL     1      43.182   4.283   9.363  1.00  0.00     0.176 C 
ENDROOT
BRANCH   1   2
HETATM    2  O1  UNL     1      43.200   2.917   9.321  1.00  0.00    -0.351 OA
BRANCH   2   3
HETATM    3  C6  UNL     1      43.297   1.943  10.228  1.00  0.00     0.069 A 
HETATM    4  C5  UNL     1      44.018   2.049  11.378  1.00  0.00     0.049 A 
HETATM    5  C4  UNL     1      44.063   0.995  12.265  1.00  0.00    -0.023 A 
HETATM    6  C3  UNL     1      44.789   1.080  13.448  1.00  0.00     0.012 A 
HETATM    7  C20 UNL     1      43.395  -0.194  12.039  1.00  0.00    -0.026 A 
HETATM    8  C2  UNL     1      44.841   0.030  14.352  1.00  0.00     0.001 A 
HETATM    9  C1  UNL     1      44.162  -1.143  14.091  1.00  0.00     0.001 A 
HETATM   10  C21 UNL     1      43.443  -1.242  12.930  1.00  0.00     0.012 A 
HETATM   11  C19 UNL     1      42.674  -0.276  10.868  1.00  0.00     0.015 A 
HETATM   12  C18 UNL     1      42.614   0.745   9.978  1.00  0.00     0.037 A 
ENDBRANCH   2   3
ENDBRANCH   1   2
BRANCH   1  13
HETATM   13  C8  UNL     1      44.544   4.859   9.072  1.00  0.00     0.031 C 
BRANCH  13  14
HETATM   14  C9  UNL     1      45.157   5.211  10.415  1.00  0.00     0.043 C 
BRANCH  14  15
HETATM   15  C10 UNL     1      46.590   4.918  10.467  1.00  0.00    -0.030 A 
HETATM   16  C11 UNL     1      47.169   3.725  10.104  1.00  0.00     0.096 A 
HETATM   17  N1  UNL     1      48.499   3.829  10.280  1.00  0.00    -0.365 N 
HETATM   18  C12 UNL     1      48.764   5.087  10.754  1.00  0.00     0.042 A 
ATOM     19  H1  UNL     1      49.188   3.101  10.093  1.00  0.00     0.165 HD
HETATM   20  C13 UNL     1      49.967   5.672  11.090  1.00  0.00     0.030 A 
HETATM   21  C17 UNL     1      47.590   5.793  10.882  1.00  0.00    -0.002 A 
HETATM   22  C14 UNL     1      49.961   6.979  11.557  1.00  0.00     0.002 A 
HETATM   23  C15 UNL     1      48.779   7.675  11.680  1.00  0.00     0.001 A 
HETATM   24  C16 UNL     1      47.595   7.092  11.347  1.00  0.00     0.014 A 
ENDBRANCH  14  15
ENDBRANCH  13  14
ENDBRANCH   1  13
TORSDOF 5
ENDMDL
MODEL 2
REMARK VINA RESULT: -10.831303377      1.325      1.857
REMARK  5 active torsions:
REMARK  status: ('A' for Active; 'I' for Inactive)
REMARK    1  A    between atoms: C6_6  and  O1_7 
REMARK    2  A    between atoms: O1_7  and  C7_8 
REMARK    3  A    between atoms: C7_8  and  C8_9 
REMARK    4  A    between atoms: C8_9  and  C9_10 
REMARK    5  A    between atoms: C9_10  and  C10_11 
ROOT
HETATM    1  C7  UNL     1      44.912   4.816   9.717  1.00  0.00     0.176 C 
ENDROOT
BRANCH   1   2
HETATM    2  O1  UNL     1      44.387   3.565   9.552  1.00  0.00    -0.351 OA
BRANCH   2   3
HETATM    3  C6  UNL     1      44.183   2.512  10.346  1.00  0.00     0.069 A 
HETATM    4  C5  UNL     1      44.739   2.377  11.582  1.00  0.00     0.049 A 
HETATM    5  C4  UNL     1      44.473   1.257  12.341  1.00  0.00    -0.023 A 
HETATM    6  C3  UNL     1      45.024   1.097  13.606  1.00  0.00     0.012 A 
HETATM    7  C20 UNL     1      43.650   0.239  11.897  1.00  0.00    -0.026 A 
HETATM    8  C2  UNL     1      44.765  -0.022  14.383  1.00  0.00     0.001 A 
HETATM    9  C1  UNL     1      43.938  -1.019  13.906  1.00  0.00     0.001 A 
HETATM   10  C21 UNL     1      43.387  -0.876  12.660  1.00  0.00     0.012 A 
HETATM   11  C19 UNL     1      43.102   0.399  10.643  1.00  0.00     0.015 A 
HETATM   12  C18 UNL     1      43.347   1.490   9.877  1.00  0.00     0.037 A 
ENDBRANCH   2   3
ENDBRANCH   1   2
BRANCH   1  13
HETATM   13  C8  UNL     1      46.409   4.810   9.543  1.00  0.00     0.031 C 
BRANCH  13  14
HETATM   14  C9  UNL     1      46.984   5.528  10.751  1.00  0.00     0.043 C 
BRANCH  14  15
HETATM   15  C10 UNL     1      48.205   6.268  10.428  1.00  0.00    -0.030 A 
HETATM   16  C11 UNL     1      49.144   5.883   9.502  1.00  0.00     0.096 A 
HETATM   17  N1  UNL     1      50.118   6.811   9.476  1.00  0.00    -0.365 N 
HETATM   18  C12 UNL     1      49.797   7.784  10.386  1.00  0.00     0.042 A 
ATOM     19  H1  UNL     1      50.948   6.793   8.884  1.00  0.00     0.165 HD
HETATM   20  C13 UNL     1      50.475   8.935  10.727  1.00  0.00     0.030 A 
HETATM   21  C17 UNL     1      48.606   7.473  10.998  1.00  0.00    -0.002 A 
HETATM   22  C14 UNL     1      49.928   9.764  11.697  1.00  0.00     0.002 A 
HETATM   23  C15 UNL     1      48.734   9.442  12.303  1.00  0.00     0.001 A 
HETATM   24  C16 UNL     1      48.069   8.304  11.961  1.00  0.00     0.014 A 
ENDBRANCH  14  15
ENDBRANCH  13  14
ENDBRANCH   1  13
TORSDOF 5
ENDMDL
MODEL 3
REMARK VINA RESULT: -10.716314729      0.600      1.675
REMARK  5 active torsions:
REMARK  status: ('A' for Active; 'I' for Inactive)
REMARK    1  A    between atoms: C6_6  and  O1_7 
REMARK    2  A    between atoms: O1_7  and  C7_8 
REMARK    3  A    between atoms: C7_8  and  C8_9 
REMARK    4  A    between atoms: C8_9  and  C9_10 
REMARK    5  A    between atoms: C9_10  and  C10_11 
ROOT
HETATM    1  C7  UNL     1      43.045   4.350   9.695  1.00  0.00     0.176 C 
ENDROOT
BRANCH   1   2
HETATM    2  O1  UNL     1      42.990   2.991   9.563  1.00  0.00    -0.351 OA
BRANCH   2   3
HETATM    3  C6  UNL     1      43.219   1.951  10.368  1.00  0.00     0.069 A 
HETATM    4  C5  UNL     1      42.662   0.721  10.192  1.00  0.00     0.049 A 
HETATM    5  C4  UNL     1      42.954  -0.303  11.068  1.00  0.00    -0.023 A 
HETATM    6  C3  UNL     1      42.401  -1.568  10.908  1.00  0.00     0.012 A 
HETATM    7  C20 UNL     1      43.806  -0.137  12.144  1.00  0.00    -0.026 A 
HETATM    8  C2  UNL     1      42.687  -2.608  11.778  1.00  0.00     0.001 A 
HETATM    9  C1  UNL     1      43.542  -2.405  12.842  1.00  0.00     0.001 A 
HETATM   10  C21 UNL     1      44.095  -1.163  13.014  1.00  0.00     0.012 A 
HETATM   11  C19 UNL     1      44.356   1.117  12.300  1.00  0.00     0.015 A 
HETATM   12  C18 UNL     1      44.085   2.140  11.453  1.00  0.00     0.037 A 
ENDBRANCH   2   3
ENDBRANCH   1   2
BRANCH   1  13
HETATM   13  C8  UNL     1      44.384   4.890   9.264  1.00  0.00     0.031 C 
BRANCH  13  14
HETATM   14  C9  UNL     1      45.111   5.296  10.533  1.00  0.00     0.043 C 
BRANCH  14  15
HETATM   15  C10 UNL     1      46.535   4.960  10.490  1.00  0.00    -0.030 A 
HETATM   16  C11 UNL     1      47.054   3.763  10.059  1.00  0.00     0.096 A 
HETATM   17  N1  UNL     1      48.394   3.823  10.158  1.00  0.00    -0.365 N 
HETATM   18  C12 UNL     1      48.726   5.058  10.651  1.00  0.00     0.042 A 
ATOM     19  H1  UNL     1      49.048   3.081   9.910  1.00  0.00     0.165 HD
HETATM   20  C13 UNL     1      49.964   5.596  10.931  1.00  0.00     0.030 A 
HETATM   21  C17 UNL     1      47.584   5.793  10.869  1.00  0.00    -0.002 A 
HETATM   22  C14 UNL     1      50.026   6.888  11.433  1.00  0.00     0.002 A 
HETATM   23  C15 UNL     1      48.876   7.615  11.647  1.00  0.00     0.001 A 
HETATM   24  C16 UNL     1      47.657   7.077  11.368  1.00  0.00     0.014 A 
ENDBRANCH  14  15
ENDBRANCH  13  14
ENDBRANCH   1  13
TORSDOF 5
ENDMDL
MODEL 4
REMARK VINA RESULT: -10.696270432      1.837      6.781
REMARK  5 active torsions:
REMARK  status: ('A' for Active; 'I' for Inactive)
REMARK    1  A    between atoms: C6_6  and  O1_7 
REMARK    2  A    between atoms: O1_7  and  C7_8 
REMARK    3  A    between atoms: C7_8  and  C8_9 
REMARK    4  A    between atoms: C8_9  and  C9_10 
REMARK    5  A    between atoms: C9_10  and  C10_11 
ROOT
HETATM    1  C7  UNL     1      43.402   4.279  10.041  1.00  0.00     0.176 C 
ENDROOT
BRANCH   1   2
HETATM    2  O1  UNL     1      44.675   3.848   9.800  1.00  0.00    -0.351 OA
BRANCH   2   3
HETATM    3  C6  UNL     1      45.897   4.264  10.139  1.00  0.00     0.069 A 
HETATM    4  C5  UNL     1      46.180   5.537  10.533  1.00  0.00     0.049 A 
HETATM    5  C4  UNL     1      47.470   5.885  10.871  1.00  0.00    -0.023 A 
HETATM    6  C3  UNL     1      47.784   7.176  11.280  1.00  0.00     0.012 A 
HETATM    7  C20 UNL     1      48.517   4.983  10.829  1.00  0.00    -0.026 A 
HETATM    8  C2  UNL     1      49.076   7.541  11.626  1.00  0.00     0.001 A 
HETATM    9  C1  UNL     1      50.096   6.613  11.570  1.00  0.00     0.001 A 
HETATM   10  C21 UNL     1      49.803   5.337  11.170  1.00  0.00     0.012 A 
HETATM   11  C19 UNL     1      48.205   3.703  10.426  1.00  0.00     0.015 A 
HETATM   12  C18 UNL     1      46.944   3.335  10.088  1.00  0.00     0.037 A 
ENDBRANCH   2   3
ENDBRANCH   1   2
BRANCH   1  13
HETATM   13  C8  UNL     1      42.417   3.140   9.990  1.00  0.00     0.031 C 
BRANCH  13  14
HETATM   14  C9  UNL     1      43.214   1.900   9.628  1.00  0.00     0.043 C 
BRANCH  14  15
HETATM   15  C10 UNL     1      43.045   0.824  10.605  1.00  0.00    -0.030 A 
HETATM   16  C11 UNL     1      42.197  -0.249  10.465  1.00  0.00     0.096 A 
HETATM   17  N1  UNL     1      42.316  -1.027  11.556  1.00  0.00    -0.365 N 
HETATM   18  C12 UNL     1      43.239  -0.449  12.388  1.00  0.00     0.042 A 
ATOM     19  H1  UNL     1      41.809  -1.894  11.732  1.00  0.00     0.165 HD
HETATM   20  C13 UNL     1      43.701  -0.861  13.620  1.00  0.00     0.030 A 
HETATM   21  C17 UNL     1      43.713   0.711  11.821  1.00  0.00    -0.002 A 
HETATM   22  C14 UNL     1      44.649  -0.081  14.267  1.00  0.00     0.002 A 
HETATM   23  C15 UNL     1      45.117   1.079  13.689  1.00  0.00     0.001 A 
HETATM   24  C16 UNL     1      44.656   1.480  12.472  1.00  0.00     0.014 A 
ENDBRANCH  14  15
ENDBRANCH  13  14
ENDBRANCH   1  13
TORSDOF 5
ENDMDL
MODEL 5
REMARK VINA RESULT: -10.680908189      2.275      8.311
REMARK  5 active torsions:
REMARK  status: ('A' for Active; 'I' for Inactive)
REMARK    1  A    between atoms: C6_6  and  O1_7 
REMARK    2  A    between atoms: O1_7  and  C7_8 
REMARK    3  A    between atoms: C7_8  and  C8_9 
REMARK    4  A    between atoms: C8_9  and  C9_10 
REMARK    5  A    between atoms: C9_10  and  C10_11 
ROOT
HETATM    1  C7  UNL     1      46.309   4.517   9.593  1.00  0.00     0.176 C 
ENDROOT
BRANCH   1   2
HETATM    2  O1  UNL     1      47.586   5.002   9.553  1.00  0.00    -0.351 OA
BRANCH   2   3
HETATM    3  C6  UNL     1      48.198   6.099  10.006  1.00  0.00     0.069 A 
HETATM    4  C5  UNL     1      49.241   6.700   9.369  1.00  0.00     0.049 A 
HETATM    5  C4  UNL     1      49.815   7.834   9.903  1.00  0.00    -0.023 A 
HETATM    6  C3  UNL     1      50.878   8.468   9.271  1.00  0.00     0.012 A 
HETATM    7  C20 UNL     1      49.372   8.405  11.081  1.00  0.00    -0.026 A 
HETATM    8  C2  UNL     1      51.464   9.612   9.793  1.00  0.00     0.001 A 
HETATM    9  C1  UNL     1      50.996  10.152  10.973  1.00  0.00     0.001 A 
HETATM   10  C21 UNL     1      49.948   9.538  11.608  1.00  0.00     0.012 A 
HETATM   11  C19 UNL     1      48.317   7.777  11.706  1.00  0.00     0.015 A 
HETATM   12  C18 UNL     1      47.734   6.661  11.202  1.00  0.00     0.037 A 
ENDBRANCH   2   3
ENDBRANCH   1   2
BRANCH   1  13
HETATM   13  C8  UNL     1      46.207   3.314  10.494  1.00  0.00     0.031 C 
BRANCH  13  14
HETATM   14  C9  UNL     1      44.784   3.292  11.022  1.00  0.00     0.043 C 
BRANCH  14  15
HETATM   15  C10 UNL     1      44.241   1.936  11.102  1.00  0.00    -0.030 A 
HETATM   16  C11 UNL     1      43.575   1.288  10.089  1.00  0.00     0.096 A 
HETATM   17  N1  UNL     1      43.231   0.063  10.524  1.00  0.00    -0.365 N 
HETATM   18  C12 UNL     1      43.677  -0.067  11.813  1.00  0.00     0.042 A 
ATOM     19  H1  UNL     1      42.727  -0.645   9.990  1.00  0.00     0.165 HD
HETATM   20  C13 UNL     1      43.569  -1.130  12.685  1.00  0.00     0.030 A 
HETATM   21  C17 UNL     1      44.313   1.088  12.203  1.00  0.00    -0.002 A 
HETATM   22  C14 UNL     1      44.112  -1.003  13.956  1.00  0.00     0.002 A 
HETATM   23  C15 UNL     1      44.748   0.160  14.335  1.00  0.00     0.001 A 
HETATM   24  C16 UNL     1      44.852   1.205  13.468  1.00  0.00     0.014 A 
ENDBRANCH  14  15
ENDBRANCH  13  14
ENDBRANCH   1  13
TORSDOF 5
ENDMDL
