MODEL 1
REMARK VINA RESULT: -8.685971163      0.000      0.000
REMARK  8 active torsions:
REMARK  status: ('A' for Active; 'I' for Inactive)
REMARK    1  A    between atoms: C2_2  and  C3_3 
REMARK    2  A    between atoms: C4_4  and  C5_5 
REMARK    3  A    between atoms: C10_10  and  C11_11 
REMARK    4  A    between atoms: C11_11  and  O2_13 
REMARK    5  A    between atoms: O2_13  and  C12_14 
REMARK    6  A    between atoms: C12_14  and  C13_15 
REMARK    7  A    between atoms: C23_25  and  O3_26 
REMARK    8  A    between atoms: C24_28  and  C25_29 
ROOT
HETATM    1  C5  UNL     1      54.572  41.727  15.586  1.00  0.00     0.031 C 
HETATM    2  C6  UNL     1      54.586  41.513  14.115  1.00  0.00     0.010 C 
HETATM    3  C7  UNL     1      55.871  41.024  13.569  1.00  0.00     0.006 C 
HETATM    4  C8  UNL     1      56.539  39.934  14.309  1.00  0.00     0.004 C 
HETATM    5  C9  UNL     1      56.358  38.603  13.564  1.00  0.00     0.011 C 
HETATM    6  C10 UNL     1      56.247  39.812  15.768  1.00  0.00     0.099 A 
HETATM    7  C23 UNL     1      54.897  39.348  16.267  1.00  0.00     0.159 A 
HETATM    8  C24 UNL     1      55.410  40.780  16.393  1.00  0.00     0.102 A 
ENDROOT
BRANCH   6   9
HETATM    9  C11 UNL     1      57.356  39.207  16.571  1.00  0.00     0.272 C 
HETATM   10  O1  UNL     1      58.479  39.782  16.575  1.00  0.00    -0.264 OA
BRANCH   9  11
HETATM   11  O2  UNL     1      57.238  38.059  17.311  1.00  0.00    -0.320 OA
BRANCH  11  12
HETATM   12  C12 UNL     1      58.202  37.036  17.156  1.00  0.00     0.188 C 
BRANCH  12  13
HETATM   13  C13 UNL     1      57.676  35.904  16.303  1.00  0.00    -0.017 C 
HETATM   14  C14 UNL     1      58.368  35.987  14.955  1.00  0.00     0.016 C 
HETATM   15  C15 UNL     1      57.939  34.853  14.069  1.00  0.00    -0.013 C 
HETATM   16  C16 UNL     1      56.450  34.924  13.883  1.00  0.00     0.009 C 
HETATM   17  C20 UNL     1      58.369  33.558  14.723  1.00  0.00     0.009 C 
HETATM   18  C17 UNL     1      55.794  34.801  15.226  1.00  0.00    -0.013 C 
HETATM   19  C18 UNL     1      56.196  33.482  15.836  1.00  0.00     0.009 C 
HETATM   20  C22 UNL     1      56.190  35.929  16.162  1.00  0.00     0.016 C 
HETATM   21  C19 UNL     1      57.689  33.443  16.068  1.00  0.00    -0.013 C 
HETATM   22  C21 UNL     1      58.058  34.593  16.976  1.00  0.00     0.016 C 
ENDBRANCH  12  13
ENDBRANCH  11  12
ENDBRANCH   9  11
ENDBRANCH   6   9
BRANCH   7  23
HETATM   23  O3  UNL     1      53.892  39.064  15.386  1.00  0.00    -0.393 OA
ATOM     24  H3  UNL     1      53.313  38.326  15.537  1.00  0.00     0.210 HD
ENDBRANCH   7  23
BRANCH   8  25
HETATM   25  C25 UNL     1      55.729  41.322  17.738  1.00  0.00     0.186 C 
HETATM   26  O4  UNL     1      54.945  41.053  18.677  1.00  0.00    -0.647 OA
HETATM   27  O5  UNL     1      56.836  42.098  18.002  1.00  0.00    -0.647 OA
ENDBRANCH   8  25
BRANCH   1  28
HETATM   28  C4  UNL     1      54.900  43.139  15.926  1.00  0.00    -0.025 C 
HETATM   29  C3  UNL     1      54.654  44.151  15.098  1.00  0.00    -0.031 C 
BRANCH  29  30
HETATM   30  C2  UNL     1      54.992  45.528  15.467  1.00  0.00     0.022 C 
HETATM   31  C1  UNL     1      55.535  46.358  14.350  1.00  0.00     0.009 C 
ENDBRANCH  29  30
ENDBRANCH   1  28
TORSDOF 8
ENDMDL
MODEL 2
REMARK VINA RESULT: -8.603230031      0.092      1.345
REMARK  8 active torsions:
REMARK  status: ('A' for Active; 'I' for Inactive)
REMARK    1  A    between atoms: C2_2  and  C3_3 
REMARK    2  A    between atoms: C4_4  and  C5_5 
REMARK    3  A    between atoms: C10_10  and  C11_11 
REMARK    4  A    between atoms: C11_11  and  O2_13 
REMARK    5  A    between atoms: O2_13  and  C12_14 
REMARK    6  A    between atoms: C12_14  and  C13_15 
REMARK    7  A    between atoms: C23_25  and  O3_26 
REMARK    8  A    between atoms: C24_28  and  C25_29 
ROOT
HETATM    1  C5  UNL     1      54.510  41.753  15.543  1.00  0.00     0.031 C 
HETATM    2  C6  UNL     1      54.539  41.550  14.071  1.00  0.00     0.010 C 
HETATM    3  C7  UNL     1      55.825  41.048  13.536  1.00  0.00     0.006 C 
HETATM    4  C8  UNL     1      56.468  39.944  14.276  1.00  0.00     0.004 C 
HETATM    5  C9  UNL     1      56.279  38.621  13.519  1.00  0.00     0.011 C 
HETATM    6  C10 UNL     1      56.156  39.814  15.730  1.00  0.00     0.099 A 
HETATM    7  C23 UNL     1      54.794  39.365  16.209  1.00  0.00     0.159 A 
HETATM    8  C24 UNL     1      55.325  40.789  16.353  1.00  0.00     0.102 A 
ENDROOT
BRANCH   6   9
HETATM    9  C11 UNL     1      57.248  39.188  16.542  1.00  0.00     0.272 C 
HETATM   10  O1  UNL     1      58.362  39.776  16.607  1.00  0.00    -0.264 OA
BRANCH   9  11
HETATM   11  O2  UNL     1      57.121  38.008  17.229  1.00  0.00    -0.320 OA
BRANCH  11  12
HETATM   12  C12 UNL     1      58.156  37.048  17.148  1.00  0.00     0.188 C 
BRANCH  12  13
HETATM   13  C13 UNL     1      57.741  35.857  16.316  1.00  0.00    -0.017 C 
HETATM   14  C14 UNL     1      56.242  35.949  16.098  1.00  0.00     0.016 C 
HETATM   15  C15 UNL     1      55.764  34.826  15.223  1.00  0.00    -0.013 C 
HETATM   16  C16 UNL     1      56.103  33.522  15.886  1.00  0.00     0.009 C 
HETATM   17  C20 UNL     1      56.430  34.966  13.873  1.00  0.00     0.009 C 
HETATM   18  C17 UNL     1      57.591  33.442  16.054  1.00  0.00    -0.013 C 
HETATM   19  C18 UNL     1      58.230  33.533  14.692  1.00  0.00     0.009 C 
HETATM   20  C22 UNL     1      58.128  34.555  16.936  1.00  0.00     0.016 C 
HETATM   21  C19 UNL     1      57.928  34.871  14.056  1.00  0.00    -0.013 C 
HETATM   22  C21 UNL     1      58.444  35.958  14.969  1.00  0.00     0.016 C 
ENDBRANCH  12  13
ENDBRANCH  11  12
ENDBRANCH   9  11
ENDBRANCH   6   9
BRANCH   7  23
HETATM   23  O3  UNL     1      53.797  39.101  15.313  1.00  0.00    -0.393 OA
ATOM     24  H3  UNL     1      53.454  39.790  14.756  1.00  0.00     0.210 HD
ENDBRANCH   7  23
BRANCH   8  25
HETATM   25  C25 UNL     1      55.634  41.316  17.706  1.00  0.00     0.186 C 
HETATM   26  O4  UNL     1      54.849  41.028  18.638  1.00  0.00    -0.647 OA
HETATM   27  O5  UNL     1      56.733  42.099  17.984  1.00  0.00    -0.647 OA
ENDBRANCH   8  25
BRANCH   1  28
HETATM   28  C4  UNL     1      54.853  43.158  15.897  1.00  0.00    -0.025 C 
HETATM   29  C3  UNL     1      54.597  44.183  15.089  1.00  0.00    -0.031 C 
BRANCH  29  30
HETATM   30  C2  UNL     1      54.950  45.553  15.473  1.00  0.00     0.022 C 
HETATM   31  C1  UNL     1      55.526  46.380  14.371  1.00  0.00     0.009 C 
ENDBRANCH  29  30
ENDBRANCH   1  28
TORSDOF 8
ENDMDL
MODEL 3
REMARK VINA RESULT: -8.552971897      0.092      1.352
REMARK  8 active torsions:
REMARK  status: ('A' for Active; 'I' for Inactive)
REMARK    1  A    between atoms: C2_2  and  C3_3 
REMARK    2  A    between atoms: C4_4  and  C5_5 
REMARK    3  A    between atoms: C10_10  and  C11_11 
REMARK    4  A    between atoms: C11_11  and  O2_13 
REMARK    5  A    between atoms: O2_13  and  C12_14 
REMARK    6  A    between atoms: C12_14  and  C13_15 
REMARK    7  A    between atoms: C23_25  and  O3_26 
REMARK    8  A    between atoms: C24_28  and  C25_29 
ROOT
HETATM    1  C5  UNL     1      54.531  41.743  15.528  1.00  0.00     0.031 C 
HETATM    2  C6  UNL     1      54.543  41.539  14.056  1.00  0.00     0.010 C 
HETATM    3  C7  UNL     1      55.823  41.036  13.508  1.00  0.00     0.006 C 
HETATM    4  C8  UNL     1      56.474  39.933  14.242  1.00  0.00     0.004 C 
HETATM    5  C9  UNL     1      56.276  38.609  13.489  1.00  0.00     0.011 C 
HETATM    6  C10 UNL     1      56.179  39.805  15.700  1.00  0.00     0.099 A 
HETATM    7  C23 UNL     1      54.822  39.357  16.195  1.00  0.00     0.159 A 
HETATM    8  C24 UNL     1      55.354  40.780  16.331  1.00  0.00     0.102 A 
ENDROOT
BRANCH   6   9
HETATM    9  C11 UNL     1      57.279  39.180  16.500  1.00  0.00     0.272 C 
HETATM   10  O1  UNL     1      58.412  39.735  16.503  1.00  0.00    -0.264 OA
BRANCH   9  11
HETATM   11  O2  UNL     1      57.142  38.033  17.240  1.00  0.00    -0.320 OA
BRANCH  11  12
HETATM   12  C12 UNL     1      58.137  37.032  17.152  1.00  0.00     0.188 C 
BRANCH  12  13
HETATM   13  C13 UNL     1      57.732  35.931  16.200  1.00  0.00    -0.017 C 
HETATM   14  C14 UNL     1      58.085  34.607  16.852  1.00  0.00     0.016 C 
HETATM   15  C15 UNL     1      57.655  33.459  15.986  1.00  0.00    -0.013 C 
HETATM   16  C16 UNL     1      58.347  33.572  14.658  1.00  0.00     0.009 C 
HETATM   17  C20 UNL     1      56.150  33.512  15.849  1.00  0.00     0.009 C 
HETATM   18  C17 UNL     1      57.950  34.870  14.020  1.00  0.00    -0.013 C 
HETATM   19  C18 UNL     1      56.452  34.879  13.848  1.00  0.00     0.009 C 
HETATM   20  C22 UNL     1      58.366  36.068  14.855  1.00  0.00     0.016 C 
HETATM   21  C19 UNL     1      55.766  34.820  15.194  1.00  0.00    -0.013 C 
HETATM   22  C21 UNL     1      56.224  36.004  16.012  1.00  0.00     0.016 C 
ENDBRANCH  12  13
ENDBRANCH  11  12
ENDBRANCH   9  11
ENDBRANCH   6   9
BRANCH   7  23
HETATM   23  O3  UNL     1      53.814  39.091  15.310  1.00  0.00    -0.393 OA
ATOM     24  H3  UNL     1      53.756  39.566  14.489  1.00  0.00     0.210 HD
ENDBRANCH   7  23
BRANCH   8  25
HETATM   25  C25 UNL     1      55.679  41.309  17.679  1.00  0.00     0.186 C 
HETATM   26  O4  UNL     1      54.889  41.048  18.615  1.00  0.00    -0.647 OA
HETATM   27  O5  UNL     1      56.798  42.067  17.950  1.00  0.00    -0.647 OA
ENDBRANCH   8  25
BRANCH   1  28
HETATM   28  C4  UNL     1      54.877  43.149  15.877  1.00  0.00    -0.025 C 
HETATM   29  C3  UNL     1      54.581  44.177  15.087  1.00  0.00    -0.031 C 
BRANCH  29  30
HETATM   30  C2  UNL     1      54.940  45.548  15.465  1.00  0.00     0.022 C 
HETATM   31  C1  UNL     1      55.546  46.358  14.366  1.00  0.00     0.009 C 
ENDBRANCH  29  30
ENDBRANCH   1  28
TORSDOF 8
ENDMDL
MODEL 4
REMARK VINA RESULT: -8.233244569      2.718      4.558
REMARK  8 active torsions:
REMARK  status: ('A' for Active; 'I' for Inactive)
REMARK    1  A    between atoms: C2_2  and  C3_3 
REMARK    2  A    between atoms: C4_4  and  C5_5 
REMARK    3  A    between atoms: C10_10  and  C11_11 
REMARK    4  A    between atoms: C11_11  and  O2_13 
REMARK    5  A    between atoms: O2_13  and  C12_14 
REMARK    6  A    between atoms: C12_14  and  C13_15 
REMARK    7  A    between atoms: C23_25  and  O3_26 
REMARK    8  A    between atoms: C24_28  and  C25_29 
ROOT
HETATM    1  C5  UNL     1      51.830  40.806  15.232  1.00  0.00     0.031 C 
HETATM    2  C6  UNL     1      51.405  41.262  16.581  1.00  0.00     0.010 C 
HETATM    3  C7  UNL     1      52.109  40.612  17.709  1.00  0.00     0.006 C 
HETATM    4  C8  UNL     1      53.575  40.475  17.589  1.00  0.00     0.004 C 
HETATM    5  C9  UNL     1      54.276  41.512  18.480  1.00  0.00     0.011 C 
HETATM    6  C10 UNL     1      54.153  40.428  16.213  1.00  0.00     0.099 A 
HETATM    7  C23 UNL     1      54.176  41.650  15.323  1.00  0.00     0.159 A 
HETATM    8  C24 UNL     1      53.277  40.439  15.090  1.00  0.00     0.102 A 
ENDROOT
BRANCH   6   9
HETATM    9  C11 UNL     1      55.433  39.659  16.108  1.00  0.00     0.272 C 
HETATM   10  O1  UNL     1      56.422  40.209  15.548  1.00  0.00    -0.264 OA
BRANCH   9  11
HETATM   11  O2  UNL     1      55.611  38.385  16.583  1.00  0.00    -0.320 OA
BRANCH  11  12
HETATM   12  C12 UNL     1      56.859  37.747  16.397  1.00  0.00     0.188 C 
BRANCH  12  13
HETATM   13  C13 UNL     1      56.701  36.414  15.702  1.00  0.00    -0.017 C 
HETATM   14  C14 UNL     1      55.423  35.778  16.216  1.00  0.00     0.016 C 
HETATM   15  C15 UNL     1      55.165  34.472  15.523  1.00  0.00    -0.013 C 
HETATM   16  C16 UNL     1      56.327  33.555  15.777  1.00  0.00     0.009 C 
HETATM   17  C20 UNL     1      54.974  34.752  14.049  1.00  0.00     0.009 C 
HETATM   18  C17 UNL     1      57.569  34.191  15.225  1.00  0.00    -0.013 C 
HETATM   19  C18 UNL     1      57.375  34.414  13.747  1.00  0.00     0.009 C 
HETATM   20  C22 UNL     1      57.879  35.517  15.897  1.00  0.00     0.016 C 
HETATM   21  C19 UNL     1      56.237  35.380  13.505  1.00  0.00    -0.013 C 
HETATM   22  C21 UNL     1      56.558  36.677  14.210  1.00  0.00     0.016 C 
ENDBRANCH  12  13
ENDBRANCH  11  12
ENDBRANCH   9  11
ENDBRANCH   6   9
BRANCH   7  23
HETATM   23  O3  UNL     1      53.629  42.828  15.748  1.00  0.00    -0.393 OA
ATOM     24  H3  UNL     1      53.505  43.549  15.142  1.00  0.00     0.210 HD
ENDBRANCH   7  23
BRANCH   8  25
HETATM   25  C25 UNL     1      53.521  39.569  13.912  1.00  0.00     0.186 C 
HETATM   26  O4  UNL     1      53.728  40.123  12.809  1.00  0.00    -0.647 OA
HETATM   27  O5  UNL     1      53.533  38.192  13.974  1.00  0.00    -0.647 OA
ENDBRANCH   8  25
BRANCH   1  28
HETATM   28  C4  UNL     1      50.958  39.704  14.739  1.00  0.00    -0.025 C 
HETATM   29  C3  UNL     1      49.703  39.905  14.345  1.00  0.00    -0.031 C 
BRANCH  29  30
HETATM   30  C2  UNL     1      48.874  38.794  13.867  1.00  0.00     0.022 C 
HETATM   31  C1  UNL     1      48.658  37.704  14.866  1.00  0.00     0.009 C 
ENDBRANCH  29  30
ENDBRANCH   1  28
TORSDOF 8
ENDMDL
MODEL 5
REMARK VINA RESULT: -8.151339402      2.675      4.265
REMARK  8 active torsions:
REMARK  status: ('A' for Active; 'I' for Inactive)
REMARK    1  A    between atoms: C2_2  and  C3_3 
REMARK    2  A    between atoms: C4_4  and  C5_5 
REMARK    3  A    between atoms: C10_10  and  C11_11 
REMARK    4  A    between atoms: C11_11  and  O2_13 
REMARK    5  A    between atoms: O2_13  and  C12_14 
REMARK    6  A    between atoms: C12_14  and  C13_15 
REMARK    7  A    between atoms: C23_25  and  O3_26 
REMARK    8  A    between atoms: C24_28  and  C25_29 
ROOT
HETATM    1  C5  UNL     1      51.891  40.828  15.253  1.00  0.00     0.031 C 
HETATM    2  C6  UNL     1      51.473  41.247  16.616  1.00  0.00     0.010 C 
HETATM    3  C7  UNL     1      52.203  40.587  17.722  1.00  0.00     0.006 C 
HETATM    4  C8  UNL     1      53.669  40.480  17.583  1.00  0.00     0.004 C 
HETATM    5  C9  UNL     1      54.360  41.511  18.489  1.00  0.00     0.011 C 
HETATM    6  C10 UNL     1      54.232  40.473  16.201  1.00  0.00     0.099 A 
HETATM    7  C23 UNL     1      54.222  41.714  15.337  1.00  0.00     0.159 A 
HETATM    8  C24 UNL     1      53.343  40.492  15.088  1.00  0.00     0.102 A 
ENDROOT
BRANCH   6   9
HETATM    9  C11 UNL     1      55.526  39.731  16.065  1.00  0.00     0.272 C 
HETATM   10  O1  UNL     1      56.469  40.277  15.430  1.00  0.00    -0.264 OA
BRANCH   9  11
HETATM   11  O2  UNL     1      55.761  38.486  16.589  1.00  0.00    -0.320 OA
BRANCH  11  12
HETATM   12  C12 UNL     1      56.947  37.802  16.235  1.00  0.00     0.188 C 
BRANCH  12  13
HETATM   13  C13 UNL     1      56.647  36.441  15.649  1.00  0.00    -0.017 C 
HETATM   14  C14 UNL     1      56.538  36.605  14.144  1.00  0.00     0.016 C 
HETATM   15  C15 UNL     1      56.300  35.278  13.483  1.00  0.00    -0.013 C 
HETATM   16  C16 UNL     1      55.028  34.692  14.024  1.00  0.00     0.009 C 
HETATM   17  C20 UNL     1      57.496  34.394  13.760  1.00  0.00     0.009 C 
HETATM   18  C17 UNL     1      55.178  34.507  15.505  1.00  0.00    -0.013 C 
HETATM   19  C18 UNL     1      56.343  33.583  15.754  1.00  0.00     0.009 C 
HETATM   20  C22 UNL     1      55.417  35.822  16.225  1.00  0.00     0.016 C 
HETATM   21  C19 UNL     1      57.626  34.206  15.254  1.00  0.00    -0.013 C 
HETATM   22  C21 UNL     1      57.821  35.525  15.964  1.00  0.00     0.016 C 
ENDBRANCH  12  13
ENDBRANCH  11  12
ENDBRANCH   9  11
ENDBRANCH   6   9
BRANCH   7  23
HETATM   23  O3  UNL     1      53.658  42.872  15.794  1.00  0.00    -0.393 OA
ATOM     24  H3  UNL     1      52.954  43.289  15.311  1.00  0.00     0.210 HD
ENDBRANCH   7  23
BRANCH   8  25
HETATM   25  C25 UNL     1      53.591  39.652  13.889  1.00  0.00     0.186 C 
HETATM   26  O4  UNL     1      53.620  38.409  14.042  1.00  0.00    -0.647 OA
HETATM   27  O5  UNL     1      53.786  40.167  12.626  1.00  0.00    -0.647 OA
ENDBRANCH   8  25
BRANCH   1  28
HETATM   28  C4  UNL     1      51.035  39.721  14.746  1.00  0.00    -0.025 C 
HETATM   29  C3  UNL     1      49.833  39.930  14.214  1.00  0.00    -0.031 C 
BRANCH  29  30
HETATM   30  C2  UNL     1      49.018  38.813  13.726  1.00  0.00     0.022 C 
HETATM   31  C1  UNL     1      48.659  37.804  14.767  1.00  0.00     0.009 C 
ENDBRANCH  29  30
ENDBRANCH   1  28
TORSDOF 8
ENDMDL
