MODEL 1
REMARK VINA RESULT: -7.788986933      0.000      0.000
REMARK  7 active torsions:
REMARK  status: ('A' for Active; 'I' for Inactive)
REMARK    1  A    between atoms: C2_2  and  C3_3 
REMARK    2  A    between atoms: C3_3  and  N1_4 
REMARK       I    between atoms: N1_4  and  C4_6 
REMARK    3  A    between atoms: C4_6  and  C5_8 
REMARK    4  A    between atoms: C5_8  and  C6_9 
REMARK    5  A    between atoms: C6_9  and  N2_10 
REMARK    6  A    between atoms: C16_21  and  O2_22 
REMARK    7  A    between atoms: C22_29  and  O3_30 
ROOT
HETATM    1  N2  UNL     1      52.521  39.190  11.376  1.00  0.00    -0.375 N 
ATOM      2  H2  UNL     1      52.497  38.267  10.945  1.00  0.00     0.164 HD
HETATM    3  C7  UNL     1      53.431  39.379  12.214  1.00  0.00    -0.005 C 
HETATM    4  C8  UNL     1      53.778  40.568  13.034  1.00  0.00     0.053 C 
HETATM    5  C9  UNL     1      54.462  40.015  14.294  1.00  0.00     0.012 C 
HETATM    6  C10 UNL     1      54.325  38.555  14.134  1.00  0.00     0.004 C 
HETATM    7  C11 UNL     1      55.156  37.667  14.957  1.00  0.00     0.002 C 
HETATM    8  C12 UNL     1      56.596  38.062  15.073  1.00  0.00     0.033 C 
HETATM    9  C13 UNL     1      57.181  37.154  16.097  1.00  0.00    -0.023 C 
HETATM   10  C14 UNL     1      56.805  35.920  16.193  1.00  0.00    -0.072 C 
HETATM   11  C15 UNL     1      57.416  35.048  17.231  1.00  0.00     0.066 C 
HETATM   12  C16 UNL     1      58.125  33.953  16.462  1.00  0.00     0.122 C 
HETATM   13  C17 UNL     1      57.347  33.355  15.352  1.00  0.00     0.033 C 
HETATM   14  C18 UNL     1      56.600  34.321  14.462  1.00  0.00     0.016 C 
HETATM   15  C19 UNL     1      55.803  35.298  15.309  1.00  0.00    -0.014 C 
HETATM   16  C20 UNL     1      54.928  34.436  16.247  1.00  0.00     0.020 C 
HETATM   17  C21 UNL     1      54.936  36.229  14.569  1.00  0.00     0.031 C 
HETATM   18  C22 UNL     1      54.867  35.979  13.084  1.00  0.00     0.124 C 
HETATM   19  C23 UNL     1      54.111  36.991  12.304  1.00  0.00     0.047 C 
HETATM   20  C24 UNL     1      54.492  38.370  12.646  1.00  0.00     0.001 C 
HETATM   21  C25 UNL     1      55.773  38.849  12.083  1.00  0.00     0.022 C 
ENDROOT
BRANCH   1  22
HETATM   22  C6  UNL     1      51.527  40.093  10.952  1.00  0.00     0.070 C 
BRANCH  22  23
HETATM   23  C5  UNL     1      50.169  39.862  11.537  1.00  0.00     0.147 C 
BRANCH  23  24
HETATM   24  C4  UNL     1      50.217  39.500  12.966  1.00  0.00     0.222 C 
HETATM   25  N1  UNL     1      50.348  40.475  13.967  1.00  0.00    -0.357 N 
ATOM     26  H1  UNL     1      50.408  41.460  13.705  1.00  0.00     0.162 HD
HETATM   27  O1  UNL     1      50.139  38.287  13.283  1.00  0.00    -0.273 OA
BRANCH  25  28
HETATM   28  C3  UNL     1      50.401  40.098  15.385  1.00  0.00     0.149 C 
BRANCH  28  29
HETATM   29  C2  UNL     1      51.285  41.010  16.118  1.00  0.00    -0.018 C 
HETATM   30  C1  UNL     1      52.040  40.622  17.137  1.00  0.00     0.008 C 
ENDBRANCH  28  29
ENDBRANCH  25  28
ENDBRANCH  23  24
ENDBRANCH  22  23
ENDBRANCH   1  22
BRANCH  18  31
HETATM   31  O3  UNL     1      54.073  34.800  12.938  1.00  0.00    -0.395 OA
ATOM     32  H3  UNL     1      53.173  35.103  12.924  1.00  0.00     0.210 HD
ENDBRANCH  18  31
BRANCH  12  33
HETATM   33  O2  UNL     1      58.439  32.944  17.367  1.00  0.00    -0.395 OA
ATOM     34  H2  UNL     1      57.630  32.494  17.583  1.00  0.00     0.210 HD
ENDBRANCH  12  33
TORSDOF 7
ENDMDL
MODEL 2
REMARK VINA RESULT: -7.726702998      3.925      4.992
REMARK  7 active torsions:
REMARK  status: ('A' for Active; 'I' for Inactive)
REMARK    1  A    between atoms: C2_2  and  C3_3 
REMARK    2  A    between atoms: C3_3  and  N1_4 
REMARK       I    between atoms: N1_4  and  C4_6 
REMARK    3  A    between atoms: C4_6  and  C5_8 
REMARK    4  A    between atoms: C5_8  and  C6_9 
REMARK    5  A    between atoms: C6_9  and  N2_10 
REMARK    6  A    between atoms: C16_21  and  O2_22 
REMARK    7  A    between atoms: C22_29  and  O3_30 
ROOT
HETATM    1  N2  UNL     1      55.417  42.707  15.282  1.00  0.00    -0.375 N 
ATOM      2  H2  UNL     1      55.635  42.455  16.245  1.00  0.00     0.164 HD
HETATM    3  C7  UNL     1      55.171  41.754  14.509  1.00  0.00    -0.005 C 
HETATM    4  C8  UNL     1      54.822  41.725  13.067  1.00  0.00     0.053 C 
HETATM    5  C9  UNL     1      55.317  40.366  12.548  1.00  0.00     0.012 C 
HETATM    6  C10 UNL     1      56.018  39.800  13.716  1.00  0.00     0.004 C 
HETATM    7  C11 UNL     1      56.329  38.365  13.733  1.00  0.00     0.002 C 
HETATM    8  C12 UNL     1      55.223  37.462  13.282  1.00  0.00     0.033 C 
HETATM    9  C13 UNL     1      55.824  36.104  13.187  1.00  0.00    -0.023 C 
HETATM   10  C14 UNL     1      56.723  35.708  14.030  1.00  0.00    -0.072 C 
HETATM   11  C15 UNL     1      57.296  34.343  13.900  1.00  0.00     0.066 C 
HETATM   12  C16 UNL     1      56.909  33.626  15.177  1.00  0.00     0.122 C 
HETATM   13  C17 UNL     1      57.110  34.402  16.423  1.00  0.00     0.033 C 
HETATM   14  C18 UNL     1      56.666  35.846  16.391  1.00  0.00     0.016 C 
HETATM   15  C19 UNL     1      57.213  36.530  15.151  1.00  0.00    -0.014 C 
HETATM   16  C20 UNL     1      58.741  36.299  15.173  1.00  0.00     0.020 C 
HETATM   17  C21 UNL     1      56.951  37.975  15.048  1.00  0.00     0.031 C 
HETATM   18  C22 UNL     1      56.295  38.583  16.261  1.00  0.00     0.124 C 
HETATM   19  C23 UNL     1      55.895  40.007  16.121  1.00  0.00     0.047 C 
HETATM   20  C24 UNL     1      55.168  40.270  14.870  1.00  0.00     0.001 C 
HETATM   21  C25 UNL     1      53.753  39.839  14.838  1.00  0.00     0.022 C 
ENDROOT
BRANCH   1  22
HETATM   22  C6  UNL     1      55.431  44.084  14.987  1.00  0.00     0.070 C 
BRANCH  22  23
HETATM   23  C5  UNL     1      54.338  44.881  15.627  1.00  0.00     0.147 C 
BRANCH  23  24
HETATM   24  C4  UNL     1      54.483  44.976  17.092  1.00  0.00     0.222 C 
HETATM   25  N1  UNL     1      54.293  46.190  17.771  1.00  0.00    -0.357 N 
ATOM     26  H1  UNL     1      54.044  47.028  17.245  1.00  0.00     0.162 HD
HETATM   27  O1  UNL     1      54.786  43.941  17.736  1.00  0.00    -0.273 OA
BRANCH  25  28
HETATM   28  C3  UNL     1      54.448  46.270  19.229  1.00  0.00     0.149 C 
BRANCH  28  29
HETATM   29  C2  UNL     1      53.204  46.741  19.845  1.00  0.00    -0.018 C 
HETATM   30  C1  UNL     1      53.175  47.646  20.815  1.00  0.00     0.008 C 
ENDBRANCH  28  29
ENDBRANCH  25  28
ENDBRANCH  23  24
ENDBRANCH  22  23
ENDBRANCH   1  22
BRANCH  18  31
HETATM   31  O3  UNL     1      57.318  38.632  17.258  1.00  0.00    -0.395 OA
ATOM     32  H3  UNL     1      56.962  39.169  17.956  1.00  0.00     0.210 HD
ENDBRANCH  18  31
BRANCH  12  33
HETATM   33  O2  UNL     1      57.677  32.469  15.255  1.00  0.00    -0.395 OA
ATOM     34  H2  UNL     1      57.258  31.812  14.710  1.00  0.00     0.210 HD
ENDBRANCH  12  33
TORSDOF 7
ENDMDL
MODEL 3
REMARK VINA RESULT: -7.547896197      2.643      3.654
REMARK  7 active torsions:
REMARK  status: ('A' for Active; 'I' for Inactive)
REMARK    1  A    between atoms: C2_2  and  C3_3 
REMARK    2  A    between atoms: C3_3  and  N1_4 
REMARK       I    between atoms: N1_4  and  C4_6 
REMARK    3  A    between atoms: C4_6  and  C5_8 
REMARK    4  A    between atoms: C5_8  and  C6_9 
REMARK    5  A    between atoms: C6_9  and  N2_10 
REMARK    6  A    between atoms: C16_21  and  O2_22 
REMARK    7  A    between atoms: C22_29  and  O3_30 
ROOT
HETATM    1  N2  UNL     1      54.064  41.520  13.238  1.00  0.00    -0.375 N 
ATOM      2  H2  UNL     1      54.099  41.581  14.255  1.00  0.00     0.164 HD
HETATM    3  C7  UNL     1      54.170  40.371  12.754  1.00  0.00    -0.005 C 
HETATM    4  C8  UNL     1      54.165  39.894  11.348  1.00  0.00     0.053 C 
HETATM    5  C9  UNL     1      54.996  38.601  11.348  1.00  0.00     0.012 C 
HETATM    6  C10 UNL     1      55.503  38.531  12.732  1.00  0.00     0.004 C 
HETATM    7  C11 UNL     1      56.050  37.261  13.226  1.00  0.00     0.002 C 
HETATM    8  C12 UNL     1      55.250  36.042  12.886  1.00  0.00     0.033 C 
HETATM    9  C13 UNL     1      56.086  34.882  13.302  1.00  0.00    -0.023 C 
HETATM   10  C14 UNL     1      56.826  34.936  14.362  1.00  0.00    -0.072 C 
HETATM   11  C15 UNL     1      57.645  33.754  14.741  1.00  0.00     0.066 C 
HETATM   12  C16 UNL     1      57.111  33.318  16.090  1.00  0.00     0.122 C 
HETATM   13  C17 UNL     1      56.886  34.411  17.064  1.00  0.00     0.033 C 
HETATM   14  C18 UNL     1      56.215  35.655  16.531  1.00  0.00     0.016 C 
HETATM   15  C19 UNL     1      56.898  36.107  15.252  1.00  0.00    -0.014 C 
HETATM   16  C20 UNL     1      58.398  36.251  15.597  1.00  0.00     0.020 C 
HETATM   17  C21 UNL     1      56.417  37.376  14.682  1.00  0.00     0.031 C 
HETATM   18  C22 UNL     1      55.408  38.105  15.532  1.00  0.00     0.124 C 
HETATM   19  C23 UNL     1      54.807  39.312  14.910  1.00  0.00     0.047 C 
HETATM   20  C24 UNL     1      54.345  39.070  13.534  1.00  0.00     0.001 C 
HETATM   21  C25 UNL     1      53.073  38.329  13.397  1.00  0.00     0.022 C 
ENDROOT
BRANCH   1  22
HETATM   22  C6  UNL     1      53.901  42.740  12.554  1.00  0.00     0.070 C 
BRANCH  22  23
HETATM   23  C5  UNL     1      54.273  43.961  13.336  1.00  0.00     0.147 C 
BRANCH  23  24
HETATM   24  C4  UNL     1      54.107  43.780  14.790  1.00  0.00     0.222 C 
HETATM   25  N1  UNL     1      55.214  43.712  15.652  1.00  0.00    -0.357 N 
ATOM     26  H1  UNL     1      56.156  43.794  15.269  1.00  0.00     0.162 HD
HETATM   27  O1  UNL     1      52.945  43.683  15.257  1.00  0.00    -0.273 OA
BRANCH  25  28
HETATM   28  C3  UNL     1      55.032  43.524  17.097  1.00  0.00     0.149 C 
BRANCH  28  29
HETATM   29  C2  UNL     1      55.187  42.108  17.445  1.00  0.00    -0.018 C 
HETATM   30  C1  UNL     1      54.280  41.430  18.136  1.00  0.00     0.008 C 
ENDBRANCH  28  29
ENDBRANCH  25  28
ENDBRANCH  23  24
ENDBRANCH  22  23
ENDBRANCH   1  22
BRANCH  18  31
HETATM   31  O3  UNL     1      56.154  38.643  16.625  1.00  0.00    -0.395 OA
ATOM     32  H3  UNL     1      55.864  38.159  17.389  1.00  0.00     0.210 HD
ENDBRANCH  18  31
BRANCH  12  33
HETATM   33  O2  UNL     1      58.033  32.430  16.636  1.00  0.00    -0.395 OA
ATOM     34  H2  UNL     1      57.979  32.510  17.582  1.00  0.00     0.210 HD
ENDBRANCH  12  33
TORSDOF 7
ENDMDL
MODEL 4
REMARK VINA RESULT: -7.546410256      1.782      3.363
REMARK  7 active torsions:
REMARK  status: ('A' for Active; 'I' for Inactive)
REMARK    1  A    between atoms: C2_2  and  C3_3 
REMARK    2  A    between atoms: C3_3  and  N1_4 
REMARK       I    between atoms: N1_4  and  C4_6 
REMARK    3  A    between atoms: C4_6  and  C5_8 
REMARK    4  A    between atoms: C5_8  and  C6_9 
REMARK    5  A    between atoms: C6_9  and  N2_10 
REMARK    6  A    between atoms: C16_21  and  O2_22 
REMARK    7  A    between atoms: C22_29  and  O3_30 
ROOT
HETATM    1  N2  UNL     1      52.568  39.278  11.524  1.00  0.00    -0.375 N 
ATOM      2  H2  UNL     1      52.704  38.451  10.943  1.00  0.00     0.164 HD
HETATM    3  C7  UNL     1      53.342  39.392  12.502  1.00  0.00    -0.005 C 
HETATM    4  C8  UNL     1      53.447  40.435  13.553  1.00  0.00     0.053 C 
HETATM    5  C9  UNL     1      54.033  39.724  14.783  1.00  0.00     0.012 C 
HETATM    6  C10 UNL     1      54.087  38.313  14.357  1.00  0.00     0.004 C 
HETATM    7  C11 UNL     1      54.911  37.369  15.124  1.00  0.00     0.002 C 
HETATM    8  C12 UNL     1      56.270  37.867  15.506  1.00  0.00     0.033 C 
HETATM    9  C13 UNL     1      56.829  36.844  16.432  1.00  0.00    -0.023 C 
HETATM   10  C14 UNL     1      56.589  35.584  16.261  1.00  0.00    -0.072 C 
HETATM   11  C15 UNL     1      57.168  34.596  17.210  1.00  0.00     0.066 C 
HETATM   12  C16 UNL     1      58.087  33.732  16.371  1.00  0.00     0.122 C 
HETATM   13  C17 UNL     1      57.523  33.280  15.077  1.00  0.00     0.033 C 
HETATM   14  C18 UNL     1      56.782  34.321  14.271  1.00  0.00     0.016 C 
HETATM   15  C19 UNL     1      55.781  35.047  15.153  1.00  0.00    -0.014 C 
HETATM   16  C20 UNL     1      54.905  33.949  15.797  1.00  0.00     0.020 C 
HETATM   17  C21 UNL     1      54.907  36.013  14.470  1.00  0.00     0.031 C 
HETATM   18  C22 UNL     1      55.047  36.037  12.969  1.00  0.00     0.124 C 
HETATM   19  C23 UNL     1      54.279  37.102  12.275  1.00  0.00     0.047 C 
HETATM   20  C24 UNL     1      54.453  38.423  12.898  1.00  0.00     0.001 C 
HETATM   21  C25 UNL     1      55.729  39.114  12.610  1.00  0.00     0.022 C 
ENDROOT
BRANCH   1  22
HETATM   22  C6  UNL     1      51.534  40.147  11.127  1.00  0.00     0.070 C 
BRANCH  22  23
HETATM   23  C5  UNL     1      51.950  41.247  10.201  1.00  0.00     0.147 C 
BRANCH  23  24
HETATM   24  C4  UNL     1      53.031  40.842   9.284  1.00  0.00     0.222 C 
HETATM   25  N1  UNL     1      54.334  41.349   9.416  1.00  0.00    -0.357 N 
ATOM     26  H1  UNL     1      54.543  42.009  10.165  1.00  0.00     0.162 HD
HETATM   27  O1  UNL     1      52.770  40.026   8.366  1.00  0.00    -0.273 OA
BRANCH  25  28
HETATM   28  C3  UNL     1      55.399  40.942   8.490  1.00  0.00     0.149 C 
BRANCH  28  29
HETATM   29  C2  UNL     1      56.185  39.851   9.074  1.00  0.00    -0.018 C 
HETATM   30  C1  UNL     1      55.831  38.575   8.982  1.00  0.00     0.008 C 
ENDBRANCH  28  29
ENDBRANCH  25  28
ENDBRANCH  23  24
ENDBRANCH  22  23
ENDBRANCH   1  22
BRANCH  18  31
HETATM   31  O3  UNL     1      54.419  34.837  12.513  1.00  0.00    -0.395 OA
ATOM     32  H3  UNL     1      54.900  34.129  12.927  1.00  0.00     0.210 HD
ENDBRANCH  18  31
BRANCH  12  33
HETATM   33  O2  UNL     1      58.405  32.607  17.125  1.00  0.00    -0.395 OA
ATOM     34  H2  UNL     1      58.776  31.963  16.533  1.00  0.00     0.210 HD
ENDBRANCH  12  33
TORSDOF 7
ENDMDL
MODEL 5
REMARK VINA RESULT: -7.519281569      2.173      3.033
REMARK  7 active torsions:
REMARK  status: ('A' for Active; 'I' for Inactive)
REMARK    1  A    between atoms: C2_2  and  C3_3 
REMARK    2  A    between atoms: C3_3  and  N1_4 
REMARK       I    between atoms: N1_4  and  C4_6 
REMARK    3  A    between atoms: C4_6  and  C5_8 
REMARK    4  A    between atoms: C5_8  and  C6_9 
REMARK    5  A    between atoms: C6_9  and  N2_10 
REMARK    6  A    between atoms: C16_21  and  O2_22 
REMARK    7  A    between atoms: C22_29  and  O3_30 
ROOT
HETATM    1  N2  UNL     1      54.125  41.536  13.206  1.00  0.00    -0.375 N 
ATOM      2  H2  UNL     1      54.246  41.633  14.214  1.00  0.00     0.164 HD
HETATM    3  C7  UNL     1      54.151  40.366  12.762  1.00  0.00    -0.005 C 
HETATM    4  C8  UNL     1      54.016  39.839  11.381  1.00  0.00     0.053 C 
HETATM    5  C9  UNL     1      54.797  38.516  11.366  1.00  0.00     0.012 C 
HETATM    6  C10 UNL     1      55.412  38.478  12.706  1.00  0.00     0.004 C 
HETATM    7  C11 UNL     1      55.952  37.206  13.205  1.00  0.00     0.002 C 
HETATM    8  C12 UNL     1      55.085  36.007  12.978  1.00  0.00     0.033 C 
HETATM    9  C13 UNL     1      55.910  34.832  13.372  1.00  0.00    -0.023 C 
HETATM   10  C14 UNL     1      56.736  34.896  14.366  1.00  0.00    -0.072 C 
HETATM   11  C15 UNL     1      57.540  33.698  14.726  1.00  0.00     0.066 C 
HETATM   12  C16 UNL     1      57.103  33.333  16.130  1.00  0.00     0.122 C 
HETATM   13  C17 UNL     1      56.997  34.469  17.074  1.00  0.00     0.033 C 
HETATM   14  C18 UNL     1      56.328  35.718  16.547  1.00  0.00     0.016 C 
HETATM   15  C19 UNL     1      56.921  36.096  15.201  1.00  0.00    -0.014 C 
HETATM   16  C20 UNL     1      58.448  36.195  15.419  1.00  0.00     0.020 C 
HETATM   17  C21 UNL     1      56.441  37.360  14.621  1.00  0.00     0.031 C 
HETATM   18  C22 UNL     1      55.530  38.158  15.519  1.00  0.00     0.124 C 
HETATM   19  C23 UNL     1      54.923  39.364  14.900  1.00  0.00     0.047 C 
HETATM   20  C24 UNL     1      54.343  39.089  13.577  1.00  0.00     0.001 C 
HETATM   21  C25 UNL     1      53.038  38.393  13.571  1.00  0.00     0.022 C 
ENDROOT
BRANCH   1  22
HETATM   22  C6  UNL     1      53.951  42.736  12.490  1.00  0.00     0.070 C 
BRANCH  22  23
HETATM   23  C5  UNL     1      52.724  43.515  12.845  1.00  0.00     0.147 C 
BRANCH  23  24
HETATM   24  C4  UNL     1      52.146  43.111  14.140  1.00  0.00     0.222 C 
HETATM   25  N1  UNL     1      51.088  42.192  14.217  1.00  0.00    -0.357 N 
ATOM     26  H1  UNL     1      50.709  41.788  13.360  1.00  0.00     0.162 HD
HETATM   27  O1  UNL     1      52.619  43.609  15.192  1.00  0.00    -0.273 OA
BRANCH  25  28
HETATM   28  C3  UNL     1      50.518  41.805  15.514  1.00  0.00     0.149 C 
BRANCH  28  29
HETATM   29  C2  UNL     1      51.215  40.628  16.041  1.00  0.00    -0.018 C 
HETATM   30  C1  UNL     1      52.043  40.680  17.077  1.00  0.00     0.008 C 
ENDBRANCH  28  29
ENDBRANCH  25  28
ENDBRANCH  23  24
ENDBRANCH  22  23
ENDBRANCH   1  22
BRANCH  18  31
HETATM   31  O3  UNL     1      56.382  38.707  16.528  1.00  0.00    -0.395 OA
ATOM     32  H3  UNL     1      56.852  37.965  16.890  1.00  0.00     0.210 HD
ENDBRANCH  18  31
BRANCH  12  33
HETATM   33  O2  UNL     1      58.034  32.431  16.635  1.00  0.00    -0.395 OA
ATOM     34  H2  UNL     1      57.903  32.384  17.575  1.00  0.00     0.210 HD
ENDBRANCH  12  33
TORSDOF 7
ENDMDL
