MODEL 1
REMARK VINA RESULT: -7.259731093      0.000      0.000
REMARK  9 active torsions:
REMARK  status: ('A' for Active; 'I' for Inactive)
REMARK    1  A    between atoms: O1_2  and  C2_3 
REMARK    2  A    between atoms: C2_3  and  C3_5 
REMARK    3  A    between atoms: C4_6  and  N1_7 
REMARK    4  A    between atoms: N2_9  and  C5_11 
REMARK    5  A    between atoms: C6_14  and  N4_15 
REMARK    6  A    between atoms: N6_22  and  C8_23 
REMARK    7  A    between atoms: C8_23  and  O4_24 
REMARK    8  A    between atoms: N7_26  and  N8_27 
REMARK    9  A    between atoms: C9_30  and  N9_31 
ROOT
HETATM    1  N1  UNL     1     -11.601  -2.896  -3.358  1.00  0.00    -0.268 N 
ATOM      2  H1  UNL     1     -11.375  -3.089  -4.334  1.00  0.00     0.189 HD
HETATM    3  N2  UNL     1     -12.342  -1.918  -3.036  1.00  0.00    -0.129 N 
ATOM      4  H2  UNL     1     -12.534  -1.773  -2.045  1.00  0.00     0.205 HD
ENDROOT
BRANCH   1   5
HETATM    5  C4  UNL     1     -11.091  -3.726  -2.294  1.00  0.00     0.181 A 
HETATM    6  C3  UNL     1     -11.780  -4.851  -1.883  1.00  0.00     0.155 A 
HETATM    7  C10 UNL     1     -11.254  -5.611  -0.865  1.00  0.00     0.280 A 
HETATM    8  N10 UNL     1     -10.076  -5.263  -0.273  1.00  0.00    -0.154 N 
HETATM    9  O5  UNL     1     -11.816  -6.655  -0.426  1.00  0.00    -0.266 OA
HETATM   10  C9  UNL     1      -9.417  -4.171  -0.679  1.00  0.00     0.701 A 
ATOM     11  H10 UNL     1      -9.697  -5.836   0.482  1.00  0.00     0.187 HD
HETATM   12  N7  UNL     1      -9.943  -3.439  -1.673  1.00  0.00    -0.074 N 
BRANCH   6  13
HETATM   13  C2  UNL     1     -13.026  -5.221  -2.508  1.00  0.00     0.302 C 
HETATM   14  O2  UNL     1     -13.030  -5.663  -3.697  1.00  0.00    -0.259 OA
BRANCH  13  15
HETATM   15  O1  UNL     1     -14.254  -5.126  -1.887  1.00  0.00    -0.322 OA
HETATM   16  C1  UNL     1     -14.950  -6.295  -1.472  1.00  0.00     0.213 C 
ENDBRANCH  13  15
ENDBRANCH   6  13
BRANCH  10  17
HETATM   17  N9  UNL     1      -8.304  -3.865  -0.101  1.00  0.00    -0.233 N 
ATOM     18  H92 UNL     1      -7.491  -3.653  -0.680  1.00  0.00     0.174 HD
ATOM     19  H91 UNL     1      -8.203  -3.824   0.914  1.00  0.00     0.174 HD
ENDBRANCH  10  17
BRANCH  12  20
HETATM   20  N8  UNL     1      -9.235  -2.301  -2.081  1.00  0.00    -0.322 N 
ATOM     21  H82 UNL     1      -9.687  -1.395  -1.953  1.00  0.00     0.178 HD
ATOM     22  H81 UNL     1      -8.307  -2.428  -2.485  1.00  0.00     0.178 HD
ENDBRANCH  12  20
ENDBRANCH   1   5
BRANCH   3  23
HETATM   23  C5  UNL     1     -12.913  -1.022  -3.952  1.00  0.00     0.719 A 
HETATM   24  N3  UNL     1     -12.354   0.160  -4.291  1.00  0.00    -0.021 N 
HETATM   25  C6  UNL     1     -12.912   1.010  -5.171  1.00  0.00     0.694 A 
ATOM     26  H3  UNL     1     -11.467   0.419  -3.860  1.00  0.00     0.203 HD
HETATM   27  N5  UNL     1     -14.081   0.643  -5.725  1.00  0.00    -0.140 N 
HETATM   28  C7  UNL     1     -14.649  -0.533  -5.395  1.00  0.00     0.356 A 
ATOM     29  H5  UNL     1     -14.540   1.257  -6.398  1.00  0.00     0.189 HD
HETATM   30  O3  UNL     1     -15.753  -0.880  -5.918  1.00  0.00    -0.245 OA
HETATM   31  N6  UNL     1     -14.094  -1.385  -4.516  1.00  0.00    -0.108 N 
BRANCH  25  32
HETATM   32  N4  UNL     1     -12.368   2.149  -5.495  1.00  0.00    -0.234 N 
ATOM     33  H42 UNL     1     -11.658   2.564  -4.891  1.00  0.00     0.174 HD
ATOM     34  H41 UNL     1     -12.620   2.662  -6.340  1.00  0.00     0.174 HD
ENDBRANCH  25  32
BRANCH  31  35
HETATM   35  C8  UNL     1     -14.724  -2.648  -4.176  1.00  0.00     0.319 C 
BRANCH  35  36
HETATM   36  O4  UNL     1     -14.647  -3.557  -5.247  1.00  0.00    -0.381 OA
ATOM     37  H4  UNL     1     -15.314  -4.229  -5.174  1.00  0.00     0.211 HD
ENDBRANCH  35  36
ENDBRANCH  31  35
ENDBRANCH   3  23
TORSDOF 9
ENDMDL
MODEL 2
REMARK VINA RESULT: -7.020735396      2.206      3.302
REMARK  9 active torsions:
REMARK  status: ('A' for Active; 'I' for Inactive)
REMARK    1  A    between atoms: O1_2  and  C2_3 
REMARK    2  A    between atoms: C2_3  and  C3_5 
REMARK    3  A    between atoms: C4_6  and  N1_7 
REMARK    4  A    between atoms: N2_9  and  C5_11 
REMARK    5  A    between atoms: C6_14  and  N4_15 
REMARK    6  A    between atoms: N6_22  and  C8_23 
REMARK    7  A    between atoms: C8_23  and  O4_24 
REMARK    8  A    between atoms: N7_26  and  N8_27 
REMARK    9  A    between atoms: C9_30  and  N9_31 
ROOT
HETATM    1  N1  UNL     1     -12.425  -2.857  -3.923  1.00  0.00    -0.268 N 
ATOM      2  H1  UNL     1     -11.970  -2.984  -4.828  1.00  0.00     0.189 HD
HETATM    3  N2  UNL     1     -13.112  -1.822  -3.672  1.00  0.00    -0.129 N 
ATOM      4  H2  UNL     1     -13.543  -1.749  -2.750  1.00  0.00     0.205 HD
ENDROOT
BRANCH   1   5
HETATM    5  C4  UNL     1     -12.308  -3.851  -2.883  1.00  0.00     0.181 A 
HETATM    6  C3  UNL     1     -11.222  -3.857  -2.029  1.00  0.00     0.155 A 
HETATM    7  C10 UNL     1     -11.155  -4.822  -1.053  1.00  0.00     0.280 A 
HETATM    8  N10 UNL     1     -12.142  -5.756  -0.929  1.00  0.00    -0.154 N 
HETATM    9  O5  UNL     1     -10.199  -4.904  -0.230  1.00  0.00    -0.266 OA
HETATM   10  C9  UNL     1     -13.190  -5.741  -1.762  1.00  0.00     0.701 A 
ATOM     11  H10 UNL     1     -12.080  -6.468  -0.201  1.00  0.00     0.187 HD
HETATM   12  N7  UNL     1     -13.241  -4.792  -2.709  1.00  0.00    -0.074 N 
BRANCH   6  13
HETATM   13  C2  UNL     1     -10.178  -2.870  -2.159  1.00  0.00     0.302 C 
HETATM   14  O2  UNL     1     -10.477  -1.641  -2.247  1.00  0.00    -0.259 OA
BRANCH  13  15
HETATM   15  O1  UNL     1      -8.833  -3.176  -2.196  1.00  0.00    -0.322 OA
HETATM   16  C1  UNL     1      -7.963  -2.751  -1.155  1.00  0.00     0.213 C 
ENDBRANCH  13  15
ENDBRANCH   6  13
BRANCH  10  17
HETATM   17  N9  UNL     1     -14.109  -6.636  -1.621  1.00  0.00    -0.233 N 
ATOM     18  H92 UNL     1     -14.716  -6.847  -2.414  1.00  0.00     0.174 HD
ATOM     19  H91 UNL     1     -14.256  -7.144  -0.748  1.00  0.00     0.174 HD
ENDBRANCH  10  17
BRANCH  12  20
HETATM   20  N8  UNL     1     -14.348  -4.796  -3.568  1.00  0.00    -0.322 N 
ATOM     21  H82 UNL     1     -14.804  -3.902  -3.751  1.00  0.00     0.178 HD
ATOM     22  H81 UNL     1     -14.645  -5.686  -3.968  1.00  0.00     0.178 HD
ENDBRANCH  12  20
ENDBRANCH   1   5
BRANCH   3  23
HETATM   23  C5  UNL     1     -13.319  -0.770  -4.576  1.00  0.00     0.719 A 
HETATM   24  N3  UNL     1     -12.629   0.391  -4.546  1.00  0.00    -0.021 N 
HETATM   25  C6  UNL     1     -12.836   1.392  -5.419  1.00  0.00     0.694 A 
ATOM     26  H3  UNL     1     -11.916   0.513  -3.826  1.00  0.00     0.203 HD
HETATM   27  N5  UNL     1     -13.781   1.204  -6.358  1.00  0.00    -0.140 N 
HETATM   28  C7  UNL     1     -14.476   0.052  -6.399  1.00  0.00     0.356 A 
ATOM     29  H5  UNL     1     -13.971   1.936  -7.041  1.00  0.00     0.189 HD
HETATM   30  O3  UNL     1     -15.368  -0.127  -7.285  1.00  0.00    -0.245 OA
HETATM   31  N6  UNL     1     -14.271  -0.951  -5.528  1.00  0.00    -0.108 N 
BRANCH  25  32
HETATM   32  N4  UNL     1     -12.167   2.509  -5.385  1.00  0.00    -0.234 N 
ATOM     33  H42 UNL     1     -11.501   2.681  -4.631  1.00  0.00     0.174 HD
ATOM     34  H41 UNL     1     -12.275   3.241  -6.087  1.00  0.00     0.174 HD
ENDBRANCH  25  32
BRANCH  31  35
HETATM   35  C8  UNL     1     -15.033  -2.186  -5.592  1.00  0.00     0.319 C 
BRANCH  35  36
HETATM   36  O4  UNL     1     -15.754  -2.397  -4.402  1.00  0.00    -0.381 OA
ATOM     37  H4  UNL     1     -16.612  -2.764  -4.583  1.00  0.00     0.211 HD
ENDBRANCH  35  36
ENDBRANCH  31  35
ENDBRANCH   3  23
TORSDOF 9
ENDMDL
MODEL 3
REMARK VINA RESULT: -6.875792626      4.648      7.325
REMARK  9 active torsions:
REMARK  status: ('A' for Active; 'I' for Inactive)
REMARK    1  A    between atoms: O1_2  and  C2_3 
REMARK    2  A    between atoms: C2_3  and  C3_5 
REMARK    3  A    between atoms: C4_6  and  N1_7 
REMARK    4  A    between atoms: N2_9  and  C5_11 
REMARK    5  A    between atoms: C6_14  and  N4_15 
REMARK    6  A    between atoms: N6_22  and  C8_23 
REMARK    7  A    between atoms: C8_23  and  O4_24 
REMARK    8  A    between atoms: N7_26  and  N8_27 
REMARK    9  A    between atoms: C9_30  and  N9_31 
ROOT
HETATM    1  N1  UNL     1     -14.485  -7.685  -1.303  1.00  0.00    -0.268 N 
ATOM      2  H1  UNL     1     -14.698  -7.282  -2.215  1.00  0.00     0.189 HD
HETATM    3  N2  UNL     1     -13.502  -7.274  -0.615  1.00  0.00    -0.129 N 
ATOM      4  H2  UNL     1     -13.338  -7.714   0.291  1.00  0.00     0.205 HD
ENDROOT
BRANCH   1   5
HETATM    5  C4  UNL     1     -15.293  -8.744  -0.746  1.00  0.00     0.181 A 
HETATM    6  C3  UNL     1     -14.973 -10.069  -0.968  1.00  0.00     0.155 A 
HETATM    7  C10 UNL     1     -15.772 -11.042  -0.417  1.00  0.00     0.280 A 
HETATM    8  N10 UNL     1     -16.860 -10.707   0.334  1.00  0.00    -0.154 N 
HETATM    9  O5  UNL     1     -15.554 -12.279  -0.569  1.00  0.00    -0.266 OA
HETATM   10  C9  UNL     1     -17.161  -9.420   0.543  1.00  0.00     0.701 A 
ATOM     11  H10 UNL     1     -17.445 -11.440   0.737  1.00  0.00     0.187 HD
HETATM   12  N7  UNL     1     -16.371  -8.481  -0.001  1.00  0.00    -0.074 N 
BRANCH   6  13
HETATM   13  C2  UNL     1     -13.823 -10.425  -1.763  1.00  0.00     0.302 C 
HETATM   14  O2  UNL     1     -12.655 -10.257  -1.297  1.00  0.00    -0.259 OA
BRANCH  13  15
HETATM   15  O1  UNL     1     -13.903 -10.953  -3.035  1.00  0.00    -0.322 OA
HETATM   16  C1  UNL     1     -12.737 -11.096  -3.836  1.00  0.00     0.213 C 
ENDBRANCH  13  15
ENDBRANCH   6  13
BRANCH  10  17
HETATM   17  N9  UNL     1     -18.196  -9.131   1.259  1.00  0.00    -0.233 N 
ATOM     18  H92 UNL     1     -18.566  -9.837   1.895  1.00  0.00     0.174 HD
ATOM     19  H91 UNL     1     -18.660  -8.224   1.215  1.00  0.00     0.174 HD
ENDBRANCH  10  17
BRANCH  12  20
HETATM   20  N8  UNL     1     -16.707  -7.141   0.232  1.00  0.00    -0.322 N 
ATOM     21  H82 UNL     1     -16.089  -6.600   0.838  1.00  0.00     0.178 HD
ATOM     22  H81 UNL     1     -17.547  -6.770  -0.211  1.00  0.00     0.178 HD
ENDBRANCH  12  20
ENDBRANCH   1   5
BRANCH   3  23
HETATM   23  C5  UNL     1     -12.626  -6.255  -1.017  1.00  0.00     0.719 A 
HETATM   24  N3  UNL     1     -12.850  -5.451  -2.078  1.00  0.00    -0.021 N 
HETATM   25  C6  UNL     1     -12.002  -4.477  -2.454  1.00  0.00     0.694 A 
ATOM     26  H3  UNL     1     -13.703  -5.588  -2.621  1.00  0.00     0.203 HD
HETATM   27  N5  UNL     1     -10.885  -4.317  -1.721  1.00  0.00    -0.140 N 
HETATM   28  C7  UNL     1     -10.650  -5.113  -0.661  1.00  0.00     0.356 A 
ATOM     29  H5  UNL     1     -10.214  -3.590  -1.969  1.00  0.00     0.189 HD
HETATM   30  O3  UNL     1      -9.596  -4.962   0.032  1.00  0.00    -0.245 OA
HETATM   31  N6  UNL     1     -11.495  -6.087  -0.282  1.00  0.00    -0.108 N 
BRANCH  25  32
HETATM   32  N4  UNL     1     -12.223  -3.704  -3.479  1.00  0.00    -0.234 N 
ATOM     33  H42 UNL     1     -13.170  -3.600  -3.843  1.00  0.00     0.174 HD
ATOM     34  H41 UNL     1     -11.482  -3.184  -3.950  1.00  0.00     0.174 HD
ENDBRANCH  25  32
BRANCH  31  35
HETATM   35  C8  UNL     1     -11.222  -6.933   0.865  1.00  0.00     0.319 C 
BRANCH  35  36
HETATM   36  O4  UNL     1     -11.092  -8.280   0.481  1.00  0.00    -0.381 OA
ATOM     37  H4  UNL     1     -10.603  -8.359  -0.329  1.00  0.00     0.211 HD
ENDBRANCH  35  36
ENDBRANCH  31  35
ENDBRANCH   3  23
TORSDOF 9
ENDMDL
MODEL 4
REMARK VINA RESULT: -6.606890655      3.221      6.401
REMARK  9 active torsions:
REMARK  status: ('A' for Active; 'I' for Inactive)
REMARK    1  A    between atoms: O1_2  and  C2_3 
REMARK    2  A    between atoms: C2_3  and  C3_5 
REMARK    3  A    between atoms: C4_6  and  N1_7 
REMARK    4  A    between atoms: N2_9  and  C5_11 
REMARK    5  A    between atoms: C6_14  and  N4_15 
REMARK    6  A    between atoms: N6_22  and  C8_23 
REMARK    7  A    between atoms: C8_23  and  O4_24 
REMARK    8  A    between atoms: N7_26  and  N8_27 
REMARK    9  A    between atoms: C9_30  and  N9_31 
ROOT
HETATM    1  N1  UNL     1     -13.436  -5.065  -2.607  1.00  0.00    -0.268 N 
ATOM      2  H1  UNL     1     -13.580  -5.770  -3.330  1.00  0.00     0.189 HD
HETATM    3  N2  UNL     1     -13.929  -5.201  -1.447  1.00  0.00    -0.129 N 
ATOM      4  H2  UNL     1     -13.752  -4.464  -0.765  1.00  0.00     0.205 HD
ENDROOT
BRANCH   1   5
HETATM    5  C4  UNL     1     -12.663  -3.874  -2.868  1.00  0.00     0.181 A 
HETATM    6  C3  UNL     1     -13.163  -2.870  -3.675  1.00  0.00     0.155 A 
HETATM    7  C10 UNL     1     -12.390  -1.754  -3.894  1.00  0.00     0.280 A 
HETATM    8  N10 UNL     1     -11.154  -1.640  -3.328  1.00  0.00    -0.154 N 
HETATM    9  O5  UNL     1     -12.767  -0.788  -4.618  1.00  0.00    -0.266 OA
HETATM   10  C9  UNL     1     -10.681  -2.620  -2.548  1.00  0.00     0.701 A 
ATOM     11  H10 UNL     1     -10.591  -0.807  -3.499  1.00  0.00     0.187 HD
HETATM   12  N7  UNL     1     -11.446  -3.702  -2.343  1.00  0.00    -0.074 N 
BRANCH   6  13
HETATM   13  C2  UNL     1     -14.469  -2.988  -4.275  1.00  0.00     0.302 C 
HETATM   14  O2  UNL     1     -14.660  -3.819  -5.214  1.00  0.00    -0.259 OA
BRANCH  13  15
HETATM   15  O1  UNL     1     -15.561  -2.239  -3.890  1.00  0.00    -0.322 OA
HETATM   16  C1  UNL     1     -15.999  -1.137  -4.675  1.00  0.00     0.213 C 
ENDBRANCH  13  15
ENDBRANCH   6  13
BRANCH  10  17
HETATM   17  N9  UNL     1      -9.508  -2.486  -2.024  1.00  0.00    -0.233 N 
ATOM     18  H92 UNL     1      -9.124  -3.254  -1.475  1.00  0.00     0.174 HD
ATOM     19  H91 UNL     1      -8.947  -1.641  -2.137  1.00  0.00     0.174 HD
ENDBRANCH  10  17
BRANCH  12  20
HETATM   20  N8  UNL     1     -10.929  -4.714  -1.523  1.00  0.00    -0.322 N 
ATOM     21  H82 UNL     1     -10.392  -4.427  -0.704  1.00  0.00     0.178 HD
ATOM     22  H81 UNL     1     -11.109  -5.684  -1.781  1.00  0.00     0.178 HD
ENDBRANCH  12  20
ENDBRANCH   1   5
BRANCH   3  23
HETATM   23  C5  UNL     1     -14.701  -6.299  -1.039  1.00  0.00     0.719 A 
HETATM   24  N3  UNL     1     -14.539  -7.549  -1.523  1.00  0.00    -0.021 N 
HETATM   25  C6  UNL     1     -15.286  -8.594  -1.124  1.00  0.00     0.694 A 
ATOM     26  H3  UNL     1     -13.816  -7.709  -2.224  1.00  0.00     0.203 HD
HETATM   27  N5  UNL     1     -16.232  -8.356  -0.197  1.00  0.00    -0.140 N 
HETATM   28  C7  UNL     1     -16.404  -7.114   0.293  1.00  0.00     0.356 A 
ATOM     29  H5  UNL     1     -16.821  -9.119   0.135  1.00  0.00     0.189 HD
HETATM   30  O3  UNL     1     -17.296  -6.888   1.168  1.00  0.00    -0.245 OA
HETATM   31  N6  UNL     1     -15.659  -6.067  -0.104  1.00  0.00    -0.108 N 
BRANCH  25  32
HETATM   32  N4  UNL     1     -15.126  -9.798  -1.594  1.00  0.00    -0.234 N 
ATOM     33  H42 UNL     1     -15.004  -9.941  -2.597  1.00  0.00     0.174 HD
ATOM     34  H41 UNL     1     -15.116 -10.628  -1.001  1.00  0.00     0.174 HD
ENDBRANCH  25  32
BRANCH  31  35
HETATM   35  C8  UNL     1     -15.862  -4.736   0.439  1.00  0.00     0.319 C 
BRANCH  35  36
HETATM   36  O4  UNL     1     -14.819  -4.384   1.317  1.00  0.00    -0.381 OA
ATOM     37  H4  UNL     1     -15.079  -4.505   2.222  1.00  0.00     0.211 HD
ENDBRANCH  35  36
ENDBRANCH  31  35
ENDBRANCH   3  23
TORSDOF 9
ENDMDL
MODEL 5
REMARK VINA RESULT: -6.545354560      3.650      5.442
REMARK  9 active torsions:
REMARK  status: ('A' for Active; 'I' for Inactive)
REMARK    1  A    between atoms: O1_2  and  C2_3 
REMARK    2  A    between atoms: C2_3  and  C3_5 
REMARK    3  A    between atoms: C4_6  and  N1_7 
REMARK    4  A    between atoms: N2_9  and  C5_11 
REMARK    5  A    between atoms: C6_14  and  N4_15 
REMARK    6  A    between atoms: N6_22  and  C8_23 
REMARK    7  A    between atoms: C8_23  and  O4_24 
REMARK    8  A    between atoms: N7_26  and  N8_27 
REMARK    9  A    between atoms: C9_30  and  N9_31 
ROOT
HETATM    1  N1  UNL     1     -13.438  -6.919  -0.558  1.00  0.00    -0.268 N 
ATOM      2  H1  UNL     1     -14.401  -6.648  -0.754  1.00  0.00     0.189 HD
HETATM    3  N2  UNL     1     -12.460  -6.281  -1.053  1.00  0.00    -0.129 N 
ATOM      4  H2  UNL     1     -11.519  -6.598  -0.823  1.00  0.00     0.205 HD
ENDROOT
BRANCH   1   5
HETATM    5  C4  UNL     1     -13.137  -8.045   0.293  1.00  0.00     0.181 A 
HETATM    6  C3  UNL     1     -13.318  -9.339  -0.155  1.00  0.00     0.155 A 
HETATM    7  C10 UNL     1     -13.017 -10.379   0.692  1.00  0.00     0.280 A 
HETATM    8  N10 UNL     1     -12.550 -10.139   1.951  1.00  0.00    -0.154 N 
HETATM    9  O5  UNL     1     -13.152 -11.594   0.365  1.00  0.00    -0.266 OA
HETATM   10  C9  UNL     1     -12.378  -8.881   2.375  1.00  0.00     0.701 A 
ATOM     11  H10 UNL     1     -12.331 -10.920   2.570  1.00  0.00     0.187 HD
HETATM   12  N7  UNL     1     -12.676  -7.877   1.537  1.00  0.00    -0.074 N 
BRANCH   6  13
HETATM   13  C2  UNL     1     -13.812  -9.595  -1.486  1.00  0.00     0.302 C 
HETATM   14  O2  UNL     1     -13.190  -9.136  -2.491  1.00  0.00    -0.259 OA
BRANCH  13  15
HETATM   15  O1  UNL     1     -14.950 -10.327  -1.754  1.00  0.00    -0.322 OA
HETATM   16  C1  UNL     1     -16.155 -10.083  -1.041  1.00  0.00     0.213 C 
ENDBRANCH  13  15
ENDBRANCH   6  13
BRANCH  10  17
HETATM   17  N9  UNL     1     -11.934  -8.683   3.571  1.00  0.00    -0.233 N 
ATOM     18  H92 UNL     1     -11.002  -8.286   3.690  1.00  0.00     0.174 HD
ATOM     19  H91 UNL     1     -12.478  -8.907   4.405  1.00  0.00     0.174 HD
ENDBRANCH  10  17
BRANCH  12  20
HETATM   20  N8  UNL     1     -12.488  -6.569   2.003  1.00  0.00    -0.322 N 
ATOM     21  H82 UNL     1     -13.184  -6.196   2.650  1.00  0.00     0.178 HD
ATOM     22  H81 UNL     1     -11.671  -6.053   1.678  1.00  0.00     0.178 HD
ENDBRANCH  12  20
ENDBRANCH   1   5
BRANCH   3  23
HETATM   23  C5  UNL     1     -12.588  -5.168  -1.897  1.00  0.00     0.719 A 
HETATM   24  N3  UNL     1     -13.740  -4.822  -2.511  1.00  0.00    -0.021 N 
HETATM   25  C6  UNL     1     -13.850  -3.752  -3.318  1.00  0.00     0.694 A 
ATOM     26  H3  UNL     1     -14.566  -5.400  -2.356  1.00  0.00     0.203 HD
HETATM   27  N5  UNL     1     -12.746  -3.007  -3.506  1.00  0.00    -0.140 N 
HETATM   28  C7  UNL     1     -11.591  -3.341  -2.899  1.00  0.00     0.356 A 
ATOM     29  H5  UNL     1     -12.783  -2.186  -4.109  1.00  0.00     0.189 HD
HETATM   30  O3  UNL     1     -10.548  -2.638  -3.076  1.00  0.00    -0.245 OA
HETATM   31  N6  UNL     1     -11.478  -4.409  -2.092  1.00  0.00    -0.108 N 
BRANCH  25  32
HETATM   32  N4  UNL     1     -14.964  -3.424  -3.908  1.00  0.00    -0.234 N 
ATOM     33  H42 UNL     1     -15.215  -3.854  -4.799  1.00  0.00     0.174 HD
ATOM     34  H41 UNL     1     -15.616  -2.742  -3.520  1.00  0.00     0.174 HD
ENDBRANCH  25  32
BRANCH  31  35
HETATM   35  C8  UNL     1     -10.222  -4.750  -1.448  1.00  0.00     0.319 C 
BRANCH  35  36
HETATM   36  O4  UNL     1      -9.196  -4.918  -2.397  1.00  0.00    -0.381 OA
ATOM     37  H4  UNL     1      -9.420  -5.592  -3.027  1.00  0.00     0.211 HD
ENDBRANCH  35  36
ENDBRANCH  31  35
ENDBRANCH   3  23
TORSDOF 9
ENDMDL
