MODEL 1
REMARK VINA RESULT: -7.225459789      0.000      0.000
REMARK  9 active torsions:
REMARK  status: ('A' for Active; 'I' for Inactive)
REMARK       I    between atoms: N1_2  and  C2_3 
REMARK    1  A    between atoms: N1_2  and  C12_15 
REMARK    2  A    between atoms: C2_3  and  C3_5 
REMARK    3  A    between atoms: C7_9  and  C9_11 
REMARK    4  A    between atoms: C12_15  and  C13_16 
REMARK    5  A    between atoms: C12_15  and  C18_24 
REMARK    6  A    between atoms: C13_16  and  C14_17 
REMARK    7  A    between atoms: C14_17  and  S1_18 
REMARK    8  A    between atoms: S1_18  and  C15_21 
REMARK       I    between atoms: C18_24  and  N2_26 
REMARK    9  A    between atoms: C22_31  and  C23_32 
ROOT
HETATM    1  C12 UNL     1       6.548   8.307  19.214  1.00  0.00     0.179 C 
ENDROOT
BRANCH   1   2
HETATM    2  N1  UNL     1       6.287   7.010  19.758  1.00  0.00    -0.343 N 
HETATM    3  C1  UNL     1       5.177   6.867  20.723  1.00  0.00     0.153 C 
HETATM    4  C2  UNL     1       6.986   5.811  19.448  1.00  0.00     0.226 C 
HETATM    5  O1  UNL     1       7.941   5.906  18.657  1.00  0.00    -0.273 OA
BRANCH   4   6
HETATM    6  C3  UNL     1       6.632   4.511  20.008  1.00  0.00     0.097 A 
HETATM    7  C4  UNL     1       5.461   3.701  19.556  1.00  0.00    -0.025 A 
HETATM    8  C5  UNL     1       4.545   3.112  20.657  1.00  0.00     0.016 C 
HETATM    9  C6  UNL     1       4.654   4.026  18.347  1.00  0.00     0.016 C 
HETATM   10  C7  UNL     1       6.861   3.184  19.501  1.00  0.00    -0.003 A 
HETATM   11  C8  UNL     1       7.124   2.126  20.629  1.00  0.00     0.019 C 
BRANCH  10  12
HETATM   12  C9  UNL     1       7.533   2.718  18.274  1.00  0.00     0.038 C 
HETATM   13  C10 UNL     1       7.331   1.188  18.172  1.00  0.00     0.033 C 
HETATM   14  C11 UNL     1       9.054   2.870  18.467  1.00  0.00     0.033 C 
HETATM   15 CL1  UNL     1       7.163   3.484  16.756  1.00  0.00    -0.119 Cl
ENDBRANCH  10  12
ENDBRANCH   4   6
ENDBRANCH   1   2
BRANCH   1  16
HETATM   16  C13 UNL     1       5.344   9.190  19.288  1.00  0.00     0.050 C 
BRANCH  16  17
HETATM   17  C14 UNL     1       4.932   9.455  17.826  1.00  0.00     0.143 C 
BRANCH  17  18
HETATM   18  S1  UNL     1       5.648  10.965  17.255  1.00  0.00     0.148 S 
HETATM   19  O2  UNL     1       6.119  11.736  18.456  1.00  0.00    -0.227 OA
HETATM   20  O3  UNL     1       4.600  11.805  16.567  1.00  0.00    -0.227 OA
BRANCH  18  21
HETATM   21  C15 UNL     1       7.012  10.671  16.170  1.00  0.00     0.108 A 
HETATM   22  C16 UNL     1       6.664  10.035  14.855  1.00  0.00     0.021 A 
HETATM   23  C17 UNL     1       7.091  11.442  14.930  1.00  0.00     0.021 A 
ENDBRANCH  18  21
ENDBRANCH  17  18
ENDBRANCH  16  17
ENDBRANCH   1  16
BRANCH   1  24
HETATM   24  C18 UNL     1       7.785   8.920  19.758  1.00  0.00     0.243 C 
HETATM   25  O4  UNL     1       8.743   9.093  18.917  1.00  0.00    -0.271 OA
HETATM   26  N2  UNL     1       8.019   9.329  21.075  1.00  0.00    -0.335 N 
HETATM   27  C19 UNL     1       9.298   9.932  21.521  1.00  0.00     0.164 C 
HETATM   28  C22 UNL     1       7.215   9.332  22.276  1.00  0.00     0.179 C 
HETATM   29  C20 UNL     1       8.949  10.871  22.626  1.00  0.00     0.190 C 
HETATM   30  F1  UNL     1       9.585  10.548  23.810  1.00  0.00    -0.248 F 
HETATM   31  C21 UNL     1       7.443  10.767  22.752  1.00  0.00     0.073 C 
BRANCH  28  32
HETATM   32  C23 UNL     1       7.693   8.382  23.303  1.00  0.00     0.254 C 
HETATM   33  N3  UNL     1       7.437   8.594  24.673  1.00  0.00    -0.060 NA
HETATM   34  O5  UNL     1       8.336   7.370  22.950  1.00  0.00    -0.275 OA
ENDBRANCH  28  32
ENDBRANCH   1  24
TORSDOF 9
ENDMDL
MODEL 2
REMARK VINA RESULT: -7.176700601      1.169      1.645
REMARK  9 active torsions:
REMARK  status: ('A' for Active; 'I' for Inactive)
REMARK       I    between atoms: N1_2  and  C2_3 
REMARK    1  A    between atoms: N1_2  and  C12_15 
REMARK    2  A    between atoms: C2_3  and  C3_5 
REMARK    3  A    between atoms: C7_9  and  C9_11 
REMARK    4  A    between atoms: C12_15  and  C13_16 
REMARK    5  A    between atoms: C12_15  and  C18_24 
REMARK    6  A    between atoms: C13_16  and  C14_17 
REMARK    7  A    between atoms: C14_17  and  S1_18 
REMARK    8  A    between atoms: S1_18  and  C15_21 
REMARK       I    between atoms: C18_24  and  N2_26 
REMARK    9  A    between atoms: C22_31  and  C23_32 
ROOT
HETATM    1  C12 UNL     1       6.469   8.270  19.351  1.00  0.00     0.179 C 
ENDROOT
BRANCH   1   2
HETATM    2  N1  UNL     1       6.243   6.952  19.857  1.00  0.00    -0.343 N 
HETATM    3  C1  UNL     1       5.157   6.757  20.841  1.00  0.00     0.153 C 
HETATM    4  C2  UNL     1       6.955   5.776  19.493  1.00  0.00     0.226 C 
HETATM    5  O1  UNL     1       7.890   5.915  18.685  1.00  0.00    -0.273 OA
BRANCH   4   6
HETATM    6  C3  UNL     1       6.636   4.453  20.017  1.00  0.00     0.097 A 
HETATM    7  C4  UNL     1       5.456   3.646  19.581  1.00  0.00    -0.025 A 
HETATM    8  C5  UNL     1       4.590   3.006  20.694  1.00  0.00     0.016 C 
HETATM    9  C6  UNL     1       4.599   4.007  18.417  1.00  0.00     0.016 C 
HETATM   10  C7  UNL     1       6.858   3.148  19.452  1.00  0.00    -0.003 A 
HETATM   11  C8  UNL     1       7.176   2.052  20.528  1.00  0.00     0.019 C 
BRANCH  10  12
HETATM   12  C9  UNL     1       7.486   2.736  18.182  1.00  0.00     0.038 C 
HETATM   13  C10 UNL     1       7.212   1.226  17.985  1.00  0.00     0.033 C 
HETATM   14  C11 UNL     1       9.015   2.806  18.352  1.00  0.00     0.033 C 
HETATM   15 CL1  UNL     1       7.123   3.617  16.726  1.00  0.00    -0.119 Cl
ENDBRANCH  10  12
ENDBRANCH   4   6
ENDBRANCH   1   2
BRANCH   1  16
HETATM   16  C13 UNL     1       5.258   9.134  19.498  1.00  0.00     0.050 C 
BRANCH  16  17
HETATM   17  C14 UNL     1       4.978   9.700  18.092  1.00  0.00     0.143 C 
BRANCH  17  18
HETATM   18  S1  UNL     1       4.806  11.456  18.164  1.00  0.00     0.148 S 
HETATM   19  O2  UNL     1       3.369  11.792  17.876  1.00  0.00    -0.227 OA
HETATM   20  O3  UNL     1       5.640  12.101  17.085  1.00  0.00    -0.227 OA
BRANCH  18  21
HETATM   21  C15 UNL     1       5.254  12.091  19.751  1.00  0.00     0.108 A 
HETATM   22  C16 UNL     1       6.697  12.476  19.907  1.00  0.00     0.021 A 
HETATM   23  C17 UNL     1       5.640  13.498  19.853  1.00  0.00     0.021 A 
ENDBRANCH  18  21
ENDBRANCH  17  18
ENDBRANCH  16  17
ENDBRANCH   1  16
BRANCH   1  24
HETATM   24  C18 UNL     1       7.717   8.880  19.874  1.00  0.00     0.243 C 
HETATM   25  O4  UNL     1       8.640   9.101  19.005  1.00  0.00    -0.271 OA
HETATM   26  N2  UNL     1       7.995   9.240  21.196  1.00  0.00    -0.335 N 
HETATM   27  C19 UNL     1       9.280   9.845  21.619  1.00  0.00     0.164 C 
HETATM   28  C22 UNL     1       7.236   9.183  22.426  1.00  0.00     0.179 C 
HETATM   29  C20 UNL     1       8.961  10.733  22.773  1.00  0.00     0.190 C 
HETATM   30  F1  UNL     1       9.645  10.373  23.919  1.00  0.00    -0.248 F 
HETATM   31  C21 UNL     1       7.461  10.601  22.950  1.00  0.00     0.073 C 
BRANCH  28  32
HETATM   32  C23 UNL     1       7.765   8.200  23.395  1.00  0.00     0.254 C 
HETATM   33  N3  UNL     1       7.535   8.338  24.779  1.00  0.00    -0.060 NA
HETATM   34  O5  UNL     1       8.431   7.226  22.980  1.00  0.00    -0.275 OA
ENDBRANCH  28  32
ENDBRANCH   1  24
TORSDOF 9
ENDMDL
MODEL 3
REMARK VINA RESULT: -7.121235247      2.791      4.101
REMARK  9 active torsions:
REMARK  status: ('A' for Active; 'I' for Inactive)
REMARK       I    between atoms: N1_2  and  C2_3 
REMARK    1  A    between atoms: N1_2  and  C12_15 
REMARK    2  A    between atoms: C2_3  and  C3_5 
REMARK    3  A    between atoms: C7_9  and  C9_11 
REMARK    4  A    between atoms: C12_15  and  C13_16 
REMARK    5  A    between atoms: C12_15  and  C18_24 
REMARK    6  A    between atoms: C13_16  and  C14_17 
REMARK    7  A    between atoms: C14_17  and  S1_18 
REMARK    8  A    between atoms: S1_18  and  C15_21 
REMARK       I    between atoms: C18_24  and  N2_26 
REMARK    9  A    between atoms: C22_31  and  C23_32 
ROOT
HETATM    1  C12 UNL     1       7.213   7.500  20.781  1.00  0.00     0.179 C 
ENDROOT
BRANCH   1   2
HETATM    2  N1  UNL     1       6.371   6.530  20.152  1.00  0.00    -0.343 N 
HETATM    3  C1  UNL     1       5.108   6.992  19.540  1.00  0.00     0.153 C 
HETATM    4  C2  UNL     1       6.635   5.137  20.032  1.00  0.00     0.226 C 
HETATM    5  O1  UNL     1       7.679   4.716  20.559  1.00  0.00    -0.273 OA
BRANCH   4   6
HETATM    6  C3  UNL     1       5.749   4.213  19.331  1.00  0.00     0.097 A 
HETATM    7  C4  UNL     1       5.583   4.183  17.847  1.00  0.00    -0.025 A 
HETATM    8  C5  UNL     1       4.133   4.137  17.302  1.00  0.00     0.016 C 
HETATM    9  C6  UNL     1       6.453   4.942  16.907  1.00  0.00     0.016 C 
HETATM   10  C7  UNL     1       6.044   2.995  18.625  1.00  0.00    -0.003 A 
HETATM   11  C8  UNL     1       4.910   1.917  18.748  1.00  0.00     0.019 C 
BRANCH  10  12
HETATM   12  C9  UNL     1       7.320   2.291  18.398  1.00  0.00     0.038 C 
HETATM   13  C10 UNL     1       7.073   1.189  17.340  1.00  0.00     0.033 C 
HETATM   14  C11 UNL     1       7.668   1.496  19.671  1.00  0.00     0.033 C 
HETATM   15 CL1  UNL     1       8.742   3.211  18.001  1.00  0.00    -0.119 Cl
ENDBRANCH  10  12
ENDBRANCH   4   6
ENDBRANCH   1   2
BRANCH   1  16
HETATM   16  C13 UNL     1       7.014   8.864  20.202  1.00  0.00     0.050 C 
BRANCH  16  17
HETATM   17  C14 UNL     1       8.350   9.604  20.414  1.00  0.00     0.143 C 
BRANCH  17  18
HETATM   18  S1  UNL     1       8.073  11.136  21.246  1.00  0.00     0.148 S 
HETATM   19  O2  UNL     1       6.601  11.247  21.532  1.00  0.00    -0.227 OA
HETATM   20  O3  UNL     1       8.440  12.288  20.342  1.00  0.00    -0.227 OA
BRANCH  18  21
HETATM   21  C15 UNL     1       8.976  11.229  22.761  1.00  0.00     0.108 A 
HETATM   22  C16 UNL     1       8.589  10.221  23.806  1.00  0.00     0.021 A 
HETATM   23  C17 UNL     1       9.878  10.129  23.101  1.00  0.00     0.021 A 
ENDBRANCH  18  21
ENDBRANCH  17  18
ENDBRANCH  16  17
ENDBRANCH   1  16
BRANCH   1  24
HETATM   24  C18 UNL     1       7.136   7.452  22.262  1.00  0.00     0.243 C 
HETATM   25  O4  UNL     1       8.226   7.142  22.872  1.00  0.00    -0.271 OA
HETATM   26  N2  UNL     1       6.017   7.707  23.061  1.00  0.00    -0.335 N 
HETATM   27  C19 UNL     1       6.043   7.631  24.541  1.00  0.00     0.164 C 
HETATM   28  C22 UNL     1       4.656   8.101  22.775  1.00  0.00     0.179 C 
HETATM   29  C20 UNL     1       5.046   8.629  25.025  1.00  0.00     0.190 C 
HETATM   30  F1  UNL     1       4.049   8.049  25.788  1.00  0.00    -0.248 F 
HETATM   31  C21 UNL     1       4.493   9.257  23.762  1.00  0.00     0.073 C 
BRANCH  28  32
HETATM   32  C23 UNL     1       3.666   7.044  23.073  1.00  0.00     0.254 C 
HETATM   33  N3  UNL     1       4.048   5.691  23.179  1.00  0.00    -0.060 NA
HETATM   34  O5  UNL     1       2.466   7.355  23.235  1.00  0.00    -0.275 OA
ENDBRANCH  28  32
ENDBRANCH   1  24
TORSDOF 9
ENDMDL
MODEL 4
REMARK VINA RESULT: -7.116539554      2.728      5.010
REMARK  9 active torsions:
REMARK  status: ('A' for Active; 'I' for Inactive)
REMARK       I    between atoms: N1_2  and  C2_3 
REMARK    1  A    between atoms: N1_2  and  C12_15 
REMARK    2  A    between atoms: C2_3  and  C3_5 
REMARK    3  A    between atoms: C7_9  and  C9_11 
REMARK    4  A    between atoms: C12_15  and  C13_16 
REMARK    5  A    between atoms: C12_15  and  C18_24 
REMARK    6  A    between atoms: C13_16  and  C14_17 
REMARK    7  A    between atoms: C14_17  and  S1_18 
REMARK    8  A    between atoms: S1_18  and  C15_21 
REMARK       I    between atoms: C18_24  and  N2_26 
REMARK    9  A    between atoms: C22_31  and  C23_32 
ROOT
HETATM    1  C12 UNL     1       7.402   8.275  21.019  1.00  0.00     0.179 C 
ENDROOT
BRANCH   1   2
HETATM    2  N1  UNL     1       6.828   6.973  21.160  1.00  0.00    -0.343 N 
HETATM    3  C1  UNL     1       5.663   6.814  22.055  1.00  0.00     0.153 C 
HETATM    4  C2  UNL     1       7.257   5.788  20.500  1.00  0.00     0.226 C 
HETATM    5  O1  UNL     1       8.251   5.887  19.759  1.00  0.00    -0.273 OA
BRANCH   4   6
HETATM    6  C3  UNL     1       6.591   4.500  20.656  1.00  0.00     0.097 A 
HETATM    7  C4  UNL     1       5.302   4.142  19.990  1.00  0.00    -0.025 A 
HETATM    8  C5  UNL     1       4.210   3.489  20.874  1.00  0.00     0.016 C 
HETATM    9  C6  UNL     1       4.665   4.974  18.932  1.00  0.00     0.016 C 
HETATM   10  C7  UNL     1       6.555   3.357  19.783  1.00  0.00    -0.003 A 
HETATM   11  C8  UNL     1       6.506   1.990  20.551  1.00  0.00     0.019 C 
BRANCH  10  12
HETATM   12  C9  UNL     1       7.185   3.120  18.471  1.00  0.00     0.038 C 
HETATM   13  C10 UNL     1       6.675   1.761  17.936  1.00  0.00     0.033 C 
HETATM   14  C11 UNL     1       8.690   2.877  18.693  1.00  0.00     0.033 C 
HETATM   15 CL1  UNL     1       7.072   4.342  17.237  1.00  0.00    -0.119 Cl
ENDBRANCH  10  12
ENDBRANCH   4   6
ENDBRANCH   1   2
BRANCH   1  16
HETATM   16  C13 UNL     1       8.884   8.251  21.216  1.00  0.00     0.050 C 
BRANCH  16  17
HETATM   17  C14 UNL     1       9.204   9.460  22.116  1.00  0.00     0.143 C 
BRANCH  17  18
HETATM   18  S1  UNL     1       8.964   9.038  23.813  1.00  0.00     0.148 S 
HETATM   19  O2  UNL     1       8.680   7.564  23.887  1.00  0.00    -0.227 OA
HETATM   20  O3  UNL     1       7.751   9.754  24.356  1.00  0.00    -0.227 OA
BRANCH  18  21
HETATM   21  C15 UNL     1      10.389   9.414  24.788  1.00  0.00     0.108 A 
HETATM   22  C16 UNL     1      10.472   8.703  26.109  1.00  0.00     0.021 A 
HETATM   23  C17 UNL     1      11.381   8.361  25.003  1.00  0.00     0.021 A 
ENDBRANCH  18  21
ENDBRANCH  17  18
ENDBRANCH  16  17
ENDBRANCH   1  16
BRANCH   1  24
HETATM   24  C18 UNL     1       6.964   8.965  19.780  1.00  0.00     0.243 C 
HETATM   25  O4  UNL     1       6.930   8.242  18.717  1.00  0.00    -0.271 OA
HETATM   26  N2  UNL     1       6.586  10.304  19.646  1.00  0.00    -0.335 N 
HETATM   27  C19 UNL     1       6.163  10.902  18.356  1.00  0.00     0.164 C 
HETATM   28  C22 UNL     1       6.465  11.406  20.575  1.00  0.00     0.179 C 
HETATM   29  C20 UNL     1       5.181  11.970  18.697  1.00  0.00     0.190 C 
HETATM   30  F1  UNL     1       5.583  13.216  18.253  1.00  0.00    -0.248 F 
HETATM   31  C21 UNL     1       5.074  11.921  20.208  1.00  0.00     0.073 C 
BRANCH  28  32
HETATM   32  C23 UNL     1       7.468  12.469  20.355  1.00  0.00     0.254 C 
HETATM   33  N3  UNL     1       7.180  13.819  20.644  1.00  0.00    -0.060 NA
HETATM   34  O5  UNL     1       8.594  12.167  19.904  1.00  0.00    -0.275 OA
ENDBRANCH  28  32
ENDBRANCH   1  24
TORSDOF 9
ENDMDL
MODEL 5
REMARK VINA RESULT: -7.100309123      1.201      1.554
REMARK  9 active torsions:
REMARK  status: ('A' for Active; 'I' for Inactive)
REMARK       I    between atoms: N1_2  and  C2_3 
REMARK    1  A    between atoms: N1_2  and  C12_15 
REMARK    2  A    between atoms: C2_3  and  C3_5 
REMARK    3  A    between atoms: C7_9  and  C9_11 
REMARK    4  A    between atoms: C12_15  and  C13_16 
REMARK    5  A    between atoms: C12_15  and  C18_24 
REMARK    6  A    between atoms: C13_16  and  C14_17 
REMARK    7  A    between atoms: C14_17  and  S1_18 
REMARK    8  A    between atoms: S1_18  and  C15_21 
REMARK       I    between atoms: C18_24  and  N2_26 
REMARK    9  A    between atoms: C22_31  and  C23_32 
ROOT
HETATM    1  C12 UNL     1       6.943   7.601  19.468  1.00  0.00     0.179 C 
ENDROOT
BRANCH   1   2
HETATM    2  N1  UNL     1       7.266   6.235  19.739  1.00  0.00    -0.343 N 
HETATM    3  C1  UNL     1       7.569   5.850  21.133  1.00  0.00     0.153 C 
HETATM    4  C2  UNL     1       7.310   5.176  18.790  1.00  0.00     0.226 C 
HETATM    5  O1  UNL     1       7.084   5.475  17.605  1.00  0.00    -0.273 OA
BRANCH   4   6
HETATM    6  C3  UNL     1       7.603   3.792  19.149  1.00  0.00     0.097 A 
HETATM    7  C4  UNL     1       6.595   2.850  19.722  1.00  0.00    -0.025 A 
HETATM    8  C5  UNL     1       7.025   2.028  20.963  1.00  0.00     0.016 C 
HETATM    9  C6  UNL     1       5.137   3.149  19.793  1.00  0.00     0.016 C 
HETATM   10  C7  UNL     1       7.320   2.568  18.447  1.00  0.00    -0.003 A 
HETATM   11  C8  UNL     1       8.422   1.470  18.648  1.00  0.00     0.019 C 
BRANCH  10  12
HETATM   12  C9  UNL     1       6.664   2.324  17.149  1.00  0.00     0.038 C 
HETATM   13  C10 UNL     1       6.193   0.851  17.123  1.00  0.00     0.033 C 
HETATM   14  C11 UNL     1       7.738   2.379  16.046  1.00  0.00     0.033 C 
HETATM   15 CL1  UNL     1       5.385   3.383  16.627  1.00  0.00    -0.119 Cl
ENDBRANCH  10  12
ENDBRANCH   4   6
ENDBRANCH   1   2
BRANCH   1  16
HETATM   16  C13 UNL     1       5.592   7.965  19.996  1.00  0.00     0.050 C 
BRANCH  16  17
HETATM   17  C14 UNL     1       4.685   8.105  18.758  1.00  0.00     0.143 C 
BRANCH  17  18
HETATM   18  S1  UNL     1       4.701   9.772  18.176  1.00  0.00     0.148 S 
HETATM   19  O2  UNL     1       5.226  10.643  19.283  1.00  0.00    -0.227 OA
HETATM   20  O3  UNL     1       3.294  10.228  17.878  1.00  0.00    -0.227 OA
BRANCH  18  21
HETATM   21  C15 UNL     1       5.724   9.955  16.747  1.00  0.00     0.108 A 
HETATM   22  C16 UNL     1       5.888  11.363  16.247  1.00  0.00     0.021 A 
HETATM   23  C17 UNL     1       7.003  10.650  16.891  1.00  0.00     0.021 A 
ENDBRANCH  18  21
ENDBRANCH  17  18
ENDBRANCH  16  17
ENDBRANCH   1  16
BRANCH   1  24
HETATM   24  C18 UNL     1       8.023   8.537  19.867  1.00  0.00     0.243 C 
HETATM   25  O4  UNL     1       8.992   8.666  19.030  1.00  0.00    -0.271 OA
HETATM   26  N2  UNL     1       8.100   9.290  21.043  1.00  0.00    -0.335 N 
HETATM   27  C19 UNL     1       9.229  10.201  21.350  1.00  0.00     0.164 C 
HETATM   28  C22 UNL     1       7.230   9.445  22.187  1.00  0.00     0.179 C 
HETATM   29  C20 UNL     1       8.659  11.304  22.175  1.00  0.00     0.190 C 
HETATM   30  F1  UNL     1       9.261  11.398  23.416  1.00  0.00    -0.248 F 
HETATM   31  C21 UNL     1       7.185  10.969  22.291  1.00  0.00     0.073 C 
BRANCH  28  32
HETATM   32  C23 UNL     1       7.791   8.875  23.430  1.00  0.00     0.254 C 
HETATM   33  N3  UNL     1       7.346   9.300  24.698  1.00  0.00    -0.060 NA
HETATM   34  O5  UNL     1       8.677   7.996  23.357  1.00  0.00    -0.275 OA
ENDBRANCH  28  32
ENDBRANCH   1  24
TORSDOF 9
ENDMDL
