MODEL 1
REMARK VINA RESULT: -7.872711768      0.000      0.000
REMARK  10 active torsions:
REMARK  status: ('A' for Active; 'I' for Inactive)
REMARK    1  A    between atoms: C2_2  and  C3_4 
REMARK    2  A    between atoms: C4_6  and  N1_7 
REMARK    3  A    between atoms: C4_6  and  C12_20 
REMARK       I    between atoms: N1_7  and  C5_9 
REMARK    4  A    between atoms: C5_9  and  C6_11 
REMARK    5  A    between atoms: C12_20  and  O2_22 
REMARK    6  A    between atoms: O2_22  and  C14_23 
REMARK    7  A    between atoms: C14_23  and  C15_25 
REMARK    8  A    between atoms: C15_25  and  N3_26 
REMARK    9  A    between atoms: N3_26  and  S1_28 
REMARK   10  A    between atoms: S1_28  and  N4_31 
ROOT
HETATM    1  C3  UNL     1       5.602   5.994  17.040  1.00  0.00     0.055 C 
HETATM    2 CL2  UNL     1       4.569   7.410  16.716  1.00  0.00    -0.085 Cl
HETATM    3  C4  UNL     1       6.474   6.051  18.005  1.00  0.00     0.060 C 
ENDROOT
BRANCH   3   4
HETATM    4  N1  UNL     1       7.305   4.971  18.316  1.00  0.00    -0.325 N 
HETATM    5  C5  UNL     1       7.141   3.920  19.223  1.00  0.00     0.253 C 
HETATM    6  O1  UNL     1       6.165   3.764  19.952  1.00  0.00    -0.271 OA
ATOM      7  H1  UNL     1       8.179   4.944  17.791  1.00  0.00     0.168 HD
BRANCH   5   8
HETATM    8  C6  UNL     1       8.226   2.889  19.335  1.00  0.00     0.281 C 
HETATM    9  N2  UNL     1       9.292   3.129  18.384  1.00  0.00    -0.058 N 
HETATM   10  C7  UNL     1       9.357   1.966  17.520  1.00  0.00     0.187 C 
ATOM     11  H22 UNL     1       9.182   4.004  17.871  1.00  0.00     0.278 HD
ATOM     12  H21 UNL     1      10.183   3.349  18.828  1.00  0.00     0.278 HD
HETATM   13  C8  UNL     1       8.126   1.949  16.678  1.00  0.00     0.033 C 
HETATM   14  C11 UNL     1       9.021   0.863  18.540  1.00  0.00     0.040 C 
HETATM   15  C9  UNL     1       7.003   1.633  17.655  1.00  0.00     0.009 C 
HETATM   16  C10 UNL     1       7.703   1.518  18.988  1.00  0.00     0.028 C 
ENDBRANCH   5   8
ENDBRANCH   3   4
BRANCH   3  17
HETATM   17  C12 UNL     1       6.543   7.328  18.791  1.00  0.00     0.179 C 
HETATM   18  C13 UNL     1       5.620   7.319  19.991  1.00  0.00     0.047 C 
BRANCH  17  19
HETATM   19  O2  UNL     1       7.859   7.722  19.084  1.00  0.00    -0.309 OA
BRANCH  19  20
HETATM   20  C14 UNL     1       8.267   9.025  19.283  1.00  0.00     0.273 C 
HETATM   21  O3  UNL     1       8.102   9.837  18.337  1.00  0.00    -0.264 OA
BRANCH  20  22
HETATM   22  C15 UNL     1       8.885   9.450  20.583  1.00  0.00     0.219 C 
BRANCH  22  23
HETATM   23  N3  UNL     1       7.872   9.654  21.592  1.00  0.00    -0.188 NA
HETATM   24  C16 UNL     1       7.836  11.033  22.007  1.00  0.00     0.131 C 
BRANCH  23  25
HETATM   25  S1  UNL     1       7.896   8.519  22.862  1.00  0.00     0.307 S 
HETATM   26  O4  UNL     1       8.321   7.175  22.279  1.00  0.00    -0.188 OA
HETATM   27  O5  UNL     1       6.484   8.310  23.398  1.00  0.00    -0.188 OA
BRANCH  25  28
HETATM   28  N4  UNL     1       8.915   8.864  24.151  1.00  0.00    -0.257 N 
HETATM   29  C17 UNL     1       8.479   8.621  25.458  1.00  0.00     0.082 C 
HETATM   30  C18 UNL     1       9.455   7.870  26.333  1.00  0.00     0.046 C 
HETATM   31  C19 UNL     1      10.775   8.614  26.244  1.00  0.00     0.010 C 
HETATM   32  C20 UNL     1      11.256   8.435  24.807  1.00  0.00     0.046 C 
HETATM   33  C21 UNL     1      10.271   9.117  23.892  1.00  0.00     0.082 C 
ENDBRANCH  25  28
ENDBRANCH  23  25
ENDBRANCH  22  23
ENDBRANCH  20  22
ENDBRANCH  19  20
ENDBRANCH  17  19
ENDBRANCH   3  17
BRANCH   1  34
HETATM   34  C2  UNL     1       5.357   4.848  16.161  1.00  0.00     0.125 C 
HETATM   35  C1  UNL     1       3.839   4.708  15.906  1.00  0.00     0.032 C 
HETATM   36 CL1  UNL     1       6.048   5.135  14.526  1.00  0.00    -0.119 Cl
ENDBRANCH   1  34
TORSDOF 10
ENDMDL
MODEL 2
REMARK VINA RESULT: -7.861731427      1.721      2.116
REMARK  10 active torsions:
REMARK  status: ('A' for Active; 'I' for Inactive)
REMARK    1  A    between atoms: C2_2  and  C3_4 
REMARK    2  A    between atoms: C4_6  and  N1_7 
REMARK    3  A    between atoms: C4_6  and  C12_20 
REMARK       I    between atoms: N1_7  and  C5_9 
REMARK    4  A    between atoms: C5_9  and  C6_11 
REMARK    5  A    between atoms: C12_20  and  O2_22 
REMARK    6  A    between atoms: O2_22  and  C14_23 
REMARK    7  A    between atoms: C14_23  and  C15_25 
REMARK    8  A    between atoms: C15_25  and  N3_26 
REMARK    9  A    between atoms: N3_26  and  S1_28 
REMARK   10  A    between atoms: S1_28  and  N4_31 
ROOT
HETATM    1  C3  UNL     1       5.756   8.018  18.175  1.00  0.00     0.055 C 
HETATM    2 CL2  UNL     1       5.090   9.476  18.956  1.00  0.00    -0.085 Cl
HETATM    3  C4  UNL     1       6.502   7.209  18.871  1.00  0.00     0.060 C 
ENDROOT
BRANCH   3   4
HETATM    4  N1  UNL     1       7.044   6.045  18.320  1.00  0.00    -0.325 N 
HETATM    5  C5  UNL     1       6.484   4.780  18.119  1.00  0.00     0.253 C 
HETATM    6  O1  UNL     1       5.336   4.461  18.418  1.00  0.00    -0.271 OA
ATOM      7  H1  UNL     1       8.012   6.133  18.012  1.00  0.00     0.168 HD
BRANCH   5   8
HETATM    8  C6  UNL     1       7.329   3.710  17.490  1.00  0.00     0.281 C 
HETATM    9  N2  UNL     1       6.644   2.433  17.466  1.00  0.00    -0.058 N 
HETATM   10  C7  UNL     1       7.443   1.510  18.247  1.00  0.00     0.187 C 
ATOM     11  H22 UNL     1       5.676   2.492  17.781  1.00  0.00     0.278 HD
ATOM     12  H21 UNL     1       6.453   2.099  16.521  1.00  0.00     0.278 HD
HETATM   13  C8  UNL     1       7.364   1.929  19.677  1.00  0.00     0.033 C 
HETATM   14  C11 UNL     1       8.853   2.009  17.881  1.00  0.00     0.040 C 
HETATM   15  C9  UNL     1       8.137   3.239  19.731  1.00  0.00     0.009 C 
HETATM   16  C10 UNL     1       8.574   3.461  18.303  1.00  0.00     0.028 C 
ENDBRANCH   5   8
ENDBRANCH   3   4
BRANCH   3  17
HETATM   17  C12 UNL     1       6.746   7.569  20.308  1.00  0.00     0.179 C 
HETATM   18  C13 UNL     1       5.875   6.776  21.259  1.00  0.00     0.047 C 
BRANCH  17  19
HETATM   19  O2  UNL     1       8.109   7.572  20.649  1.00  0.00    -0.309 OA
BRANCH  19  20
HETATM   20  C14 UNL     1       8.891   8.702  20.768  1.00  0.00     0.273 C 
HETATM   21  O3  UNL     1       9.015   9.433  19.753  1.00  0.00    -0.264 OA
BRANCH  20  22
HETATM   22  C15 UNL     1       9.566   9.040  22.065  1.00  0.00     0.219 C 
BRANCH  22  23
HETATM   23  N3  UNL     1       8.650   9.701  22.965  1.00  0.00    -0.188 NA
HETATM   24  C16 UNL     1       9.048  11.069  23.182  1.00  0.00     0.131 C 
BRANCH  23  25
HETATM   25  S1  UNL     1       8.284   8.823  24.378  1.00  0.00     0.307 S 
HETATM   26  O4  UNL     1       7.846   7.424  23.957  1.00  0.00    -0.188 OA
HETATM   27  O5  UNL     1       7.079   9.442  25.076  1.00  0.00    -0.188 OA
BRANCH  25  28
HETATM   28  N4  UNL     1       9.526   8.657  25.495  1.00  0.00    -0.257 N 
HETATM   29  C17 UNL     1       9.289   7.971  26.692  1.00  0.00     0.082 C 
HETATM   30  C18 UNL     1      10.324   6.932  27.054  1.00  0.00     0.046 C 
HETATM   31  C19 UNL     1      11.673   7.626  26.989  1.00  0.00     0.010 C 
HETATM   32  C20 UNL     1      11.896   7.963  25.518  1.00  0.00     0.046 C 
HETATM   33  C21 UNL     1      10.840   8.952  25.096  1.00  0.00     0.082 C 
ENDBRANCH  25  28
ENDBRANCH  23  25
ENDBRANCH  22  23
ENDBRANCH  20  22
ENDBRANCH  19  20
ENDBRANCH  17  19
ENDBRANCH   3  17
BRANCH   1  34
HETATM   34  C2  UNL     1       5.380   7.855  16.769  1.00  0.00     0.125 C 
HETATM   35  C1  UNL     1       3.869   7.543  16.673  1.00  0.00     0.032 C 
HETATM   36 CL1  UNL     1       5.562   9.403  15.872  1.00  0.00    -0.119 Cl
ENDBRANCH   1  34
TORSDOF 10
ENDMDL
MODEL 3
REMARK VINA RESULT: -7.592769908      2.587      3.072
REMARK  10 active torsions:
REMARK  status: ('A' for Active; 'I' for Inactive)
REMARK    1  A    between atoms: C2_2  and  C3_4 
REMARK    2  A    between atoms: C4_6  and  N1_7 
REMARK    3  A    between atoms: C4_6  and  C12_20 
REMARK       I    between atoms: N1_7  and  C5_9 
REMARK    4  A    between atoms: C5_9  and  C6_11 
REMARK    5  A    between atoms: C12_20  and  O2_22 
REMARK    6  A    between atoms: O2_22  and  C14_23 
REMARK    7  A    between atoms: C14_23  and  C15_25 
REMARK    8  A    between atoms: C15_25  and  N3_26 
REMARK    9  A    between atoms: N3_26  and  S1_28 
REMARK   10  A    between atoms: S1_28  and  N4_31 
ROOT
HETATM    1  C3  UNL     1       4.524   4.563  20.952  1.00  0.00     0.055 C 
HETATM    2 CL2  UNL     1       3.448   5.290  22.173  1.00  0.00    -0.085 Cl
HETATM    3  C4  UNL     1       5.452   5.296  20.405  1.00  0.00     0.060 C 
ENDROOT
BRANCH   3   4
HETATM    4  N1  UNL     1       6.333   4.781  19.451  1.00  0.00    -0.325 N 
HETATM    5  C5  UNL     1       7.625   4.262  19.582  1.00  0.00     0.253 C 
HETATM    6  O1  UNL     1       8.242   4.168  20.639  1.00  0.00    -0.271 OA
ATOM      7  H1  UNL     1       5.973   4.784  18.496  1.00  0.00     0.168 HD
BRANCH   5   8
HETATM    8  C6  UNL     1       8.334   3.775  18.351  1.00  0.00     0.281 C 
HETATM    9  N2  UNL     1       7.419   3.592  17.244  1.00  0.00    -0.058 N 
HETATM   10  C7  UNL     1       7.474   2.191  16.877  1.00  0.00     0.187 C 
ATOM     11  H22 UNL     1       6.474   3.917  17.447  1.00  0.00     0.278 HD
ATOM     12  H21 UNL     1       7.606   4.220  16.461  1.00  0.00     0.278 HD
HETATM   13  C8  UNL     1       6.857   1.401  17.982  1.00  0.00     0.033 C 
HETATM   14  C11 UNL     1       8.968   1.913  17.127  1.00  0.00     0.040 C 
HETATM   15  C9  UNL     1       7.841   1.530  19.136  1.00  0.00     0.009 C 
HETATM   16  C10 UNL     1       8.935   2.412  18.582  1.00  0.00     0.028 C 
ENDBRANCH   5   8
ENDBRANCH   3   4
BRANCH   3  17
HETATM   17  C12 UNL     1       5.549   6.724  20.855  1.00  0.00     0.179 C 
HETATM   18  C13 UNL     1       6.515   6.902  22.008  1.00  0.00     0.047 C 
BRANCH  17  19
HETATM   19  O2  UNL     1       5.754   7.621  19.794  1.00  0.00    -0.309 OA
BRANCH  19  20
HETATM   20  C14 UNL     1       6.947   8.256  19.516  1.00  0.00     0.273 C 
HETATM   21  O3  UNL     1       7.877   7.561  19.034  1.00  0.00    -0.264 OA
BRANCH  20  22
HETATM   22  C15 UNL     1       7.121   9.723  19.783  1.00  0.00     0.219 C 
BRANCH  22  23
HETATM   23  N3  UNL     1       7.124   9.990  21.202  1.00  0.00    -0.188 NA
HETATM   24  C16 UNL     1       5.960  10.751  21.579  1.00  0.00     0.131 C 
BRANCH  23  25
HETATM   25  S1  UNL     1       8.601  10.583  21.810  1.00  0.00     0.307 S 
HETATM   26  O4  UNL     1       8.536  12.107  21.788  1.00  0.00    -0.188 OA
HETATM   27  O5  UNL     1       9.739  10.203  20.870  1.00  0.00    -0.188 OA
BRANCH  25  28
HETATM   28  N4  UNL     1       9.009  10.110  23.369  1.00  0.00    -0.257 N 
HETATM   29  C17 UNL     1       8.032   9.544  24.195  1.00  0.00     0.082 C 
HETATM   30  C18 UNL     1       8.441   8.271  24.898  1.00  0.00     0.046 C 
HETATM   31  C19 UNL     1       9.755   8.567  25.598  1.00  0.00     0.010 C 
HETATM   32  C20 UNL     1      10.775   8.795  24.486  1.00  0.00     0.046 C 
HETATM   33  C21 UNL     1      10.366  10.024  23.716  1.00  0.00     0.082 C 
ENDBRANCH  25  28
ENDBRANCH  23  25
ENDBRANCH  22  23
ENDBRANCH  20  22
ENDBRANCH  19  20
ENDBRANCH  17  19
ENDBRANCH   3  17
BRANCH   1  34
HETATM   34  C2  UNL     1       4.261   3.149  20.673  1.00  0.00     0.125 C 
HETATM   35  C1  UNL     1       5.091   2.270  21.636  1.00  0.00     0.032 C 
HETATM   36 CL1  UNL     1       2.556   2.726  21.057  1.00  0.00    -0.119 Cl
ENDBRANCH   1  34
TORSDOF 10
ENDMDL
MODEL 4
REMARK VINA RESULT: -7.529895741      2.669      3.628
REMARK  10 active torsions:
REMARK  status: ('A' for Active; 'I' for Inactive)
REMARK    1  A    between atoms: C2_2  and  C3_4 
REMARK    2  A    between atoms: C4_6  and  N1_7 
REMARK    3  A    between atoms: C4_6  and  C12_20 
REMARK       I    between atoms: N1_7  and  C5_9 
REMARK    4  A    between atoms: C5_9  and  C6_11 
REMARK    5  A    between atoms: C12_20  and  O2_22 
REMARK    6  A    between atoms: O2_22  and  C14_23 
REMARK    7  A    between atoms: C14_23  and  C15_25 
REMARK    8  A    between atoms: C15_25  and  N3_26 
REMARK    9  A    between atoms: N3_26  and  S1_28 
REMARK   10  A    between atoms: S1_28  and  N4_31 
ROOT
HETATM    1  C3  UNL     1       4.526   5.041  21.830  1.00  0.00     0.055 C 
HETATM    2 CL2  UNL     1       4.240   6.202  23.153  1.00  0.00    -0.085 Cl
HETATM    3  C4  UNL     1       5.403   5.329  20.911  1.00  0.00     0.060 C 
ENDROOT
BRANCH   3   4
HETATM    4  N1  UNL     1       5.680   4.456  19.855  1.00  0.00    -0.325 N 
HETATM    5  C5  UNL     1       6.367   3.239  19.829  1.00  0.00     0.253 C 
HETATM    6  O1  UNL     1       6.880   2.699  20.805  1.00  0.00    -0.271 OA
ATOM      7  H1  UNL     1       5.319   4.758  18.950  1.00  0.00     0.168 HD
BRANCH   5   8
HETATM    8  C6  UNL     1       6.504   2.517  18.520  1.00  0.00     0.281 C 
HETATM    9  N2  UNL     1       7.266   1.293  18.662  1.00  0.00    -0.058 N 
HETATM   10  C7  UNL     1       8.437   1.423  17.817  1.00  0.00     0.187 C 
ATOM     11  H22 UNL     1       7.494   1.073  19.631  1.00  0.00     0.278 HD
ATOM     12  H21 UNL     1       6.719   0.455  18.463  1.00  0.00     0.278 HD
HETATM   13  C8  UNL     1       9.322   2.464  18.415  1.00  0.00     0.033 C 
HETATM   14  C11 UNL     1       7.825   2.208  16.642  1.00  0.00     0.040 C 
HETATM   15  C9  UNL     1       8.563   3.768  18.214  1.00  0.00     0.009 C 
HETATM   16  C10 UNL     1       7.286   3.342  17.530  1.00  0.00     0.028 C 
ENDBRANCH   5   8
ENDBRANCH   3   4
BRANCH   3  17
HETATM   17  C12 UNL     1       6.123   6.639  21.039  1.00  0.00     0.179 C 
HETATM   18  C13 UNL     1       7.627   6.468  21.107  1.00  0.00     0.047 C 
BRANCH  17  19
HETATM   19  O2  UNL     1       5.699   7.593  20.099  1.00  0.00    -0.309 OA
BRANCH  19  20
HETATM   20  C14 UNL     1       6.301   7.820  18.878  1.00  0.00     0.273 C 
HETATM   21  O3  UNL     1       6.341   6.865  18.063  1.00  0.00    -0.264 OA
BRANCH  20  22
HETATM   22  C15 UNL     1       6.884   9.162  18.544  1.00  0.00     0.219 C 
BRANCH  22  23
HETATM   23  N3  UNL     1       6.825  10.047  19.683  1.00  0.00    -0.188 NA
HETATM   24  C16 UNL     1       6.133  11.266  19.347  1.00  0.00     0.131 C 
BRANCH  23  25
HETATM   25  S1  UNL     1       8.308  10.260  20.494  1.00  0.00     0.307 S 
HETATM   26  O4  UNL     1       8.809  11.668  20.186  1.00  0.00    -0.188 OA
HETATM   27  O5  UNL     1       9.355   9.314  19.919  1.00  0.00    -0.188 OA
BRANCH  25  28
HETATM   28  N4  UNL     1       8.278  10.080  22.163  1.00  0.00    -0.257 N 
HETATM   29  C17 UNL     1       7.068  10.226  22.850  1.00  0.00     0.082 C 
HETATM   30  C18 UNL     1       6.755   9.132  23.843  1.00  0.00     0.046 C 
HETATM   31  C19 UNL     1       7.972   9.005  24.743  1.00  0.00     0.010 C 
HETATM   32  C20 UNL     1       9.091   8.474  23.853  1.00  0.00     0.046 C 
HETATM   33  C21 UNL     1       9.391   9.513  22.803  1.00  0.00     0.082 C 
ENDBRANCH  25  28
ENDBRANCH  23  25
ENDBRANCH  22  23
ENDBRANCH  20  22
ENDBRANCH  19  20
ENDBRANCH  17  19
ENDBRANCH   3  17
BRANCH   1  34
HETATM   34  C2  UNL     1       3.723   3.819  21.908  1.00  0.00     0.125 C 
HETATM   35  C1  UNL     1       3.034   3.742  23.290  1.00  0.00     0.032 C 
HETATM   36 CL1  UNL     1       2.355   3.875  20.743  1.00  0.00    -0.119 Cl
ENDBRANCH   1  34
TORSDOF 10
ENDMDL
MODEL 5
REMARK VINA RESULT: -7.477073488      2.158      3.163
REMARK  10 active torsions:
REMARK  status: ('A' for Active; 'I' for Inactive)
REMARK    1  A    between atoms: C2_2  and  C3_4 
REMARK    2  A    between atoms: C4_6  and  N1_7 
REMARK    3  A    between atoms: C4_6  and  C12_20 
REMARK       I    between atoms: N1_7  and  C5_9 
REMARK    4  A    between atoms: C5_9  and  C6_11 
REMARK    5  A    between atoms: C12_20  and  O2_22 
REMARK    6  A    between atoms: O2_22  and  C14_23 
REMARK    7  A    between atoms: C14_23  and  C15_25 
REMARK    8  A    between atoms: C15_25  and  N3_26 
REMARK    9  A    between atoms: N3_26  and  S1_28 
REMARK   10  A    between atoms: S1_28  and  N4_31 
ROOT
HETATM    1  C3  UNL     1       5.439   7.978  17.771  1.00  0.00     0.055 C 
HETATM    2 CL2  UNL     1       4.535   9.398  18.357  1.00  0.00    -0.085 Cl
HETATM    3  C4  UNL     1       6.185   7.311  18.605  1.00  0.00     0.060 C 
ENDROOT
BRANCH   3   4
HETATM    4  N1  UNL     1       6.909   6.183  18.210  1.00  0.00    -0.325 N 
HETATM    5  C5  UNL     1       6.506   4.860  18.010  1.00  0.00     0.253 C 
HETATM    6  O1  UNL     1       5.362   4.441  18.162  1.00  0.00    -0.271 OA
ATOM      7  H1  UNL     1       7.900   6.355  18.038  1.00  0.00     0.168 HD
BRANCH   5   8
HETATM    8  C6  UNL     1       7.531   3.852  17.575  1.00  0.00     0.281 C 
HETATM    9  N2  UNL     1       6.959   2.527  17.451  1.00  0.00    -0.058 N 
HETATM   10  C7  UNL     1       7.661   1.674  18.390  1.00  0.00     0.187 C 
ATOM     11  H22 UNL     1       5.947   2.514  17.578  1.00  0.00     0.278 HD
ATOM     12  H21 UNL     1       6.975   2.172  16.495  1.00  0.00     0.278 HD
HETATM   13  C8  UNL     1       7.282   2.097  19.769  1.00  0.00     0.033 C 
HETATM   14  C11 UNL     1       9.074   2.276  18.284  1.00  0.00     0.040 C 
HETATM   15  C9  UNL     1       7.932   3.463  19.939  1.00  0.00     0.009 C 
HETATM   16  C10 UNL     1       8.614   3.707  18.613  1.00  0.00     0.028 C 
ENDBRANCH   5   8
ENDBRANCH   3   4
BRANCH   3  17
HETATM   17  C12 UNL     1       6.225   7.796  20.025  1.00  0.00     0.179 C 
HETATM   18  C13 UNL     1       6.514   6.681  21.009  1.00  0.00     0.047 C 
BRANCH  17  19
HETATM   19  O2  UNL     1       7.034   8.931  20.195  1.00  0.00    -0.309 OA
BRANCH  19  20
HETATM   20  C14 UNL     1       8.414   8.922  20.217  1.00  0.00     0.273 C 
HETATM   21  O3  UNL     1       9.011   8.708  19.132  1.00  0.00    -0.264 OA
BRANCH  20  22
HETATM   22  C15 UNL     1       9.167   9.158  21.493  1.00  0.00     0.219 C 
BRANCH  22  23
HETATM   23  N3  UNL     1       8.355   9.882  22.443  1.00  0.00    -0.188 NA
HETATM   24  C16 UNL     1       8.966  11.143  22.779  1.00  0.00     0.131 C 
BRANCH  23  25
HETATM   25  S1  UNL     1       7.826   8.960  23.774  1.00  0.00     0.307 S 
HETATM   26  O4  UNL     1       8.444   9.563  25.033  1.00  0.00    -0.188 OA
HETATM   27  O5  UNL     1       8.381   7.544  23.678  1.00  0.00    -0.188 OA
BRANCH  25  28
HETATM   28  N4  UNL     1       6.166   8.873  24.009  1.00  0.00    -0.257 N 
HETATM   29  C17 UNL     1       5.327   9.768  23.336  1.00  0.00     0.082 C 
HETATM   30  C18 UNL     1       4.140   9.141  22.645  1.00  0.00     0.046 C 
HETATM   31  C19 UNL     1       3.435   8.288  23.685  1.00  0.00     0.010 C 
HETATM   32  C20 UNL     1       4.398   7.150  24.008  1.00  0.00     0.046 C 
HETATM   33  C21 UNL     1       5.631   7.741  24.643  1.00  0.00     0.082 C 
ENDBRANCH  25  28
ENDBRANCH  23  25
ENDBRANCH  22  23
ENDBRANCH  20  22
ENDBRANCH  19  20
ENDBRANCH  17  19
ENDBRANCH   3  17
BRANCH   1  34
HETATM   34  C2  UNL     1       5.244   7.675  16.352  1.00  0.00     0.125 C 
HETATM   35  C1  UNL     1       3.825   7.100  16.138  1.00  0.00     0.032 C 
HETATM   36 CL1  UNL     1       5.256   9.180  15.367  1.00  0.00    -0.119 Cl
ENDBRANCH   1  34
TORSDOF 10
ENDMDL
