MODEL 1
REMARK VINA RESULT: -8.367001883      0.000      0.000
REMARK  8 active torsions:
REMARK  status: ('A' for Active; 'I' for Inactive)
REMARK       I    between atoms: C2_2  and  N1_4 
REMARK    1  A    between atoms: C4_6  and  C5_7 
REMARK       I    between atoms: C5_7  and  N2_9 
REMARK    2  A    between atoms: N2_9  and  C6_11 
REMARK       I    between atoms: N4_14  and  C8_15 
REMARK       I    between atoms: C8_15  and  N5_17 
REMARK    3  A    between atoms: N5_17  and  C9_19 
REMARK    4  A    between atoms: C9_19  and  C10_20 
REMARK    5  A    between atoms: C10_20  and  C11_21 
REMARK    6  A    between atoms: N6_24  and  C14_25 
REMARK    7  A    between atoms: C14_25  and  C15_26 
REMARK    8  A    between atoms: C15_26  and  C16_27 
ROOT
HETATM    1  C6  UNL     1       7.027   7.301  23.881  1.00  0.00     0.247 C 
HETATM    2  C7  UNL     1       6.731   8.590  24.492  1.00  0.00     0.078 C 
HETATM    3  N3  UNL     1       6.483   9.619  24.998  1.00  0.00    -0.196 NA
ENDROOT
BRANCH   1   4
HETATM    4  N2  UNL     1       6.047   6.997  22.835  1.00  0.00    -0.347 N 
HETATM    5  C5  UNL     1       6.403   6.779  21.506  1.00  0.00     0.243 C 
HETATM    6  O2  UNL     1       7.617   6.845  21.191  1.00  0.00    -0.271 OA
ATOM      7  H2  UNL     1       5.061   6.943  23.091  1.00  0.00     0.163 HD
BRANCH   5   8
HETATM    8  C4  UNL     1       5.438   6.476  20.459  1.00  0.00     0.199 C 
HETATM    9  C3  UNL     1       4.848   5.081  20.605  1.00  0.00     0.167 C 
HETATM   10  N1  UNL     1       5.831   4.028  20.510  1.00  0.00    -0.287 N 
HETATM   11  C2  UNL     1       5.524   2.949  21.400  1.00  0.00     0.220 C 
HETATM   12  C25 UNL     1       7.020   3.802  19.746  1.00  0.00     0.327 C 
HETATM   13  C1  UNL     1       4.353   2.923  22.283  1.00  0.00     0.117 C 
HETATM   14  O1  UNL     1       6.302   1.968  21.424  1.00  0.00    -0.274 OA
HETATM   15  C24 UNL     1       7.327   4.765  18.668  1.00  0.00     0.124 C 
HETATM   16  F1  UNL     1       6.878   2.529  19.174  1.00  0.00    -0.182 F 
HETATM   17  F2  UNL     1       8.133   3.737  20.586  1.00  0.00    -0.182 F 
HETATM   18  C23 UNL     1       6.186   5.593  18.172  1.00  0.00     0.136 C 
HETATM   19  N4  UNL     1       5.878   6.655  19.107  1.00  0.00    -0.319 N 
HETATM   20  C8  UNL     1       6.021   7.953  18.593  1.00  0.00     0.319 C 
HETATM   21  O3  UNL     1       6.420   8.112  17.415  1.00  0.00    -0.247 OA
HETATM   22  N5  UNL     1       5.725   9.091  19.372  1.00  0.00    -0.343 N 
ATOM     23  H5  UNL     1       5.396   8.935  20.324  1.00  0.00     0.164 HD
BRANCH  22  24
HETATM   24  C9  UNL     1       5.852  10.459  18.928  1.00  0.00     0.125 C 
BRANCH  24  25
HETATM   25  C10 UNL     1       7.069  11.113  19.487  1.00  0.00     0.024 C 
BRANCH  25  26
HETATM   26  C11 UNL     1       7.535  10.470  20.775  1.00  0.00    -0.010 C 
HETATM   27  C12 UNL     1       7.456  11.369  21.968  1.00  0.00     0.024 C 
HETATM   28  C13 UNL     1       8.745  11.480  22.719  1.00  0.00     0.117 C 
HETATM   29  N6  UNL     1       9.445  10.257  22.882  1.00  0.00    -0.412 N 
HETATM   30  C21 UNL     1       9.550   9.397  21.766  1.00  0.00     0.117 C 
HETATM   31  C22 UNL     1       8.973  10.055  20.537  1.00  0.00     0.024 C 
BRANCH  29  32
HETATM   32  C14 UNL     1      10.524  10.257  23.809  1.00  0.00     0.119 C 
BRANCH  32  33
HETATM   33  C15 UNL     1      10.175   9.609  25.132  1.00  0.00     0.051 C 
BRANCH  33  34
HETATM   34  C16 UNL     1      10.550   8.117  25.104  1.00  0.00     0.123 C 
HETATM   35  C17 UNL     1       9.945   7.395  26.230  1.00  0.00     0.032 C 
HETATM   36  C18 UNL     1      10.874   6.896  27.285  1.00  0.00     0.004 C 
HETATM   37  C19 UNL     1      12.217   7.633  27.193  1.00  0.00     0.026 C 
HETATM   38  C20 UNL     1      12.675   7.390  25.769  1.00  0.00     0.168 C 
HETATM   39  O4  UNL     1      11.877   8.046  24.910  1.00  0.00    -0.386 OA
ENDBRANCH  33  34
ENDBRANCH  32  33
ENDBRANCH  29  32
ENDBRANCH  25  26
ENDBRANCH  24  25
ENDBRANCH  22  24
ENDBRANCH   5   8
ENDBRANCH   1   4
TORSDOF 8
ENDMDL
MODEL 2
REMARK VINA RESULT: -8.100822566      3.343      8.028
REMARK  8 active torsions:
REMARK  status: ('A' for Active; 'I' for Inactive)
REMARK       I    between atoms: C2_2  and  N1_4 
REMARK    1  A    between atoms: C4_6  and  C5_7 
REMARK       I    between atoms: C5_7  and  N2_9 
REMARK    2  A    between atoms: N2_9  and  C6_11 
REMARK       I    between atoms: N4_14  and  C8_15 
REMARK       I    between atoms: C8_15  and  N5_17 
REMARK    3  A    between atoms: N5_17  and  C9_19 
REMARK    4  A    between atoms: C9_19  and  C10_20 
REMARK    5  A    between atoms: C10_20  and  C11_21 
REMARK    6  A    between atoms: N6_24  and  C14_25 
REMARK    7  A    between atoms: C14_25  and  C15_26 
REMARK    8  A    between atoms: C15_26  and  C16_27 
ROOT
HETATM    1  C6  UNL     1       4.179   9.491  24.527  1.00  0.00     0.247 C 
HETATM    2  C7  UNL     1       3.059   8.623  24.868  1.00  0.00     0.078 C 
HETATM    3  N3  UNL     1       2.167   7.918  25.157  1.00  0.00    -0.196 NA
ENDROOT
BRANCH   1   4
HETATM    4  N2  UNL     1       5.056   8.831  23.558  1.00  0.00    -0.347 N 
HETATM    5  C5  UNL     1       6.244   8.199  23.920  1.00  0.00     0.243 C 
HETATM    6  O2  UNL     1       6.576   8.196  25.131  1.00  0.00    -0.271 OA
ATOM      7  H2  UNL     1       4.786   8.833  22.574  1.00  0.00     0.163 HD
BRANCH   5   8
HETATM    8  C4  UNL     1       7.123   7.539  22.965  1.00  0.00     0.199 C 
HETATM    9  C3  UNL     1       8.514   8.155  22.942  1.00  0.00     0.167 C 
HETATM   10  N1  UNL     1       8.522   9.542  22.543  1.00  0.00    -0.287 N 
HETATM   11  C2  UNL     1       9.512  10.283  23.265  1.00  0.00     0.220 C 
HETATM   12  C25 UNL     1       7.793  10.345  21.610  1.00  0.00     0.327 C 
HETATM   13  C1  UNL     1      10.405   9.697  24.270  1.00  0.00     0.117 C 
HETATM   14  O1  UNL     1       9.623  11.507  23.022  1.00  0.00    -0.274 OA
HETATM   15  C24 UNL     1       6.877   9.646  20.684  1.00  0.00     0.124 C 
HETATM   16  F1  UNL     1       8.755  11.026  20.849  1.00  0.00    -0.182 F 
HETATM   17  F2  UNL     1       7.054  11.322  22.280  1.00  0.00    -0.182 F 
HETATM   18  C23 UNL     1       7.122   8.185  20.485  1.00  0.00     0.136 C 
HETATM   19  N4  UNL     1       6.642   7.424  21.621  1.00  0.00    -0.319 N 
HETATM   20  C8  UNL     1       5.631   6.497  21.325  1.00  0.00     0.319 C 
HETATM   21  O3  UNL     1       5.198   6.406  20.152  1.00  0.00    -0.247 OA
HETATM   22  N5  UNL     1       5.086   5.659  22.319  1.00  0.00    -0.343 N 
ATOM     23  H5  UNL     1       5.459   5.747  23.264  1.00  0.00     0.164 HD
BRANCH  22  24
HETATM   24  C9  UNL     1       4.041   4.686  22.106  1.00  0.00     0.125 C 
BRANCH  24  25
HETATM   25  C10 UNL     1       4.455   3.322  22.543  1.00  0.00     0.024 C 
BRANCH  25  26
HETATM   26  C11 UNL     1       4.844   2.432  21.382  1.00  0.00    -0.010 C 
HETATM   27  C12 UNL     1       6.281   2.547  20.982  1.00  0.00     0.024 C 
HETATM   28  C13 UNL     1       6.474   2.844  19.529  1.00  0.00     0.117 C 
HETATM   29  N6  UNL     1       5.621   2.122  18.656  1.00  0.00    -0.412 N 
HETATM   30  C21 UNL     1       4.255   2.013  19.002  1.00  0.00     0.117 C 
HETATM   31  C22 UNL     1       3.953   2.840  20.227  1.00  0.00     0.024 C 
BRANCH  29  32
HETATM   32  C14 UNL     1       5.942   2.162  17.270  1.00  0.00     0.119 C 
BRANCH  32  33
HETATM   33  C15 UNL     1       6.724   0.952  16.804  1.00  0.00     0.051 C 
BRANCH  33  34
HETATM   34  C16 UNL     1       8.137   1.374  16.365  1.00  0.00     0.123 C 
HETATM   35  C17 UNL     1       8.993   0.204  16.133  1.00  0.00     0.032 C 
HETATM   36  C18 UNL     1      10.110  -0.013  17.097  1.00  0.00     0.004 C 
HETATM   37  C19 UNL     1       9.853   0.781  18.386  1.00  0.00     0.026 C 
HETATM   38  C20 UNL     1       9.685   2.210  17.911  1.00  0.00     0.168 C 
HETATM   39  O4  UNL     1       8.544   2.333  17.212  1.00  0.00    -0.386 OA
ENDBRANCH  33  34
ENDBRANCH  32  33
ENDBRANCH  29  32
ENDBRANCH  25  26
ENDBRANCH  24  25
ENDBRANCH  22  24
ENDBRANCH   5   8
ENDBRANCH   1   4
TORSDOF 8
ENDMDL
MODEL 3
REMARK VINA RESULT: -8.087914294      3.229      8.112
REMARK  8 active torsions:
REMARK  status: ('A' for Active; 'I' for Inactive)
REMARK       I    between atoms: C2_2  and  N1_4 
REMARK    1  A    between atoms: C4_6  and  C5_7 
REMARK       I    between atoms: C5_7  and  N2_9 
REMARK    2  A    between atoms: N2_9  and  C6_11 
REMARK       I    between atoms: N4_14  and  C8_15 
REMARK       I    between atoms: C8_15  and  N5_17 
REMARK    3  A    between atoms: N5_17  and  C9_19 
REMARK    4  A    between atoms: C9_19  and  C10_20 
REMARK    5  A    between atoms: C10_20  and  C11_21 
REMARK    6  A    between atoms: N6_24  and  C14_25 
REMARK    7  A    between atoms: C14_25  and  C15_26 
REMARK    8  A    between atoms: C15_26  and  C16_27 
ROOT
HETATM    1  C6  UNL     1       6.337   7.968  18.245  1.00  0.00     0.247 C 
HETATM    2  C7  UNL     1       5.311   7.446  17.351  1.00  0.00     0.078 C 
HETATM    3  N3  UNL     1       4.488   7.042  16.620  1.00  0.00    -0.196 NA
ENDROOT
BRANCH   1   4
HETATM    4  N2  UNL     1       5.720   8.685  19.363  1.00  0.00    -0.347 N 
HETATM    5  C5  UNL     1       6.155   8.551  20.680  1.00  0.00     0.243 C 
HETATM    6  O2  UNL     1       7.119   7.783  20.917  1.00  0.00    -0.271 OA
ATOM      7  H2  UNL     1       4.937   9.310  19.169  1.00  0.00     0.163 HD
BRANCH   5   8
HETATM    8  C4  UNL     1       5.549   9.259  21.798  1.00  0.00     0.199 C 
HETATM    9  C3  UNL     1       5.788  10.760  21.728  1.00  0.00     0.167 C 
HETATM   10  N1  UNL     1       7.184  11.123  21.781  1.00  0.00    -0.287 N 
HETATM   11  C2  UNL     1       7.460  12.249  20.942  1.00  0.00     0.220 C 
HETATM   12  C25 UNL     1       8.344  10.638  22.466  1.00  0.00     0.327 C 
HETATM   13  C1  UNL     1       6.446  12.944  20.142  1.00  0.00     0.117 C 
HETATM   14  O1  UNL     1       8.640  12.667  20.888  1.00  0.00    -0.274 OA
HETATM   15  C24 UNL     1       8.139   9.599  23.496  1.00  0.00     0.124 C 
HETATM   16  F1  UNL     1       8.929  11.757  23.077  1.00  0.00    -0.182 F 
HETATM   17  F2  UNL     1       9.281  10.151  21.553  1.00  0.00    -0.182 F 
HETATM   18  C23 UNL     1       6.756   9.476  24.049  1.00  0.00     0.136 C 
HETATM   19  N4  UNL     1       5.886   8.796  23.111  1.00  0.00    -0.319 N 
HETATM   20  C8  UNL     1       5.337   7.592  23.582  1.00  0.00     0.319 C 
HETATM   21  O3  UNL     1       5.643   7.178  24.725  1.00  0.00    -0.247 OA
HETATM   22  N5  UNL     1       4.445   6.833  22.797  1.00  0.00    -0.343 N 
ATOM     23  H5  UNL     1       4.207   7.194  21.874  1.00  0.00     0.164 HD
BRANCH  22  24
HETATM   24  C9  UNL     1       3.842   5.584  23.198  1.00  0.00     0.125 C 
BRANCH  24  25
HETATM   25  C10 UNL     1       4.057   4.514  22.182  1.00  0.00     0.024 C 
BRANCH  25  26
HETATM   26  C11 UNL     1       4.961   4.957  21.052  1.00  0.00    -0.010 C 
HETATM   27  C12 UNL     1       4.384   4.739  19.690  1.00  0.00     0.024 C 
HETATM   28  C13 UNL     1       5.281   3.964  18.778  1.00  0.00     0.117 C 
HETATM   29  N6  UNL     1       6.651   4.325  18.844  1.00  0.00    -0.412 N 
HETATM   30  C21 UNL     1       7.226   4.521  20.120  1.00  0.00     0.117 C 
HETATM   31  C22 UNL     1       6.240   4.160  21.204  1.00  0.00     0.024 C 
BRANCH  29  32
HETATM   32  C14 UNL     1       7.496   3.818  17.818  1.00  0.00     0.119 C 
BRANCH  32  33
HETATM   33  C15 UNL     1       8.719   3.102  18.353  1.00  0.00     0.051 C 
BRANCH  33  34
HETATM   34  C16 UNL     1       8.492   1.580  18.331  1.00  0.00     0.123 C 
HETATM   35  C17 UNL     1       9.765   0.851  18.352  1.00  0.00     0.032 C 
HETATM   36  C18 UNL     1      10.139   0.114  17.111  1.00  0.00     0.004 C 
HETATM   37  C19 UNL     1       9.327   0.644  15.921  1.00  0.00     0.026 C 
HETATM   38  C20 UNL     1       7.885   0.476  16.356  1.00  0.00     0.168 C 
HETATM   39  O4  UNL     1       7.603   1.327  17.356  1.00  0.00    -0.386 OA
ENDBRANCH  33  34
ENDBRANCH  32  33
ENDBRANCH  29  32
ENDBRANCH  25  26
ENDBRANCH  24  25
ENDBRANCH  22  24
ENDBRANCH   5   8
ENDBRANCH   1   4
TORSDOF 8
ENDMDL
MODEL 4
REMARK VINA RESULT: -8.078465531      4.972      9.522
REMARK  8 active torsions:
REMARK  status: ('A' for Active; 'I' for Inactive)
REMARK       I    between atoms: C2_2  and  N1_4 
REMARK    1  A    between atoms: C4_6  and  C5_7 
REMARK       I    between atoms: C5_7  and  N2_9 
REMARK    2  A    between atoms: N2_9  and  C6_11 
REMARK       I    between atoms: N4_14  and  C8_15 
REMARK       I    between atoms: C8_15  and  N5_17 
REMARK    3  A    between atoms: N5_17  and  C9_19 
REMARK    4  A    between atoms: C9_19  and  C10_20 
REMARK    5  A    between atoms: C10_20  and  C11_21 
REMARK    6  A    between atoms: N6_24  and  C14_25 
REMARK    7  A    between atoms: C14_25  and  C15_26 
REMARK    8  A    between atoms: C15_26  and  C16_27 
ROOT
HETATM    1  C6  UNL     1       5.859   7.688  24.715  1.00  0.00     0.247 C 
HETATM    2  C7  UNL     1       5.113   8.907  24.428  1.00  0.00     0.078 C 
HETATM    3  N3  UNL     1       4.501   9.877  24.185  1.00  0.00    -0.196 NA
ENDROOT
BRANCH   1   4
HETATM    4  N2  UNL     1       7.068   7.628  23.889  1.00  0.00    -0.347 N 
HETATM    5  C5  UNL     1       7.032   7.590  22.497  1.00  0.00     0.243 C 
HETATM    6  O2  UNL     1       5.914   7.609  21.926  1.00  0.00    -0.271 OA
ATOM      7  H2  UNL     1       7.976   7.613  24.354  1.00  0.00     0.163 HD
BRANCH   5   8
HETATM    8  C4  UNL     1       8.227   7.531  21.667  1.00  0.00     0.199 C 
HETATM    9  C3  UNL     1       9.237   8.608  22.033  1.00  0.00     0.167 C 
HETATM   10  N1  UNL     1       8.736   9.950  21.854  1.00  0.00    -0.287 N 
HETATM   11  C2  UNL     1       9.229  10.828  22.872  1.00  0.00     0.220 C 
HETATM   12  C25 UNL     1       7.881  10.608  20.914  1.00  0.00     0.327 C 
HETATM   13  C1  UNL     1      10.133  10.410  23.948  1.00  0.00     0.117 C 
HETATM   14  O1  UNL     1       8.866  12.026  22.840  1.00  0.00    -0.274 OA
HETATM   15  C24 UNL     1       7.467   9.840  19.721  1.00  0.00     0.124 C 
HETATM   16  F1  UNL     1       8.580  11.747  20.485  1.00  0.00    -0.182 F 
HETATM   17  F2  UNL     1       6.724  11.067  21.545  1.00  0.00    -0.182 F 
HETATM   18  C23 UNL     1       8.309   8.657  19.367  1.00  0.00     0.136 C 
HETATM   19  N4  UNL     1       8.026   7.543  20.249  1.00  0.00    -0.319 N 
HETATM   20  C8  UNL     1       7.530   6.396  19.610  1.00  0.00     0.319 C 
HETATM   21  O3  UNL     1       7.340   6.411  18.371  1.00  0.00    -0.247 OA
HETATM   22  N5  UNL     1       7.240   5.219  20.330  1.00  0.00    -0.343 N 
ATOM     23  H5  UNL     1       7.410   5.230  21.335  1.00  0.00     0.164 HD
BRANCH  22  24
HETATM   24  C9  UNL     1       6.721   4.000  19.757  1.00  0.00     0.125 C 
BRANCH  24  25
HETATM   25  C10 UNL     1       7.704   2.883  19.845  1.00  0.00     0.024 C 
BRANCH  25  26
HETATM   26  C11 UNL     1       8.210   2.445  18.488  1.00  0.00    -0.010 C 
HETATM   27  C12 UNL     1       7.127   2.172  17.493  1.00  0.00     0.024 C 
HETATM   28  C13 UNL     1       7.222   0.818  16.863  1.00  0.00     0.117 C 
HETATM   29  N6  UNL     1       8.536   0.420  16.506  1.00  0.00    -0.412 N 
HETATM   30  C21 UNL     1       9.576   0.652  17.434  1.00  0.00     0.117 C 
HETATM   31  C22 UNL     1       9.017   1.186  18.730  1.00  0.00     0.024 C 
BRANCH  29  32
HETATM   32  C14 UNL     1       8.652  -0.723  15.668  1.00  0.00     0.119 C 
BRANCH  32  33
HETATM   33  C15 UNL     1       9.772  -1.655  16.081  1.00  0.00     0.051 C 
BRANCH  33  34
HETATM   34  C16 UNL     1       9.886  -2.820  15.082  1.00  0.00     0.123 C 
HETATM   35  C17 UNL     1       8.587  -3.125  14.470  1.00  0.00     0.032 C 
HETATM   36  C18 UNL     1       7.955  -4.422  14.845  1.00  0.00     0.004 C 
HETATM   37  C19 UNL     1       8.585  -4.958  16.138  1.00  0.00     0.026 C 
HETATM   38  C20 UNL     1      10.065  -5.035  15.823  1.00  0.00     0.168 C 
HETATM   39  O4  UNL     1      10.574  -3.799  15.693  1.00  0.00    -0.386 OA
ENDBRANCH  33  34
ENDBRANCH  32  33
ENDBRANCH  29  32
ENDBRANCH  25  26
ENDBRANCH  24  25
ENDBRANCH  22  24
ENDBRANCH   5   8
ENDBRANCH   1   4
TORSDOF 8
ENDMDL
MODEL 5
REMARK VINA RESULT: -7.990663873      3.373      7.871
REMARK  8 active torsions:
REMARK  status: ('A' for Active; 'I' for Inactive)
REMARK       I    between atoms: C2_2  and  N1_4 
REMARK    1  A    between atoms: C4_6  and  C5_7 
REMARK       I    between atoms: C5_7  and  N2_9 
REMARK    2  A    between atoms: N2_9  and  C6_11 
REMARK       I    between atoms: N4_14  and  C8_15 
REMARK       I    between atoms: C8_15  and  N5_17 
REMARK    3  A    between atoms: N5_17  and  C9_19 
REMARK    4  A    between atoms: C9_19  and  C10_20 
REMARK    5  A    between atoms: C10_20  and  C11_21 
REMARK    6  A    between atoms: N6_24  and  C14_25 
REMARK    7  A    between atoms: C14_25  and  C15_26 
REMARK    8  A    between atoms: C15_26  and  C16_27 
ROOT
HETATM    1  C6  UNL     1       4.711   9.849  25.108  1.00  0.00     0.247 C 
HETATM    2  C7  UNL     1       3.359   9.340  25.298  1.00  0.00     0.078 C 
HETATM    3  N3  UNL     1       2.274   8.927  25.469  1.00  0.00    -0.196 NA
ENDROOT
BRANCH   1   4
HETATM    4  N2  UNL     1       5.586   8.788  24.603  1.00  0.00    -0.347 N 
HETATM    5  C5  UNL     1       6.301   8.899  23.413  1.00  0.00     0.243 C 
HETATM    6  O2  UNL     1       6.190   9.956  22.744  1.00  0.00    -0.271 OA
ATOM      7  H2  UNL     1       5.676   7.929  25.147  1.00  0.00     0.163 HD
BRANCH   5   8
HETATM    8  C4  UNL     1       7.174   7.852  22.902  1.00  0.00     0.199 C 
HETATM    9  C3  UNL     1       8.356   7.588  23.823  1.00  0.00     0.167 C 
HETATM   10  N1  UNL     1       9.221   8.732  23.991  1.00  0.00    -0.287 N 
HETATM   11  C2  UNL     1       9.733   8.803  25.326  1.00  0.00     0.220 C 
HETATM   12  C25 UNL     1       9.687   9.796  23.155  1.00  0.00     0.327 C 
HETATM   13  C1  UNL     1       9.422   7.829  26.376  1.00  0.00     0.117 C 
HETATM   14  O1  UNL     1      10.495   9.756  25.612  1.00  0.00    -0.274 OA
HETATM   15  C24 UNL     1       9.368   9.716  21.714  1.00  0.00     0.124 C 
HETATM   16  F1  UNL     1      11.083   9.818  23.298  1.00  0.00    -0.182 F 
HETATM   17  F2  UNL     1       9.222  11.025  23.625  1.00  0.00    -0.182 F 
HETATM   18  C23 UNL     1       9.008   8.365  21.187  1.00  0.00     0.136 C 
HETATM   19  N4  UNL     1       7.654   8.012  21.562  1.00  0.00    -0.319 N 
HETATM   20  C8  UNL     1       6.780   7.802  20.485  1.00  0.00     0.319 C 
HETATM   21  O3  UNL     1       7.194   7.956  19.311  1.00  0.00    -0.247 OA
HETATM   22  N5  UNL     1       5.438   7.419  20.688  1.00  0.00    -0.343 N 
ATOM     23  H5  UNL     1       5.126   7.294  21.651  1.00  0.00     0.164 HD
BRANCH  22  24
HETATM   24  C9  UNL     1       4.470   7.191  19.641  1.00  0.00     0.125 C 
BRANCH  24  25
HETATM   25  C10 UNL     1       4.193   5.739  19.449  1.00  0.00     0.024 C 
BRANCH  25  26
HETATM   26  C11 UNL     1       4.419   5.288  18.023  1.00  0.00    -0.010 C 
HETATM   27  C12 UNL     1       3.564   4.134  17.606  1.00  0.00     0.024 C 
HETATM   28  C13 UNL     1       4.342   2.987  17.043  1.00  0.00     0.117 C 
HETATM   29  N6  UNL     1       5.394   3.355  16.166  1.00  0.00    -0.412 N 
HETATM   30  C21 UNL     1       6.228   4.432  16.543  1.00  0.00     0.117 C 
HETATM   31  C22 UNL     1       5.882   4.903  17.934  1.00  0.00     0.024 C 
BRANCH  29  32
HETATM   32  C14 UNL     1       5.983   2.311  15.400  1.00  0.00     0.119 C 
BRANCH  32  33
HETATM   33  C15 UNL     1       7.464   2.139  15.665  1.00  0.00     0.051 C 
BRANCH  33  34
HETATM   34  C16 UNL     1       7.704   0.894  16.537  1.00  0.00     0.123 C 
HETATM   35  C17 UNL     1       7.672   1.231  17.965  1.00  0.00     0.032 C 
HETATM   36  C18 UNL     1       8.964   1.144  18.705  1.00  0.00     0.004 C 
HETATM   37  C19 UNL     1      10.138   1.154  17.715  1.00  0.00     0.026 C 
HETATM   38  C20 UNL     1       9.849  -0.011  16.790  1.00  0.00     0.168 C 
HETATM   39  O4  UNL     1       8.773   0.258  16.032  1.00  0.00    -0.386 OA
ENDBRANCH  33  34
ENDBRANCH  32  33
ENDBRANCH  29  32
ENDBRANCH  25  26
ENDBRANCH  24  25
ENDBRANCH  22  24
ENDBRANCH   5   8
ENDBRANCH   1   4
TORSDOF 8
ENDMDL
