MODEL 1
REMARK VINA RESULT: -8.930215496      0.000      0.000
REMARK  8 active torsions:
REMARK  status: ('A' for Active; 'I' for Inactive)
REMARK    1  A    between atoms: C2_2  and  C3_3 
REMARK    2  A    between atoms: C3_3  and  C4_4 
REMARK    3  A    between atoms: C4_4  and  C5_5 
REMARK    4  A    between atoms: C7_7  and  O1_8 
REMARK       I    between atoms: N2_19  and  C14_20 
REMARK    5  A    between atoms: C14_20  and  C15_22 
REMARK    6  A    between atoms: C17_24  and  N3_25 
REMARK    7  A    between atoms: N4_39  and  C30_40 
REMARK    8  A    between atoms: C30_40  and  C31_41 
ROOT
HETATM    1  C5  UNL     1       9.497   8.745  24.126  1.00  0.00     0.014 A 
HETATM    2  C6  UNL     1       8.300   8.266  24.611  1.00  0.00     0.064 A 
HETATM    3  C7  UNL     1       7.151   8.332  23.831  1.00  0.00     0.098 A 
HETATM    4  C8  UNL     1       7.266   8.891  22.578  1.00  0.00     0.115 A 
HETATM    5  C9  UNL     1       8.519   9.355  22.149  1.00  0.00     0.172 A 
HETATM    6  N1  UNL     1       9.606   9.291  22.889  1.00  0.00    -0.339 N 
ATOM      7  H1  UNL     1      10.501   9.640  22.544  1.00  0.00     0.168 HD
HETATM    8  O2  UNL     1       8.677   9.924  20.861  1.00  0.00    -0.333 OA
HETATM    9  C10 UNL     1       8.096   9.437  19.664  1.00  0.00     0.190 C 
HETATM   10  C11 UNL     1       7.147   8.307  19.808  1.00  0.00     0.015 C 
HETATM   11  C12 UNL     1       6.702   8.007  18.353  1.00  0.00     0.035 C 
HETATM   12  C13 UNL     1       6.143   6.617  18.405  1.00  0.00     0.127 C 
HETATM   13  N2  UNL     1       6.955   5.984  19.400  1.00  0.00    -0.347 N 
HETATM   14  C14 UNL     1       7.013   4.593  19.626  1.00  0.00     0.254 C 
HETATM   15  O3  UNL     1       7.757   4.141  20.522  1.00  0.00    -0.267 OA
HETATM   16  C28 UNL     1       7.719   6.981  20.160  1.00  0.00     0.139 C 
HETATM   17  C29 UNL     1       5.849   8.588  20.524  1.00  0.00     0.136 C 
HETATM   18  N4  UNL     1       5.979   8.906  21.926  1.00  0.00    -0.372 N 
ENDROOT
BRANCH  18  19
HETATM   19  C30 UNL     1       4.920   9.199  22.819  1.00  0.00     0.154 C 
BRANCH  19  20
HETATM   20  C31 UNL     1       3.639   9.303  21.947  1.00  0.00     0.241 C 
HETATM   21  F2  UNL     1       3.396  10.562  21.474  1.00  0.00    -0.254 F 
ENDBRANCH  19  20
ENDBRANCH  18  19
BRANCH  14  22
HETATM   22  C15 UNL     1       6.240   3.625  18.860  1.00  0.00     0.041 A 
HETATM   23  C16 UNL     1       4.945   3.335  19.237  1.00  0.00     0.047 A 
HETATM   24  C17 UNL     1       4.134   2.432  18.574  1.00  0.00     0.031 A 
HETATM   25  C22 UNL     1       4.643   1.792  17.486  1.00  0.00     0.037 A 
HETATM   26  C23 UNL     1       5.928   2.043  17.069  1.00  0.00    -0.049 A 
HETATM   27  C24 UNL     1       6.728   2.961  17.756  1.00  0.00    -0.036 A 
HETATM   28  C27 UNL     1       6.692   1.476  15.929  1.00  0.00     0.039 C 
HETATM   29  C25 UNL     1       8.049   3.019  17.077  1.00  0.00     0.040 C 
HETATM   30  C26 UNL     1       7.695   2.598  15.661  1.00  0.00     0.009 C 
BRANCH  24  31
HETATM   31  N3  UNL     1       2.807   2.154  18.982  1.00  0.00    -0.378 N 
HETATM   32  C18 UNL     1       1.634   2.920  18.668  1.00  0.00     0.126 C 
HETATM   33  C19 UNL     1       0.586   2.547  19.699  1.00  0.00     0.058 C 
HETATM   34  C20 UNL     1       1.095   1.279  20.355  1.00  0.00     0.189 C 
HETATM   35  F1  UNL     1       0.249   0.229  20.070  1.00  0.00    -0.248 F 
HETATM   36  C21 UNL     1       2.457   1.006  19.810  1.00  0.00     0.160 C 
ENDBRANCH  24  31
ENDBRANCH  14  22
BRANCH   3  37
HETATM   37  O1  UNL     1       5.934   7.869  24.243  1.00  0.00    -0.358 OA
ATOM     38  H1  UNL     1       5.209   8.437  24.477  1.00  0.00     0.217 HD
ENDBRANCH   3  37
BRANCH   1  39
HETATM   39  C4  UNL     1      10.688   8.643  25.018  1.00  0.00     0.057 C 
BRANCH  39  40
HETATM   40  C3  UNL     1      10.464   7.648  26.131  1.00  0.00     0.006 C 
BRANCH  40  41
HETATM   41  C2  UNL     1      11.814   7.360  26.753  1.00  0.00    -0.004 C 
HETATM   42  C1  UNL     1      12.936   7.485  25.754  1.00  0.00     0.005 C 
ENDBRANCH  40  41
ENDBRANCH  39  40
ENDBRANCH   1  39
TORSDOF 8
ENDMDL
MODEL 2
REMARK VINA RESULT: -8.880822180      2.036      3.378
REMARK  8 active torsions:
REMARK  status: ('A' for Active; 'I' for Inactive)
REMARK    1  A    between atoms: C2_2  and  C3_3 
REMARK    2  A    between atoms: C3_3  and  C4_4 
REMARK    3  A    between atoms: C4_4  and  C5_5 
REMARK    4  A    between atoms: C7_7  and  O1_8 
REMARK       I    between atoms: N2_19  and  C14_20 
REMARK    5  A    between atoms: C14_20  and  C15_22 
REMARK    6  A    between atoms: C17_24  and  N3_25 
REMARK    7  A    between atoms: N4_39  and  C30_40 
REMARK    8  A    between atoms: C30_40  and  C31_41 
ROOT
HETATM    1  C5  UNL     1       9.566   8.672  23.941  1.00  0.00     0.014 A 
HETATM    2  C6  UNL     1       8.394   8.202  24.490  1.00  0.00     0.064 A 
HETATM    3  C7  UNL     1       7.199   8.308  23.789  1.00  0.00     0.098 A 
HETATM    4  C8  UNL     1       7.243   8.897  22.545  1.00  0.00     0.115 A 
HETATM    5  C9  UNL     1       8.474   9.351  22.047  1.00  0.00     0.172 A 
HETATM    6  N1  UNL     1       9.606   9.249  22.714  1.00  0.00    -0.339 N 
ATOM      7  H1  UNL     1      10.483   9.592  22.320  1.00  0.00     0.168 HD
HETATM    8  O2  UNL     1       8.560   9.951  20.767  1.00  0.00    -0.333 OA
HETATM    9  C10 UNL     1       7.894   9.505  19.598  1.00  0.00     0.190 C 
HETATM   10  C11 UNL     1       6.936   8.388  19.775  1.00  0.00     0.015 C 
HETATM   11  C12 UNL     1       6.392   8.134  18.345  1.00  0.00     0.035 C 
HETATM   12  C13 UNL     1       5.813   6.753  18.397  1.00  0.00     0.127 C 
HETATM   13  N2  UNL     1       6.674   6.081  19.322  1.00  0.00    -0.347 N 
HETATM   14  C14 UNL     1       6.721   4.684  19.509  1.00  0.00     0.254 C 
HETATM   15  O3  UNL     1       7.512   4.196  20.343  1.00  0.00    -0.267 OA
HETATM   16  C28 UNL     1       7.504   7.045  20.056  1.00  0.00     0.139 C 
HETATM   17  C29 UNL     1       5.692   8.672  20.580  1.00  0.00     0.136 C 
HETATM   18  N4  UNL     1       5.918   8.951  21.979  1.00  0.00    -0.372 N 
ENDROOT
BRANCH  18  19
HETATM   19  C30 UNL     1       4.924   9.239  22.945  1.00  0.00     0.154 C 
BRANCH  19  20
HETATM   20  C31 UNL     1       3.703   9.786  22.157  1.00  0.00     0.241 C 
HETATM   21  F2  UNL     1       2.515   9.656  22.821  1.00  0.00    -0.254 F 
ENDBRANCH  19  20
ENDBRANCH  18  19
BRANCH  14  22
HETATM   22  C15 UNL     1       5.882   3.749  18.770  1.00  0.00     0.041 A 
HETATM   23  C16 UNL     1       6.079   3.580  17.415  1.00  0.00     0.047 A 
HETATM   24  C17 UNL     1       5.336   2.717  16.631  1.00  0.00     0.031 A 
HETATM   25  C22 UNL     1       4.351   1.992  17.231  1.00  0.00     0.037 A 
HETATM   26  C23 UNL     1       4.113   2.123  18.578  1.00  0.00    -0.049 A 
HETATM   27  C24 UNL     1       4.880   3.002  19.350  1.00  0.00    -0.036 A 
HETATM   28  C27 UNL     1       3.112   1.450  19.442  1.00  0.00     0.039 C 
HETATM   29  C25 UNL     1       4.395   2.927  20.752  1.00  0.00     0.040 C 
HETATM   30  C26 UNL     1       3.799   1.530  20.805  1.00  0.00     0.009 C 
BRANCH  24  31
HETATM   31  N3  UNL     1       5.559   2.563  15.241  1.00  0.00    -0.378 N 
HETATM   32  C18 UNL     1       5.724   3.612  14.277  1.00  0.00     0.126 C 
HETATM   33  C19 UNL     1       5.432   3.001  12.920  1.00  0.00     0.058 C 
HETATM   34  C20 UNL     1       5.474   1.501  13.132  1.00  0.00     0.189 C 
HETATM   35  F1  UNL     1       6.525   0.955  12.428  1.00  0.00    -0.248 F 
HETATM   36  C21 UNL     1       5.652   1.259  14.594  1.00  0.00     0.160 C 
ENDBRANCH  24  31
ENDBRANCH  14  22
BRANCH   3  37
HETATM   37  O1  UNL     1       6.002   7.855  24.267  1.00  0.00    -0.358 OA
ATOM     38  H1  UNL     1       5.542   7.108  23.902  1.00  0.00     0.217 HD
ENDBRANCH   3  37
BRANCH   1  39
HETATM   39  C4  UNL     1      10.810   8.527  24.751  1.00  0.00     0.057 C 
BRANCH  39  40
HETATM   40  C3  UNL     1      10.575   7.683  25.981  1.00  0.00     0.006 C 
BRANCH  40  41
HETATM   41  C2  UNL     1      11.923   7.454  26.631  1.00  0.00    -0.004 C 
HETATM   42  C1  UNL     1      13.056   7.567  25.641  1.00  0.00     0.005 C 
ENDBRANCH  40  41
ENDBRANCH  39  40
ENDBRANCH   1  39
TORSDOF 8
ENDMDL
MODEL 3
REMARK VINA RESULT: -8.797469609      1.070      1.232
REMARK  8 active torsions:
REMARK  status: ('A' for Active; 'I' for Inactive)
REMARK    1  A    between atoms: C2_2  and  C3_3 
REMARK    2  A    between atoms: C3_3  and  C4_4 
REMARK    3  A    between atoms: C4_4  and  C5_5 
REMARK    4  A    between atoms: C7_7  and  O1_8 
REMARK       I    between atoms: N2_19  and  C14_20 
REMARK    5  A    between atoms: C14_20  and  C15_22 
REMARK    6  A    between atoms: C17_24  and  N3_25 
REMARK    7  A    between atoms: N4_39  and  C30_40 
REMARK    8  A    between atoms: C30_40  and  C31_41 
ROOT
HETATM    1  C5  UNL     1       8.850   8.965  24.436  1.00  0.00     0.014 A 
HETATM    2  C6  UNL     1       7.651   8.368  24.755  1.00  0.00     0.064 A 
HETATM    3  C7  UNL     1       6.603   8.370  23.842  1.00  0.00     0.098 A 
HETATM    4  C8  UNL     1       6.817   8.989  22.631  1.00  0.00     0.115 A 
HETATM    5  C9  UNL     1       8.066   9.575  22.375  1.00  0.00     0.172 A 
HETATM    6  N1  UNL     1       9.058   9.571  23.241  1.00  0.00    -0.339 N 
ATOM      7  H1  UNL     1       9.954  10.008  23.019  1.00  0.00     0.168 HD
HETATM    8  O2  UNL     1       8.327  10.210  21.135  1.00  0.00    -0.333 OA
HETATM    9  C10 UNL     1       7.939   9.726  19.861  1.00  0.00     0.190 C 
HETATM   10  C11 UNL     1       7.083   8.515  19.850  1.00  0.00     0.015 C 
HETATM   11  C12 UNL     1       6.844   8.241  18.343  1.00  0.00     0.035 C 
HETATM   12  C13 UNL     1       6.409   6.809  18.281  1.00  0.00     0.127 C 
HETATM   13  N2  UNL     1       7.148   6.204  19.348  1.00  0.00    -0.347 N 
HETATM   14  C14 UNL     1       7.302   4.815  19.535  1.00  0.00     0.254 C 
HETATM   15  O3  UNL     1       7.970   4.389  20.501  1.00  0.00    -0.267 OA
HETATM   16  C28 UNL     1       7.724   7.229  20.228  1.00  0.00     0.139 C 
HETATM   17  C29 UNL     1       5.689   8.656  20.409  1.00  0.00     0.136 C 
HETATM   18  N4  UNL     1       5.621   8.924  21.827  1.00  0.00    -0.372 N 
ENDROOT
BRANCH  18  19
HETATM   19  C30 UNL     1       4.441   9.089  22.591  1.00  0.00     0.154 C 
BRANCH  19  20
HETATM   20  C31 UNL     1       3.258   8.918  21.599  1.00  0.00     0.241 C 
HETATM   21  F2  UNL     1       2.695   7.673  21.623  1.00  0.00    -0.254 F 
ENDBRANCH  19  20
ENDBRANCH  18  19
BRANCH  14  22
HETATM   22  C15 UNL     1       6.715   3.818  18.649  1.00  0.00     0.041 A 
HETATM   23  C16 UNL     1       5.343   3.742  18.522  1.00  0.00     0.047 A 
HETATM   24  C17 UNL     1       4.695   2.832  17.708  1.00  0.00     0.031 A 
HETATM   25  C22 UNL     1       5.454   1.960  16.989  1.00  0.00     0.037 A 
HETATM   26  C23 UNL     1       6.825   1.993  17.078  1.00  0.00    -0.049 A 
HETATM   27  C24 UNL     1       7.458   2.924  17.909  1.00  0.00    -0.036 A 
HETATM   28  C27 UNL     1       7.849   1.157  16.402  1.00  0.00     0.039 C 
HETATM   29  C25 UNL     1       8.925   2.719  17.797  1.00  0.00     0.040 C 
HETATM   30  C26 UNL     1       9.053   2.099  16.416  1.00  0.00     0.009 C 
BRANCH  24  31
HETATM   31  N3  UNL     1       3.285   2.775  17.596  1.00  0.00    -0.378 N 
HETATM   32  C18 UNL     1       2.506   3.029  16.418  1.00  0.00     0.126 C 
HETATM   33  C19 UNL     1       1.099   3.341  16.889  1.00  0.00     0.058 C 
HETATM   34  C20 UNL     1       1.041   2.879  18.332  1.00  0.00     0.189 C 
HETATM   35  F1  UNL     1       0.153   1.833  18.457  1.00  0.00    -0.248 F 
HETATM   36  C21 UNL     1       2.414   2.438  18.717  1.00  0.00     0.160 C 
ENDBRANCH  24  31
ENDBRANCH  14  22
BRANCH   3  37
HETATM   37  O1  UNL     1       5.391   7.789  24.086  1.00  0.00    -0.358 OA
ATOM     38  H1  UNL     1       5.225   6.859  23.979  1.00  0.00     0.217 HD
ENDBRANCH   3  37
BRANCH   1  39
HETATM   39  C4  UNL     1       9.930   8.926  25.465  1.00  0.00     0.057 C 
BRANCH  39  40
HETATM   40  C3  UNL     1      11.236   8.445  24.879  1.00  0.00     0.006 C 
BRANCH  40  41
HETATM   41  C2  UNL     1      11.939   7.641  25.952  1.00  0.00    -0.004 C 
HETATM   42  C1  UNL     1      13.418   7.513  25.686  1.00  0.00     0.005 C 
ENDBRANCH  40  41
ENDBRANCH  39  40
ENDBRANCH   1  39
TORSDOF 8
ENDMDL
MODEL 4
REMARK VINA RESULT: -8.750777446      3.023      3.305
REMARK  8 active torsions:
REMARK  status: ('A' for Active; 'I' for Inactive)
REMARK    1  A    between atoms: C2_2  and  C3_3 
REMARK    2  A    between atoms: C3_3  and  C4_4 
REMARK    3  A    between atoms: C4_4  and  C5_5 
REMARK    4  A    between atoms: C7_7  and  O1_8 
REMARK       I    between atoms: N2_19  and  C14_20 
REMARK    5  A    between atoms: C14_20  and  C15_22 
REMARK    6  A    between atoms: C17_24  and  N3_25 
REMARK    7  A    between atoms: N4_39  and  C30_40 
REMARK    8  A    between atoms: C30_40  and  C31_41 
ROOT
HETATM    1  C5  UNL     1       8.993   8.865  24.217  1.00  0.00     0.014 A 
HETATM    2  C6  UNL     1       8.001   7.942  24.462  1.00  0.00     0.064 A 
HETATM    3  C7  UNL     1       6.862   7.910  23.667  1.00  0.00     0.098 A 
HETATM    4  C8  UNL     1       6.774   8.829  22.646  1.00  0.00     0.115 A 
HETATM    5  C9  UNL     1       7.825   9.739  22.454  1.00  0.00     0.172 A 
HETATM    6  N1  UNL     1       8.904   9.767  23.208  1.00  0.00    -0.339 N 
ATOM      7  H1  UNL     1       9.649  10.445  23.039  1.00  0.00     0.168 HD
HETATM    8  O2  UNL     1       7.775  10.691  21.406  1.00  0.00    -0.333 OA
HETATM    9  C10 UNL     1       7.328  10.443  20.084  1.00  0.00     0.190 C 
HETATM   10  C11 UNL     1       6.753   9.101  19.826  1.00  0.00     0.015 C 
HETATM   11  C12 UNL     1       6.375   9.141  18.323  1.00  0.00     0.035 C 
HETATM   12  C13 UNL     1       6.247   7.702  17.924  1.00  0.00     0.127 C 
HETATM   13  N2  UNL     1       7.234   7.057  18.735  1.00  0.00    -0.347 N 
HETATM   14  C14 UNL     1       7.701   5.741  18.541  1.00  0.00     0.254 C 
HETATM   15  O3  UNL     1       8.569   5.271  19.307  1.00  0.00    -0.267 OA
HETATM   16  C28 UNL     1       7.696   7.953  19.804  1.00  0.00     0.139 C 
HETATM   17  C29 UNL     1       5.450   8.770  20.510  1.00  0.00     0.136 C 
HETATM   18  N4  UNL     1       5.521   8.673  21.949  1.00  0.00    -0.372 N 
ENDROOT
BRANCH  18  19
HETATM   19  C30 UNL     1       4.448   8.367  22.820  1.00  0.00     0.154 C 
BRANCH  19  20
HETATM   20  C31 UNL     1       3.850   9.731  23.262  1.00  0.00     0.241 C 
HETATM   21  F2  UNL     1       4.263  10.137  24.500  1.00  0.00    -0.254 F 
ENDBRANCH  19  20
ENDBRANCH  18  19
BRANCH  14  22
HETATM   22  C15 UNL     1       7.222   4.871  17.475  1.00  0.00     0.041 A 
HETATM   23  C16 UNL     1       6.224   5.312  16.631  1.00  0.00     0.047 A 
HETATM   24  C17 UNL     1       5.706   4.561  15.593  1.00  0.00     0.031 A 
HETATM   25  C22 UNL     1       6.210   3.312  15.391  1.00  0.00     0.037 A 
HETATM   26  C23 UNL     1       7.205   2.823  16.203  1.00  0.00    -0.049 A 
HETATM   27  C24 UNL     1       7.713   3.603  17.247  1.00  0.00    -0.036 A 
HETATM   28  C27 UNL     1       7.902   1.513  16.180  1.00  0.00     0.039 C 
HETATM   29  C25 UNL     1       8.766   2.817  17.940  1.00  0.00     0.040 C 
HETATM   30  C26 UNL     1       9.231   1.876  16.841  1.00  0.00     0.009 C 
BRANCH  24  31
HETATM   31  N3  UNL     1       4.681   5.039  14.741  1.00  0.00    -0.378 N 
HETATM   32  C18 UNL     1       4.100   4.347  13.625  1.00  0.00     0.126 C 
HETATM   33  C19 UNL     1       3.449   5.404  12.754  1.00  0.00     0.058 C 
HETATM   34  C20 UNL     1       3.364   6.647  13.618  1.00  0.00     0.189 C 
HETATM   35  F1  UNL     1       2.044   6.963  13.859  1.00  0.00    -0.248 F 
HETATM   36  C21 UNL     1       4.065   6.351  14.901  1.00  0.00     0.160 C 
ENDBRANCH  24  31
ENDBRANCH  14  22
BRANCH   3  37
HETATM   37  O1  UNL     1       5.844   7.016  23.846  1.00  0.00    -0.358 OA
ATOM     38  H1  UNL     1       5.773   6.447  24.604  1.00  0.00     0.217 HD
ENDBRANCH   3  37
BRANCH   1  39
HETATM   39  C4  UNL     1      10.187   8.843  25.112  1.00  0.00     0.057 C 
BRANCH  39  40
HETATM   40  C3  UNL     1      10.173   7.641  26.025  1.00  0.00     0.006 C 
BRANCH  40  41
HETATM   41  C2  UNL     1      11.537   7.559  26.678  1.00  0.00    -0.004 C 
HETATM   42  C1  UNL     1      12.652   7.585  25.663  1.00  0.00     0.005 C 
ENDBRANCH  40  41
ENDBRANCH  39  40
ENDBRANCH   1  39
TORSDOF 8
ENDMDL
MODEL 5
REMARK VINA RESULT: -8.494111761      2.858      3.993
REMARK  8 active torsions:
REMARK  status: ('A' for Active; 'I' for Inactive)
REMARK    1  A    between atoms: C2_2  and  C3_3 
REMARK    2  A    between atoms: C3_3  and  C4_4 
REMARK    3  A    between atoms: C4_4  and  C5_5 
REMARK    4  A    between atoms: C7_7  and  O1_8 
REMARK       I    between atoms: N2_19  and  C14_20 
REMARK    5  A    between atoms: C14_20  and  C15_22 
REMARK    6  A    between atoms: C17_24  and  N3_25 
REMARK    7  A    between atoms: N4_39  and  C30_40 
REMARK    8  A    between atoms: C30_40  and  C31_41 
ROOT
HETATM    1  C5  UNL     1       9.397   8.849  23.850  1.00  0.00     0.014 A 
HETATM    2  C6  UNL     1       8.436   7.977  24.309  1.00  0.00     0.064 A 
HETATM    3  C7  UNL     1       7.148   8.018  23.790  1.00  0.00     0.098 A 
HETATM    4  C8  UNL     1       6.885   8.955  22.817  1.00  0.00     0.115 A 
HETATM    5  C9  UNL     1       7.915   9.810  22.395  1.00  0.00     0.172 A 
HETATM    6  N1  UNL     1       9.136   9.769  22.888  1.00  0.00    -0.339 N 
ATOM      7  H1  UNL     1       9.860  10.408  22.558  1.00  0.00     0.168 HD
HETATM    8  O2  UNL     1       7.685  10.779  21.387  1.00  0.00    -0.333 OA
HETATM    9  C10 UNL     1       6.940  10.575  20.199  1.00  0.00     0.190 C 
HETATM   10  C11 UNL     1       6.248   9.270  20.074  1.00  0.00     0.015 C 
HETATM   11  C12 UNL     1       5.545   9.352  18.694  1.00  0.00     0.035 C 
HETATM   12  C13 UNL     1       5.250   7.929  18.331  1.00  0.00     0.127 C 
HETATM   13  N2  UNL     1       6.357   7.219  18.899  1.00  0.00    -0.347 N 
HETATM   14  C14 UNL     1       6.694   5.883  18.602  1.00  0.00     0.254 C 
HETATM   15  O3  UNL     1       7.684   5.356  19.152  1.00  0.00    -0.267 OA
HETATM   16  C28 UNL     1       7.096   8.073  19.838  1.00  0.00     0.139 C 
HETATM   17  C29 UNL     1       5.114   8.999  21.032  1.00  0.00     0.136 C 
HETATM   18  N4  UNL     1       5.500   8.877  22.418  1.00  0.00    -0.372 N 
ENDROOT
BRANCH  18  19
HETATM   19  C30 UNL     1       4.634   8.617  23.508  1.00  0.00     0.154 C 
BRANCH  19  20
HETATM   20  C31 UNL     1       3.772   9.897  23.686  1.00  0.00     0.241 C 
HETATM   21  F2  UNL     1       3.573  10.249  24.992  1.00  0.00    -0.254 F 
ENDBRANCH  19  20
ENDBRANCH  18  19
BRANCH  14  22
HETATM   22  C15 UNL     1       5.941   5.055  17.668  1.00  0.00     0.041 A 
HETATM   23  C16 UNL     1       6.065   5.272  16.312  1.00  0.00     0.047 A 
HETATM   24  C17 UNL     1       5.393   4.540  15.351  1.00  0.00     0.031 A 
HETATM   25  C22 UNL     1       4.560   3.547  15.767  1.00  0.00     0.037 A 
HETATM   26  C23 UNL     1       4.399   3.289  17.108  1.00  0.00    -0.049 A 
HETATM   27  C24 UNL     1       5.091   4.044  18.060  1.00  0.00    -0.036 A 
HETATM   28  C27 UNL     1       3.560   2.275  17.793  1.00  0.00     0.039 C 
HETATM   29  C25 UNL     1       4.719   3.539  19.407  1.00  0.00     0.040 C 
HETATM   30  C26 UNL     1       4.322   2.103  19.107  1.00  0.00     0.009 C 
BRANCH  24  31
HETATM   31  N3  UNL     1       5.540   4.783  13.963  1.00  0.00    -0.378 N 
HETATM   32  C18 UNL     1       6.014   5.990  13.349  1.00  0.00     0.126 C 
HETATM   33  C19 UNL     1       5.527   5.964  11.913  1.00  0.00     0.058 C 
HETATM   34  C20 UNL     1       5.098   4.533  11.656  1.00  0.00     0.189 C 
HETATM   35  F1  UNL     1       5.915   3.960  10.705  1.00  0.00    -0.248 F 
HETATM   36  C21 UNL     1       5.209   3.792  12.946  1.00  0.00     0.160 C 
ENDBRANCH  24  31
ENDBRANCH  14  22
BRANCH   3  37
HETATM   37  O1  UNL     1       6.147   7.178  24.191  1.00  0.00    -0.358 OA
ATOM     38  H1  UNL     1       5.276   7.476  24.428  1.00  0.00     0.217 HD
ENDBRANCH   3  37
BRANCH   1  39
HETATM   39  C4  UNL     1      10.758   8.749  24.453  1.00  0.00     0.057 C 
BRANCH  39  40
HETATM   40  C3  UNL     1      10.691   8.377  25.914  1.00  0.00     0.006 C 
BRANCH  40  41
HETATM   41  C2  UNL     1      11.681   7.253  26.137  1.00  0.00    -0.004 C 
HETATM   42  C1  UNL     1      13.079   7.641  25.723  1.00  0.00     0.005 C 
ENDBRANCH  40  41
ENDBRANCH  39  40
ENDBRANCH   1  39
TORSDOF 8
ENDMDL
