MODEL 1
REMARK VINA RESULT: -10.381349389      0.000      0.000
REMARK  9 active torsions:
REMARK  status: ('A' for Active; 'I' for Inactive)
REMARK    1  A    between atoms: C1_2  and  C2_3 
REMARK       I    between atoms: C1_2  and  N1_10 
REMARK    2  A    between atoms: C2_3  and  C3_4 
REMARK    3  A    between atoms: N1_10  and  C9_12 
REMARK    4  A    between atoms: C9_12  and  C10_13 
REMARK    5  A    between atoms: N2_17  and  C13_18 
REMARK    6  A    between atoms: C13_18  and  O2_19 
REMARK    7  A    between atoms: C13_18  and  C14_21 
REMARK    8  A    between atoms: N3_30  and  C23_31 
REMARK    9  A    between atoms: C23_31  and  C24_32 
ROOT
HETATM    1  C13 UNL     1       3.542   6.603  21.112  1.00  0.00     0.149 C 
ENDROOT
BRANCH   1   2
HETATM    2  N2  UNL     1       3.384   6.447  19.754  1.00  0.00    -0.360 N 
HETATM    3  C12 UNL     1       3.107   5.229  19.073  1.00  0.00     0.128 C 
HETATM    4  C11 UNL     1       4.317   4.946  18.202  1.00  0.00     0.068 C 
HETATM    5  C10 UNL     1       4.602   6.049  17.231  1.00  0.00     0.152 C 
HETATM    6  F1  UNL     1       3.746   5.862  16.141  1.00  0.00    -0.238 F 
HETATM    7  C30 UNL     1       4.483   7.424  17.775  1.00  0.00     0.229 C 
HETATM    8  C29 UNL     1       3.497   7.611  18.867  1.00  0.00     0.165 C 
HETATM    9  F2  UNL     1       5.697   7.961  18.194  1.00  0.00    -0.244 F 
BRANCH   5  10
HETATM   10  C9  UNL     1       6.006   5.839  16.702  1.00  0.00     0.169 C 
BRANCH  10  11
HETATM   11  N1  UNL     1       6.544   4.563  17.082  1.00  0.00    -0.358 N 
HETATM   12  C1  UNL     1       7.633   4.504  17.986  1.00  0.00     0.217 C 
HETATM   13  O1  UNL     1       8.099   5.583  18.433  1.00  0.00    -0.274 OA
ATOM     14  H1  UNL     1       6.145   3.704  16.702  1.00  0.00     0.162 HD
BRANCH  12  15
HETATM   15  C2  UNL     1       8.200   3.219  18.390  1.00  0.00     0.107 C 
BRANCH  15  16
HETATM   16  C3  UNL     1       8.854   2.420  17.314  1.00  0.00    -0.006 C 
HETATM   17  C4  UNL     1       7.965   1.942  16.221  1.00  0.00     0.005 C 
HETATM   18  C5  UNL     1       8.829   1.243  15.190  1.00  0.00     0.000 C 
HETATM   19  C6  UNL     1       9.659   0.135  15.751  1.00  0.00     0.000 C 
HETATM   20  C7  UNL     1      10.351   0.487  17.043  1.00  0.00     0.000 C 
HETATM   21  C8  UNL     1       9.425   1.170  18.000  1.00  0.00     0.005 C 
ENDBRANCH  15  16
ENDBRANCH  12  15
ENDBRANCH  10  11
ENDBRANCH   5  10
ENDBRANCH   1   2
BRANCH   1  22
HETATM   22  O2  UNL     1       3.103   5.611  21.847  1.00  0.00    -0.347 OA
ATOM     23  H2  UNL     1       2.374   5.819  22.419  1.00  0.00     0.219 HD
ENDBRANCH   1  22
BRANCH   1  24
HETATM   24  C14 UNL     1       4.117   7.680  21.909  1.00  0.00     0.126 C 
HETATM   25  C15 UNL     1       2.969   8.557  22.448  1.00  0.00     0.047 C 
HETATM   26  C16 UNL     1       3.451   9.661  23.316  1.00  0.00     0.004 C 
HETATM   27  C17 UNL     1       4.674   9.397  24.104  1.00  0.00     0.008 C 
HETATM   28  C18 UNL     1       5.591   8.360  23.554  1.00  0.00     0.024 C 
HETATM   29  C19 UNL     1       4.753   7.139  23.207  1.00  0.00     0.054 C 
HETATM   30  C20 UNL     1       6.093   8.724  22.173  1.00  0.00     0.069 C 
HETATM   31  C21 UNL     1       7.181   7.767  21.750  1.00  0.00     0.069 C 
HETATM   32  C28 UNL     1       6.615  10.121  22.092  1.00  0.00     0.069 C 
HETATM   33  O4  UNL     1       5.009   8.519  21.349  1.00  0.00    -0.360 OA
HETATM   34  C22 UNL     1       8.573   8.374  21.962  1.00  0.00     0.276 C 
HETATM   35  N3  UNL     1       8.515   9.116  23.178  1.00  0.00     0.094 N 
HETATM   36  C27 UNL     1       7.806  10.332  22.964  1.00  0.00     0.276 C 
BRANCH  35  37
HETATM   37  C23 UNL     1       9.737   9.218  23.886  1.00  0.00     0.339 C 
BRANCH  37  38
HETATM   38  C24 UNL     1       9.788   8.421  25.128  1.00  0.00     0.106 A 
HETATM   39  C25 UNL     1      11.001   7.958  25.646  1.00  0.00     0.055 A 
HETATM   40  C26 UNL     1      10.722   7.264  26.783  1.00  0.00     0.117 A 
HETATM   41  N4  UNL     1       9.382   7.317  26.933  1.00  0.00    -0.272 N 
HETATM   42  O3  UNL     1       8.874   8.004  25.939  1.00  0.00    -0.241 OA
ATOM     43  H4  UNL     1       8.852   6.892  27.694  1.00  0.00     0.193 HD
ENDBRANCH  37  38
ENDBRANCH  35  37
ENDBRANCH   1  24
TORSDOF 9
ENDMDL
MODEL 2
REMARK VINA RESULT: -10.326842013      1.830      2.347
REMARK  9 active torsions:
REMARK  status: ('A' for Active; 'I' for Inactive)
REMARK    1  A    between atoms: C1_2  and  C2_3 
REMARK       I    between atoms: C1_2  and  N1_10 
REMARK    2  A    between atoms: C2_3  and  C3_4 
REMARK    3  A    between atoms: N1_10  and  C9_12 
REMARK    4  A    between atoms: C9_12  and  C10_13 
REMARK    5  A    between atoms: N2_17  and  C13_18 
REMARK    6  A    between atoms: C13_18  and  O2_19 
REMARK    7  A    between atoms: C13_18  and  C14_21 
REMARK    8  A    between atoms: N3_30  and  C23_31 
REMARK    9  A    between atoms: C23_31  and  C24_32 
ROOT
HETATM    1  C13 UNL     1       3.578   6.483  21.098  1.00  0.00     0.149 C 
ENDROOT
BRANCH   1   2
HETATM    2  N2  UNL     1       4.091   5.226  20.869  1.00  0.00    -0.360 N 
HETATM    3  C12 UNL     1       5.420   4.921  20.461  1.00  0.00     0.128 C 
HETATM    4  C11 UNL     1       5.308   4.303  19.079  1.00  0.00     0.068 C 
HETATM    5  C10 UNL     1       4.448   3.079  19.060  1.00  0.00     0.152 C 
HETATM    6  F1  UNL     1       5.245   2.015  19.496  1.00  0.00    -0.238 F 
HETATM    7  C30 UNL     1       3.195   3.167  19.851  1.00  0.00     0.229 C 
HETATM    8  C29 UNL     1       3.237   4.046  21.045  1.00  0.00     0.165 C 
HETATM    9  F2  UNL     1       2.085   3.525  19.092  1.00  0.00    -0.244 F 
BRANCH   5  10
HETATM   10  C9  UNL     1       4.107   2.783  17.614  1.00  0.00     0.169 C 
BRANCH  10  11
HETATM   11  N1  UNL     1       5.158   2.068  16.945  1.00  0.00    -0.358 N 
HETATM   12  C1  UNL     1       5.912   2.716  15.935  1.00  0.00     0.217 C 
HETATM   13  O1  UNL     1       5.634   3.909  15.653  1.00  0.00    -0.274 OA
ATOM     14  H1  UNL     1       5.361   1.100  17.195  1.00  0.00     0.162 HD
BRANCH  12  15
HETATM   15  C2  UNL     1       6.987   2.012  15.238  1.00  0.00     0.107 C 
BRANCH  15  16
HETATM   16  C3  UNL     1       7.961   1.279  16.097  1.00  0.00    -0.006 C 
HETATM   17  C4  UNL     1       8.600   2.068  17.183  1.00  0.00     0.005 C 
HETATM   18  C5  UNL     1       9.470   1.127  17.993  1.00  0.00     0.000 C 
HETATM   19  C6  UNL     1      10.481   0.391  17.177  1.00  0.00     0.000 C 
HETATM   20  C7  UNL     1       9.931  -0.179  15.895  1.00  0.00     0.000 C 
HETATM   21  C8  UNL     1       9.088   0.817  15.162  1.00  0.00     0.005 C 
ENDBRANCH  15  16
ENDBRANCH  12  15
ENDBRANCH  10  11
ENDBRANCH   5  10
ENDBRANCH   1   2
BRANCH   1  22
HETATM   22  O2  UNL     1       2.410   6.722  20.554  1.00  0.00    -0.347 OA
ATOM     23  H2  UNL     1       2.294   6.385  19.674  1.00  0.00     0.219 HD
ENDBRANCH   1  22
BRANCH   1  24
HETATM   24  C14 UNL     1       4.094   7.625  21.843  1.00  0.00     0.126 C 
HETATM   25  C15 UNL     1       2.906   8.516  22.258  1.00  0.00     0.047 C 
HETATM   26  C16 UNL     1       3.325   9.688  23.068  1.00  0.00     0.004 C 
HETATM   27  C17 UNL     1       4.508   9.505  23.935  1.00  0.00     0.008 C 
HETATM   28  C18 UNL     1       5.469   8.448  23.509  1.00  0.00     0.024 C 
HETATM   29  C19 UNL     1       4.669   7.190  23.207  1.00  0.00     0.054 C 
HETATM   30  C20 UNL     1       6.037   8.722  22.132  1.00  0.00     0.069 C 
HETATM   31  C21 UNL     1       7.161   7.759  21.836  1.00  0.00     0.069 C 
HETATM   32  C28 UNL     1       6.542  10.120  21.977  1.00  0.00     0.069 C 
HETATM   33  O4  UNL     1       5.001   8.439  21.271  1.00  0.00    -0.360 OA
HETATM   34  C22 UNL     1       8.530   8.405  22.074  1.00  0.00     0.276 C 
HETATM   35  N3  UNL     1       8.397   9.230  23.230  1.00  0.00     0.094 N 
HETATM   36  C27 UNL     1       7.682  10.415  22.893  1.00  0.00     0.276 C 
BRANCH  35  37
HETATM   37  C23 UNL     1       9.578   9.406  23.991  1.00  0.00     0.339 C 
BRANCH  37  38
HETATM   38  C24 UNL     1       9.671   8.533  25.178  1.00  0.00     0.106 A 
HETATM   39  C25 UNL     1      10.880   7.937  25.549  1.00  0.00     0.055 A 
HETATM   40  C26 UNL     1      10.646   7.201  26.670  1.00  0.00     0.117 A 
HETATM   41  N4  UNL     1       9.335   7.359  26.953  1.00  0.00    -0.272 N 
HETATM   42  O3  UNL     1       8.802   8.147  26.051  1.00  0.00    -0.241 OA
ATOM     43  H4  UNL     1       8.842   6.936  27.739  1.00  0.00     0.193 HD
ENDBRANCH  37  38
ENDBRANCH  35  37
ENDBRANCH   1  24
TORSDOF 9
ENDMDL
MODEL 3
REMARK VINA RESULT: -10.162322758      1.674      2.137
REMARK  9 active torsions:
REMARK  status: ('A' for Active; 'I' for Inactive)
REMARK    1  A    between atoms: C1_2  and  C2_3 
REMARK       I    between atoms: C1_2  and  N1_10 
REMARK    2  A    between atoms: C2_3  and  C3_4 
REMARK    3  A    between atoms: N1_10  and  C9_12 
REMARK    4  A    between atoms: C9_12  and  C10_13 
REMARK    5  A    between atoms: N2_17  and  C13_18 
REMARK    6  A    between atoms: C13_18  and  O2_19 
REMARK    7  A    between atoms: C13_18  and  C14_21 
REMARK    8  A    between atoms: N3_30  and  C23_31 
REMARK    9  A    between atoms: C23_31  and  C24_32 
ROOT
HETATM    1  C13 UNL     1       3.426   6.745  21.092  1.00  0.00     0.149 C 
ENDROOT
BRANCH   1   2
HETATM    2  N2  UNL     1       3.370   5.374  21.206  1.00  0.00    -0.360 N 
HETATM    3  C12 UNL     1       4.325   4.545  21.858  1.00  0.00     0.128 C 
HETATM    4  C11 UNL     1       4.940   3.675  20.777  1.00  0.00     0.068 C 
HETATM    5  C10 UNL     1       3.924   2.851  20.050  1.00  0.00     0.152 C 
HETATM    6  F1  UNL     1       3.670   1.726  20.842  1.00  0.00    -0.238 F 
HETATM    7  C30 UNL     1       2.665   3.554  19.700  1.00  0.00     0.229 C 
HETATM    8  C29 UNL     1       2.245   4.637  20.621  1.00  0.00     0.165 C 
HETATM    9  F2  UNL     1       2.657   4.063  18.405  1.00  0.00    -0.244 F 
BRANCH   5  10
HETATM   10  C9  UNL     1       4.578   2.334  18.785  1.00  0.00     0.169 C 
BRANCH  10  11
HETATM   11  N1  UNL     1       6.011   2.394  18.851  1.00  0.00    -0.358 N 
HETATM   12  C1  UNL     1       6.709   3.344  18.066  1.00  0.00     0.217 C 
HETATM   13  O1  UNL     1       6.044   4.114  17.327  1.00  0.00    -0.274 OA
ATOM     14  H1  UNL     1       6.524   1.755  19.460  1.00  0.00     0.162 HD
BRANCH  12  15
HETATM   15  C2  UNL     1       8.168   3.427  18.114  1.00  0.00     0.107 C 
BRANCH  15  16
HETATM   16  C3  UNL     1       8.910   2.521  17.190  1.00  0.00    -0.006 C 
HETATM   17  C4  UNL     1       8.149   2.017  16.016  1.00  0.00     0.005 C 
HETATM   18  C5  UNL     1       9.099   1.203  15.160  1.00  0.00     0.000 C 
HETATM   19  C6  UNL     1       9.773   0.093  15.898  1.00  0.00     0.000 C 
HETATM   20  C7  UNL     1      10.305   0.496  17.250  1.00  0.00     0.000 C 
HETATM   21  C8  UNL     1       9.302   1.293  18.025  1.00  0.00     0.005 C 
ENDBRANCH  15  16
ENDBRANCH  12  15
ENDBRANCH  10  11
ENDBRANCH   5  10
ENDBRANCH   1   2
BRANCH   1  22
HETATM   22  O2  UNL     1       2.801   7.249  20.056  1.00  0.00    -0.347 OA
ATOM     23  H2  UNL     1       3.345   7.426  19.298  1.00  0.00     0.219 HD
ENDBRANCH   1  22
BRANCH   1  24
HETATM   24  C14 UNL     1       4.057   7.767  21.917  1.00  0.00     0.126 C 
HETATM   25  C15 UNL     1       2.954   8.653  22.530  1.00  0.00     0.047 C 
HETATM   26  C16 UNL     1       3.498   9.702  23.430  1.00  0.00     0.004 C 
HETATM   27  C17 UNL     1       4.734   9.366  24.167  1.00  0.00     0.008 C 
HETATM   28  C18 UNL     1       5.601   8.327  23.543  1.00  0.00     0.024 C 
HETATM   29  C19 UNL     1       4.715   7.149  23.169  1.00  0.00     0.054 C 
HETATM   30  C20 UNL     1       6.072   8.738  22.164  1.00  0.00     0.069 C 
HETATM   31  C21 UNL     1       7.117   7.769  21.666  1.00  0.00     0.069 C 
HETATM   32  C28 UNL     1       6.636  10.121  22.129  1.00  0.00     0.069 C 
HETATM   33  O4  UNL     1       4.958   8.603  21.367  1.00  0.00    -0.360 OA
HETATM   34  C22 UNL     1       8.533   8.323  21.860  1.00  0.00     0.276 C 
HETATM   35  N3  UNL     1       8.535   9.010  23.110  1.00  0.00     0.094 N 
HETATM   36  C27 UNL     1       7.859  10.256  22.972  1.00  0.00     0.276 C 
BRANCH  35  37
HETATM   37  C23 UNL     1       9.781   9.043  23.783  1.00  0.00     0.339 C 
BRANCH  37  38
HETATM   38  C24 UNL     1       9.799   8.308  25.063  1.00  0.00     0.106 A 
HETATM   39  C25 UNL     1      10.999   7.889  25.644  1.00  0.00     0.055 A 
HETATM   40  C26 UNL     1      10.690   7.247  26.803  1.00  0.00     0.117 A 
HETATM   41  N4  UNL     1       9.344   7.285  26.904  1.00  0.00    -0.272 N 
HETATM   42  O3  UNL     1       8.862   7.916  25.861  1.00  0.00    -0.241 OA
ATOM     43  H4  UNL     1       8.794   6.889  27.666  1.00  0.00     0.193 HD
ENDBRANCH  37  38
ENDBRANCH  35  37
ENDBRANCH   1  24
TORSDOF 9
ENDMDL
MODEL 4
REMARK VINA RESULT: -10.015581664      2.466      3.727
REMARK  9 active torsions:
REMARK  status: ('A' for Active; 'I' for Inactive)
REMARK    1  A    between atoms: C1_2  and  C2_3 
REMARK       I    between atoms: C1_2  and  N1_10 
REMARK    2  A    between atoms: C2_3  and  C3_4 
REMARK    3  A    between atoms: N1_10  and  C9_12 
REMARK    4  A    between atoms: C9_12  and  C10_13 
REMARK    5  A    between atoms: N2_17  and  C13_18 
REMARK    6  A    between atoms: C13_18  and  O2_19 
REMARK    7  A    between atoms: C13_18  and  C14_21 
REMARK    8  A    between atoms: N3_30  and  C23_31 
REMARK    9  A    between atoms: C23_31  and  C24_32 
ROOT
HETATM    1  C13 UNL     1       5.686  10.551  18.228  1.00  0.00     0.149 C 
ENDROOT
BRANCH   1   2
HETATM    2  N2  UNL     1       4.772  10.427  17.206  1.00  0.00    -0.360 N 
HETATM    3  C12 UNL     1       3.429   9.971  17.328  1.00  0.00     0.128 C 
HETATM    4  C11 UNL     1       3.350   8.673  16.545  1.00  0.00     0.068 C 
HETATM    5  C10 UNL     1       3.729   8.840  15.108  1.00  0.00     0.152 C 
HETATM    6  F1  UNL     1       2.601   9.335  14.444  1.00  0.00    -0.238 F 
HETATM    7  C30 UNL     1       4.915   9.694  14.856  1.00  0.00     0.229 C 
HETATM    8  C29 UNL     1       5.156  10.782  15.835  1.00  0.00     0.165 C 
HETATM    9  F2  UNL     1       6.098   8.973  14.715  1.00  0.00    -0.244 F 
BRANCH   5  10
HETATM   10  C9  UNL     1       3.976   7.458  14.538  1.00  0.00     0.169 C 
BRANCH  10  11
HETATM   11  N1  UNL     1       4.185   6.476  15.566  1.00  0.00    -0.358 N 
HETATM   12  C1  UNL     1       5.381   5.718  15.577  1.00  0.00     0.217 C 
HETATM   13  O1  UNL     1       6.233   5.931  14.677  1.00  0.00    -0.274 OA
ATOM     14  H1  UNL     1       3.475   6.326  16.283  1.00  0.00     0.162 HD
BRANCH  12  15
HETATM   15  C2  UNL     1       5.619   4.713  16.611  1.00  0.00     0.107 C 
BRANCH  15  16
HETATM   16  C3  UNL     1       6.909   3.969  16.523  1.00  0.00    -0.006 C 
HETATM   17  C4  UNL     1       6.821   2.558  16.063  1.00  0.00     0.005 C 
HETATM   18  C5  UNL     1       8.232   2.016  15.950  1.00  0.00     0.000 C 
HETATM   19  C6  UNL     1       9.027   2.138  17.209  1.00  0.00     0.000 C 
HETATM   20  C7  UNL     1       8.902   3.482  17.880  1.00  0.00     0.000 C 
HETATM   21  C8  UNL     1       7.478   3.937  17.949  1.00  0.00     0.005 C 
ENDBRANCH  15  16
ENDBRANCH  12  15
ENDBRANCH  10  11
ENDBRANCH   5  10
ENDBRANCH   1   2
BRANCH   1  22
HETATM   22  O2  UNL     1       5.866  11.770  18.675  1.00  0.00    -0.347 OA
ATOM     23  H2  UNL     1       5.599  11.917  19.575  1.00  0.00     0.219 HD
ENDBRANCH   1  22
BRANCH   1  24
HETATM   24  C14 UNL     1       6.508   9.570  18.924  1.00  0.00     0.126 C 
HETATM   25  C15 UNL     1       6.589   8.296  18.060  1.00  0.00     0.047 C 
HETATM   26  C16 UNL     1       7.448   7.247  18.666  1.00  0.00     0.004 C 
HETATM   27  C17 UNL     1       8.590   7.716  19.480  1.00  0.00     0.008 C 
HETATM   28  C18 UNL     1       8.445   9.071  20.083  1.00  0.00     0.024 C 
HETATM   29  C19 UNL     1       7.983  10.018  18.986  1.00  0.00     0.054 C 
HETATM   30  C20 UNL     1       7.250   9.154  21.008  1.00  0.00     0.069 C 
HETATM   31  C21 UNL     1       7.270  10.462  21.761  1.00  0.00     0.069 C 
HETATM   32  C28 UNL     1       7.193   8.029  21.989  1.00  0.00     0.069 C 
HETATM   33  O4  UNL     1       6.163   9.171  20.163  1.00  0.00    -0.360 OA
HETATM   34  C22 UNL     1       7.829  10.284  23.178  1.00  0.00     0.276 C 
HETATM   35  N3  UNL     1       8.893   9.339  23.081  1.00  0.00     0.094 N 
HETATM   36  C27 UNL     1       8.358   8.029  22.920  1.00  0.00     0.276 C 
BRANCH  35  37
HETATM   37  C23 UNL     1       9.922   9.482  24.043  1.00  0.00     0.339 C 
BRANCH  37  38
HETATM   38  C24 UNL     1       9.788   8.592  25.213  1.00  0.00     0.106 A 
HETATM   39  C25 UNL     1      10.878   7.866  25.703  1.00  0.00     0.055 A 
HETATM   40  C26 UNL     1      10.443   7.148  26.774  1.00  0.00     0.117 A 
HETATM   41  N4  UNL     1       9.133   7.442  26.913  1.00  0.00    -0.272 N 
HETATM   42  O3  UNL     1       8.791   8.292  25.975  1.00  0.00    -0.241 OA
ATOM     43  H4  UNL     1       8.512   7.065  27.629  1.00  0.00     0.193 HD
ENDBRANCH  37  38
ENDBRANCH  35  37
ENDBRANCH   1  24
TORSDOF 9
ENDMDL
MODEL 5
REMARK VINA RESULT: -9.927939978      1.409      1.882
REMARK  9 active torsions:
REMARK  status: ('A' for Active; 'I' for Inactive)
REMARK    1  A    between atoms: C1_2  and  C2_3 
REMARK       I    between atoms: C1_2  and  N1_10 
REMARK    2  A    between atoms: C2_3  and  C3_4 
REMARK    3  A    between atoms: N1_10  and  C9_12 
REMARK    4  A    between atoms: C9_12  and  C10_13 
REMARK    5  A    between atoms: N2_17  and  C13_18 
REMARK    6  A    between atoms: C13_18  and  O2_19 
REMARK    7  A    between atoms: C13_18  and  C14_21 
REMARK    8  A    between atoms: N3_30  and  C23_31 
REMARK    9  A    between atoms: C23_31  and  C24_32 
ROOT
HETATM    1  C13 UNL     1       3.074   6.816  21.357  1.00  0.00     0.149 C 
ENDROOT
BRANCH   1   2
HETATM    2  N2  UNL     1       3.513   5.840  20.491  1.00  0.00    -0.360 N 
HETATM    3  C12 UNL     1       3.478   4.435  20.719  1.00  0.00     0.128 C 
HETATM    4  C11 UNL     1       4.925   3.979  20.773  1.00  0.00     0.068 C 
HETATM    5  C10 UNL     1       5.679   4.299  19.521  1.00  0.00     0.152 C 
HETATM    6  F1  UNL     1       5.373   3.296  18.594  1.00  0.00    -0.238 F 
HETATM    7  C30 UNL     1       5.429   5.646  18.952  1.00  0.00     0.229 C 
HETATM    8  C29 UNL     1       4.082   6.217  19.193  1.00  0.00     0.165 C 
HETATM    9  F2  UNL     1       6.373   6.594  19.339  1.00  0.00    -0.244 F 
BRANCH   5  10
HETATM   10  C9  UNL     1       7.155   4.149  19.827  1.00  0.00     0.169 C 
BRANCH  10  11
HETATM   11  N1  UNL     1       7.930   3.889  18.646  1.00  0.00    -0.358 N 
HETATM   12  C1  UNL     1       8.286   2.556  18.323  1.00  0.00     0.217 C 
HETATM   13  O1  UNL     1       7.907   1.633  19.088  1.00  0.00    -0.274 OA
ATOM     14  H1  UNL     1       8.224   4.659  18.045  1.00  0.00     0.162 HD
BRANCH  12  15
HETATM   15  C2  UNL     1       9.074   2.262  17.128  1.00  0.00     0.107 C 
BRANCH  15  16
HETATM   16  C3  UNL     1       9.519   0.848  16.962  1.00  0.00    -0.006 C 
HETATM   17  C4  UNL     1      10.951   0.574  17.255  1.00  0.00     0.005 C 
HETATM   18  C5  UNL     1      11.176  -0.919  17.124  1.00  0.00     0.000 C 
HETATM   19  C6  UNL     1      10.766  -1.476  15.800  1.00  0.00     0.000 C 
HETATM   20  C7  UNL     1       9.428  -0.979  15.318  1.00  0.00     0.000 C 
HETATM   21  C8  UNL     1       9.295   0.503  15.483  1.00  0.00     0.005 C 
ENDBRANCH  15  16
ENDBRANCH  12  15
ENDBRANCH  10  11
ENDBRANCH   5  10
ENDBRANCH   1   2
BRANCH   1  22
HETATM   22  O2  UNL     1       1.777   6.864  21.539  1.00  0.00    -0.347 OA
ATOM     23  H2  UNL     1       1.250   6.687  20.769  1.00  0.00     0.219 HD
ENDBRANCH   1  22
BRANCH   1  24
HETATM   24  C14 UNL     1       3.786   7.828  22.126  1.00  0.00     0.126 C 
HETATM   25  C15 UNL     1       2.751   8.768  22.778  1.00  0.00     0.047 C 
HETATM   26  C16 UNL     1       3.380   9.811  23.626  1.00  0.00     0.004 C 
HETATM   27  C17 UNL     1       4.641   9.443  24.304  1.00  0.00     0.008 C 
HETATM   28  C18 UNL     1       5.434   8.360  23.657  1.00  0.00     0.024 C 
HETATM   29  C19 UNL     1       4.486   7.210  23.354  1.00  0.00     0.054 C 
HETATM   30  C20 UNL     1       5.846   8.726  22.247  1.00  0.00     0.069 C 
HETATM   31  C21 UNL     1       6.826   7.708  21.714  1.00  0.00     0.069 C 
HETATM   32  C28 UNL     1       6.458  10.086  22.153  1.00  0.00     0.069 C 
HETATM   33  O4  UNL     1       4.687   8.619  21.512  1.00  0.00    -0.360 OA
HETATM   34  C22 UNL     1       8.270   8.211  21.822  1.00  0.00     0.276 C 
HETATM   35  N3  UNL     1       8.364   8.922  23.055  1.00  0.00     0.094 N 
HETATM   36  C27 UNL     1       7.728  10.190  22.928  1.00  0.00     0.276 C 
BRANCH  35  37
HETATM   37  C23 UNL     1       9.644   8.920  23.661  1.00  0.00     0.339 C 
BRANCH  37  38
HETATM   38  C24 UNL     1       9.682   8.296  24.999  1.00  0.00     0.106 A 
HETATM   39  C25 UNL     1      10.879   7.829  25.550  1.00  0.00     0.055 A 
HETATM   40  C26 UNL     1      10.591   7.315  26.776  1.00  0.00     0.117 A 
HETATM   41  N4  UNL     1       9.261   7.474  26.945  1.00  0.00    -0.272 N 
HETATM   42  O3  UNL     1       8.768   8.052  25.877  1.00  0.00    -0.241 OA
ATOM     43  H4  UNL     1       8.728   7.190  27.768  1.00  0.00     0.193 HD
ENDBRANCH  37  38
ENDBRANCH  35  37
ENDBRANCH   1  24
TORSDOF 9
ENDMDL
