MODEL 1
REMARK VINA RESULT: -7.613912801      0.000      0.000
REMARK  8 active torsions:
REMARK  status: ('A' for Active; 'I' for Inactive)
REMARK    1  A    between atoms: O1_2  and  C2_3 
REMARK    2  A    between atoms: C8_10  and  N1_11 
REMARK    3  A    between atoms: C10_13  and  C11_14 
REMARK    4  A    between atoms: C11_14  and  C12_15 
REMARK    5  A    between atoms: C12_15  and  N2_16 
REMARK    6  A    between atoms: C15_19  and  N3_20 
REMARK    7  A    between atoms: C24_32  and  O2_33 
REMARK    8  A    between atoms: C25_35  and  C26_36 
ROOT
HETATM    1  N1  UNL     1       5.413   3.132  20.411  1.00  0.00    -0.276 N 
HETATM    2  C9  UNL     1       4.904   4.374  20.356  1.00  0.00     0.135 A 
HETATM    3  C10 UNL     1       3.846   4.474  21.230  1.00  0.00     0.042 A 
HETATM    4  N4  UNL     1       3.744   3.258  21.800  1.00  0.00    -0.287 N 
ATOM      5  H4  UNL     1       3.056   2.986  22.502  1.00  0.00     0.184 HD
HETATM    6  N5  UNL     1       4.691   2.468  21.296  1.00  0.00    -0.020 NA
ENDROOT
BRANCH   1   7
HETATM    7  C8  UNL     1       6.550   2.671  19.617  1.00  0.00     0.141 C 
HETATM    8  C5  UNL     1       6.086   2.307  18.273  1.00  0.00    -0.025 A 
HETATM    9  C4  UNL     1       6.939   2.327  17.195  1.00  0.00    -0.038 A 
HETATM   10  C6  UNL     1       4.781   1.931  18.064  1.00  0.00     0.032 A 
HETATM   11  C3  UNL     1       6.502   1.981  15.940  1.00  0.00     0.046 A 
HETATM   12  C25 UNL     1       8.343   2.735  17.414  1.00  0.00     0.077 C 
HETATM   13  C2  UNL     1       5.209   1.605  15.716  1.00  0.00     0.086 A 
HETATM   14  C7  UNL     1       4.336   1.581  16.794  1.00  0.00     0.044 A 
HETATM   15 BR1  UNL     1       2.542   1.053  16.450  1.00  0.00    -0.048 Br
HETATM   16  C24 UNL     1       8.341   3.908  18.337  1.00  0.00     0.131 C 
HETATM   17  C23 UNL     1       7.659   3.679  19.641  1.00  0.00     0.064 C 
BRANCH  13  18
HETATM   18  O1  UNL     1       4.803   1.265  14.438  1.00  0.00    -0.355 OA
HETATM   19  C1  UNL     1       5.753   1.185  13.412  1.00  0.00     0.210 C 
ENDBRANCH  13  18
BRANCH  12  20
HETATM   20  C26 UNL     1       9.200   1.613  17.919  1.00  0.00     0.234 C 
HETATM   21  F1  UNL     1      10.518   1.876  17.546  1.00  0.00    -0.255 F 
ENDBRANCH  12  20
BRANCH  16  22
HETATM   22  O2  UNL     1       7.774   5.011  17.688  1.00  0.00    -0.395 OA
ATOM     23  H2  UNL     1       8.261   5.797  17.900  1.00  0.00     0.210 HD
ENDBRANCH  16  22
ENDBRANCH   1   7
BRANCH   3  24
HETATM   24  C11 UNL     1       3.015   5.684  21.464  1.00  0.00     0.090 C 
BRANCH  24  25
HETATM   25  C12 UNL     1       3.445   6.288  22.754  1.00  0.00     0.280 C 
BRANCH  25  26
HETATM   26  N2  UNL     1       4.408   7.315  22.660  1.00  0.00     0.102 N 
HETATM   27  C13 UNL     1       4.052   8.455  21.861  1.00  0.00     0.248 C 
HETATM   28  C14 UNL     1       5.342   9.097  21.502  1.00  0.00     0.041 C 
HETATM   29  C22 UNL     1       3.297   9.414  22.744  1.00  0.00     0.042 C 
HETATM   30  C15 UNL     1       6.263   9.240  22.439  1.00  0.00     0.113 C 
HETATM   31  C19 UNL     1       5.975   8.760  23.812  1.00  0.00     0.100 C 
HETATM   32  C20 UNL     1       4.730   7.931  23.921  1.00  0.00     0.229 C 
HETATM   33  C21 UNL     1       3.537   8.854  24.138  1.00  0.00     0.038 C 
BRANCH  30  34
HETATM   34  N3  UNL     1       7.538   9.860  22.132  1.00  0.00    -0.052 N 
HETATM   35  C16 UNL     1       7.357  11.198  21.656  1.00  0.00     0.278 C 
HETATM   36  C17 UNL     1       8.343   9.806  23.352  1.00  0.00     0.278 C 
HETATM   37  C18 UNL     1       8.264   9.070  21.141  1.00  0.00     0.278 C 
ENDBRANCH  30  34
ENDBRANCH  25  26
ENDBRANCH  24  25
ENDBRANCH   3  24
TORSDOF 8
ENDMDL
MODEL 2
REMARK VINA RESULT: -7.565218221      1.058      1.530
REMARK  8 active torsions:
REMARK  status: ('A' for Active; 'I' for Inactive)
REMARK    1  A    between atoms: O1_2  and  C2_3 
REMARK    2  A    between atoms: C8_10  and  N1_11 
REMARK    3  A    between atoms: C10_13  and  C11_14 
REMARK    4  A    between atoms: C11_14  and  C12_15 
REMARK    5  A    between atoms: C12_15  and  N2_16 
REMARK    6  A    between atoms: C15_19  and  N3_20 
REMARK    7  A    between atoms: C24_32  and  O2_33 
REMARK    8  A    between atoms: C25_35  and  C26_36 
ROOT
HETATM    1  N1  UNL     1       5.396   3.366  20.552  1.00  0.00    -0.276 N 
HETATM    2  C9  UNL     1       5.095   4.675  20.518  1.00  0.00     0.135 A 
HETATM    3  C10 UNL     1       4.060   4.928  21.390  1.00  0.00     0.042 A 
HETATM    4  N4  UNL     1       3.760   3.735  21.936  1.00  0.00    -0.287 N 
ATOM      5  H4  UNL     1       3.031   3.565  22.630  1.00  0.00     0.184 HD
HETATM    6  N5  UNL     1       4.571   2.812  21.421  1.00  0.00    -0.020 NA
ENDROOT
BRANCH   1   7
HETATM    7  C8  UNL     1       6.450   2.742  19.754  1.00  0.00     0.141 C 
HETATM    8  C5  UNL     1       5.900   2.345  18.452  1.00  0.00    -0.025 A 
HETATM    9  C4  UNL     1       6.709   2.210  17.349  1.00  0.00    -0.038 A 
HETATM   10  C6  UNL     1       4.557   2.094  18.310  1.00  0.00     0.032 A 
HETATM   11  C3  UNL     1       6.191   1.835  16.133  1.00  0.00     0.046 A 
HETATM   12  C25 UNL     1       8.155   2.484  17.496  1.00  0.00     0.077 C 
HETATM   13  C2  UNL     1       4.859   1.582  15.975  1.00  0.00     0.086 A 
HETATM   14  C7  UNL     1       4.030   1.715  17.080  1.00  0.00     0.044 A 
HETATM   15 BR1  UNL     1       2.180   1.355  16.828  1.00  0.00    -0.048 Br
HETATM   16  C24 UNL     1       8.306   3.705  18.340  1.00  0.00     0.131 C 
HETATM   17  C23 UNL     1       7.655   3.629  19.677  1.00  0.00     0.064 C 
BRANCH  13  18
HETATM   18  O1  UNL     1       4.372   1.208  14.736  1.00  0.00    -0.355 OA
HETATM   19  C1  UNL     1       5.125   0.340  13.934  1.00  0.00     0.210 C 
ENDBRANCH  13  18
BRANCH  12  20
HETATM   20  C26 UNL     1       8.912   1.312  18.046  1.00  0.00     0.234 C 
HETATM   21  F1  UNL     1      10.261   1.492  17.742  1.00  0.00    -0.255 F 
ENDBRANCH  12  20
BRANCH  16  22
HETATM   22  O2  UNL     1       7.829   4.819  17.639  1.00  0.00    -0.395 OA
ATOM     23  H2  UNL     1       7.490   4.550  16.795  1.00  0.00     0.210 HD
ENDBRANCH  16  22
ENDBRANCH   1   7
BRANCH   3  24
HETATM   24  C11 UNL     1       3.434   6.253  21.644  1.00  0.00     0.090 C 
BRANCH  24  25
HETATM   25  C12 UNL     1       4.277   6.972  22.636  1.00  0.00     0.280 C 
BRANCH  25  26
HETATM   26  N2  UNL     1       5.009   8.071  22.137  1.00  0.00     0.102 N 
HETATM   27  C13 UNL     1       4.756   9.342  22.757  1.00  0.00     0.248 C 
HETATM   28  C14 UNL     1       5.208  10.354  21.768  1.00  0.00     0.041 C 
HETATM   29  C22 UNL     1       5.655   9.450  23.962  1.00  0.00     0.042 C 
HETATM   30  C15 UNL     1       6.361  10.166  21.149  1.00  0.00     0.113 C 
HETATM   31  C19 UNL     1       7.161   8.959  21.466  1.00  0.00     0.100 C 
HETATM   32  C20 UNL     1       6.434   7.945  22.298  1.00  0.00     0.229 C 
HETATM   33  C21 UNL     1       6.620   8.289  23.772  1.00  0.00     0.038 C 
BRANCH  30  34
HETATM   34  N3  UNL     1       6.841  11.129  20.176  1.00  0.00    -0.052 N 
HETATM   35  C16 UNL     1       7.206  12.360  20.808  1.00  0.00     0.278 C 
HETATM   36  C17 UNL     1       7.964  10.505  19.478  1.00  0.00     0.278 C 
HETATM   37  C18 UNL     1       5.824  11.372  19.156  1.00  0.00     0.278 C 
ENDBRANCH  30  34
ENDBRANCH  25  26
ENDBRANCH  24  25
ENDBRANCH   3  24
TORSDOF 8
ENDMDL
MODEL 3
REMARK VINA RESULT: -7.402872915      2.522      4.458
REMARK  8 active torsions:
REMARK  status: ('A' for Active; 'I' for Inactive)
REMARK    1  A    between atoms: O1_2  and  C2_3 
REMARK    2  A    between atoms: C8_10  and  N1_11 
REMARK    3  A    between atoms: C10_13  and  C11_14 
REMARK    4  A    between atoms: C11_14  and  C12_15 
REMARK    5  A    between atoms: C12_15  and  N2_16 
REMARK    6  A    between atoms: C15_19  and  N3_20 
REMARK    7  A    between atoms: C24_32  and  O2_33 
REMARK    8  A    between atoms: C25_35  and  C26_36 
ROOT
HETATM    1  N1  UNL     1       7.467   5.942  18.320  1.00  0.00    -0.276 N 
HETATM    2  C9  UNL     1       8.095   6.870  19.063  1.00  0.00     0.135 A 
HETATM    3  C10 UNL     1       7.637   8.120  18.714  1.00  0.00     0.042 A 
HETATM    4  N4  UNL     1       6.724   7.904  17.748  1.00  0.00    -0.287 N 
ATOM      5  H4  UNL     1       6.187   8.625  17.265  1.00  0.00     0.184 HD
HETATM    6  N5  UNL     1       6.637   6.594  17.526  1.00  0.00    -0.020 NA
ENDROOT
BRANCH   1   7
HETATM    7  C8  UNL     1       7.705   4.504  18.426  1.00  0.00     0.141 C 
HETATM    8  C5  UNL     1       6.543   3.866  19.057  1.00  0.00    -0.025 A 
HETATM    9  C4  UNL     1       6.255   2.540  18.842  1.00  0.00    -0.038 A 
HETATM   10  C6  UNL     1       5.717   4.586  19.885  1.00  0.00     0.032 A 
HETATM   11  C3  UNL     1       5.169   1.945  19.437  1.00  0.00     0.046 A 
HETATM   12  C25 UNL     1       7.139   1.761  17.947  1.00  0.00     0.077 C 
HETATM   13  C2  UNL     1       4.339   2.646  20.263  1.00  0.00     0.086 A 
HETATM   14  C7  UNL     1       4.617   3.987  20.489  1.00  0.00     0.044 A 
HETATM   15 BR1  UNL     1       3.442   4.937  21.644  1.00  0.00    -0.048 Br
HETATM   16  C24 UNL     1       7.464   2.616  16.767  1.00  0.00     0.131 C 
HETATM   17  C23 UNL     1       8.085   3.929  17.095  1.00  0.00     0.064 C 
BRANCH  13  18
HETATM   18  O1  UNL     1       3.254   2.016  20.844  1.00  0.00    -0.355 OA
HETATM   19  C1  UNL     1       3.453   0.839  21.577  1.00  0.00     0.210 C 
ENDBRANCH  13  18
BRANCH  12  20
HETATM   20  C26 UNL     1       8.368   1.258  18.643  1.00  0.00     0.234 C 
HETATM   21  F1  UNL     1       9.255   0.799  17.670  1.00  0.00    -0.255 F 
ENDBRANCH  12  20
BRANCH  16  22
HETATM   22  O2  UNL     1       6.309   2.812  16.001  1.00  0.00    -0.395 OA
ATOM     23  H2  UNL     1       6.022   1.987  15.630  1.00  0.00     0.210 HD
ENDBRANCH  16  22
ENDBRANCH   1   7
BRANCH   3  24
HETATM   24  C11 UNL     1       8.081   9.411  19.303  1.00  0.00     0.090 C 
BRANCH  24  25
HETATM   25  C12 UNL     1       8.356   9.182  20.747  1.00  0.00     0.280 C 
BRANCH  25  26
HETATM   26  N2  UNL     1       7.221   9.101  21.582  1.00  0.00     0.102 N 
HETATM   27  C13 UNL     1       7.069   7.889  22.338  1.00  0.00     0.248 C 
HETATM   28  C14 UNL     1       5.628   7.830  22.693  1.00  0.00     0.041 C 
HETATM   29  C22 UNL     1       7.846   8.047  23.619  1.00  0.00     0.042 C 
HETATM   30  C15 UNL     1       5.035   8.929  23.127  1.00  0.00     0.113 C 
HETATM   31  C19 UNL     1       5.828  10.175  23.248  1.00  0.00     0.100 C 
HETATM   32  C20 UNL     1       7.188  10.099  22.620  1.00  0.00     0.229 C 
HETATM   33  C21 UNL     1       8.172   9.534  23.637  1.00  0.00     0.038 C 
BRANCH  30  34
HETATM   34  N3  UNL     1       3.629   8.917  23.484  1.00  0.00    -0.052 N 
HETATM   35  C16 UNL     1       2.814   9.306  22.374  1.00  0.00     0.278 C 
HETATM   36  C17 UNL     1       3.321   7.568  23.957  1.00  0.00     0.278 C 
HETATM   37  C18 UNL     1       3.384   9.802  24.620  1.00  0.00     0.278 C 
ENDBRANCH  30  34
ENDBRANCH  25  26
ENDBRANCH  24  25
ENDBRANCH   3  24
TORSDOF 8
ENDMDL
MODEL 4
REMARK VINA RESULT: -7.291481523      4.285      9.416
REMARK  8 active torsions:
REMARK  status: ('A' for Active; 'I' for Inactive)
REMARK    1  A    between atoms: O1_2  and  C2_3 
REMARK    2  A    between atoms: C8_10  and  N1_11 
REMARK    3  A    between atoms: C10_13  and  C11_14 
REMARK    4  A    between atoms: C11_14  and  C12_15 
REMARK    5  A    between atoms: C12_15  and  N2_16 
REMARK    6  A    between atoms: C15_19  and  N3_20 
REMARK    7  A    between atoms: C24_32  and  O2_33 
REMARK    8  A    between atoms: C25_35  and  C26_36 
ROOT
HETATM    1  N1  UNL     1       6.561   8.132  18.380  1.00  0.00    -0.276 N 
HETATM    2  C9  UNL     1       7.177   7.207  19.136  1.00  0.00     0.135 A 
HETATM    3  C10 UNL     1       7.217   6.012  18.453  1.00  0.00     0.042 A 
HETATM    4  N4  UNL     1       6.608   6.258  17.277  1.00  0.00    -0.287 N 
ATOM      5  H4  UNL     1       6.466   5.579  16.528  1.00  0.00     0.184 HD
HETATM    6  N5  UNL     1       6.222   7.532  17.253  1.00  0.00    -0.020 NA
ENDROOT
BRANCH   1   7
HETATM    7  C8  UNL     1       6.344   9.518  18.789  1.00  0.00     0.141 C 
HETATM    8  C5  UNL     1       5.408   9.548  19.919  1.00  0.00    -0.025 A 
HETATM    9  C4  UNL     1       5.401  10.594  20.810  1.00  0.00    -0.038 A 
HETATM   10  C6  UNL     1       4.510   8.525  20.109  1.00  0.00     0.032 A 
HETATM   11  C3  UNL     1       4.521  10.620  21.865  1.00  0.00     0.046 A 
HETATM   12  C25 UNL     1       6.368  11.695  20.614  1.00  0.00     0.077 C 
HETATM   13  C2  UNL     1       3.623   9.612  22.067  1.00  0.00     0.086 A 
HETATM   14  C7  UNL     1       3.619   8.548  21.176  1.00  0.00     0.044 A 
HETATM   15 BR1  UNL     1       2.356   7.160  21.484  1.00  0.00    -0.048 Br
HETATM   16  C24 UNL     1       7.681  11.090  20.242  1.00  0.00     0.131 C 
HETATM   17  C23 UNL     1       7.649  10.209  19.042  1.00  0.00     0.064 C 
BRANCH  13  18
HETATM   18  O1  UNL     1       2.753   9.671  23.140  1.00  0.00    -0.355 OA
HETATM   19  C1  UNL     1       3.249   9.499  24.439  1.00  0.00     0.210 C 
ENDBRANCH  13  18
BRANCH  12  20
HETATM   20  C26 UNL     1       5.899  12.705  19.609  1.00  0.00     0.234 C 
HETATM   21  F1  UNL     1       6.667  13.858  19.768  1.00  0.00    -0.255 F 
ENDBRANCH  12  20
BRANCH  16  22
HETATM   22  O2  UNL     1       8.198  10.388  21.337  1.00  0.00    -0.395 OA
ATOM     23  H2  UNL     1       9.011   9.962  21.094  1.00  0.00     0.210 HD
ENDBRANCH  16  22
ENDBRANCH   1   7
BRANCH   3  24
HETATM   24  C11 UNL     1       7.813   4.743  18.946  1.00  0.00     0.090 C 
BRANCH  24  25
HETATM   25  C12 UNL     1       8.628   4.165  17.844  1.00  0.00     0.280 C 
BRANCH  25  26
HETATM   26  N2  UNL     1       7.982   3.198  17.044  1.00  0.00     0.102 N 
HETATM   27  C13 UNL     1       8.826   2.220  16.416  1.00  0.00     0.248 C 
HETATM   28  C14 UNL     1       8.029   1.689  15.281  1.00  0.00     0.041 C 
HETATM   29  C22 UNL     1       9.029   1.094  17.396  1.00  0.00     0.042 C 
HETATM   30  C15 UNL     1       6.756   1.395  15.482  1.00  0.00     0.113 C 
HETATM   31  C19 UNL     1       6.173   1.601  16.829  1.00  0.00     0.100 C 
HETATM   32  C20 UNL     1       7.058   2.364  17.768  1.00  0.00     0.229 C 
HETATM   33  C21 UNL     1       7.994   1.388  18.471  1.00  0.00     0.038 C 
BRANCH  30  34
HETATM   34  N3  UNL     1       5.940   0.875  14.401  1.00  0.00    -0.052 N 
HETATM   35  C16 UNL     1       5.967   1.749  13.269  1.00  0.00     0.278 C 
HETATM   36  C17 UNL     1       6.448  -0.460  14.088  1.00  0.00     0.278 C 
HETATM   37  C18 UNL     1       4.563   0.681  14.850  1.00  0.00     0.278 C 
ENDBRANCH  30  34
ENDBRANCH  25  26
ENDBRANCH  24  25
ENDBRANCH   3  24
TORSDOF 8
ENDMDL
MODEL 5
REMARK VINA RESULT: -7.187200591      3.797      8.576
REMARK  8 active torsions:
REMARK  status: ('A' for Active; 'I' for Inactive)
REMARK    1  A    between atoms: O1_2  and  C2_3 
REMARK    2  A    between atoms: C8_10  and  N1_11 
REMARK    3  A    between atoms: C10_13  and  C11_14 
REMARK    4  A    between atoms: C11_14  and  C12_15 
REMARK    5  A    between atoms: C12_15  and  N2_16 
REMARK    6  A    between atoms: C15_19  and  N3_20 
REMARK    7  A    between atoms: C24_32  and  O2_33 
REMARK    8  A    between atoms: C25_35  and  C26_36 
ROOT
HETATM    1  N1  UNL     1       4.821   6.635  21.298  1.00  0.00    -0.276 N 
HETATM    2  C9  UNL     1       5.154   5.521  20.624  1.00  0.00     0.135 A 
HETATM    3  C10 UNL     1       4.111   5.156  19.803  1.00  0.00     0.042 A 
HETATM    4  N4  UNL     1       3.156   6.083  20.012  1.00  0.00    -0.287 N 
ATOM      5  H4  UNL     1       2.243   6.109  19.557  1.00  0.00     0.184 HD
HETATM    6  N5  UNL     1       3.601   6.959  20.912  1.00  0.00    -0.020 NA
ENDROOT
BRANCH   1   7
HETATM    7  C8  UNL     1       5.692   7.307  22.260  1.00  0.00     0.141 C 
HETATM    8  C5  UNL     1       6.265   8.507  21.639  1.00  0.00    -0.025 A 
HETATM    9  C4  UNL     1       6.690   9.569  22.400  1.00  0.00    -0.038 A 
HETATM   10  C6  UNL     1       6.392   8.592  20.273  1.00  0.00     0.032 A 
HETATM   11  C3  UNL     1       7.228  10.690  21.815  1.00  0.00     0.046 A 
HETATM   12  C25 UNL     1       6.551   9.485  23.870  1.00  0.00     0.077 C 
HETATM   13  C2  UNL     1       7.362  10.790  20.460  1.00  0.00     0.086 A 
HETATM   14  C7  UNL     1       6.936   9.725  19.678  1.00  0.00     0.044 A 
HETATM   15 BR1  UNL     1       7.136   9.895  17.795  1.00  0.00    -0.048 Br
HETATM   16  C24 UNL     1       5.216   8.888  24.170  1.00  0.00     0.131 C 
HETATM   17  C23 UNL     1       4.970   7.557  23.549  1.00  0.00     0.064 C 
BRANCH  13  18
HETATM   18  O1  UNL     1       7.907  11.933  19.906  1.00  0.00    -0.355 OA
HETATM   19  C1  UNL     1       7.337  13.179  20.196  1.00  0.00     0.210 C 
ENDBRANCH  13  18
BRANCH  12  20
HETATM   20  C26 UNL     1       7.673   8.728  24.515  1.00  0.00     0.234 C 
HETATM   21  F1  UNL     1       8.634   8.470  23.538  1.00  0.00    -0.255 F 
ENDBRANCH  12  20
BRANCH  16  22
HETATM   22  O2  UNL     1       4.209   9.784  23.794  1.00  0.00    -0.395 OA
ATOM     23  H2  UNL     1       4.592  10.550  23.385  1.00  0.00     0.210 HD
ENDBRANCH  16  22
ENDBRANCH   1   7
BRANCH   3  24
HETATM   24  C11 UNL     1       4.083   3.980  18.894  1.00  0.00     0.090 C 
BRANCH  24  25
HETATM   25  C12 UNL     1       5.076   2.994  19.395  1.00  0.00     0.280 C 
BRANCH  25  26
HETATM   26  N2  UNL     1       6.048   2.572  18.462  1.00  0.00     0.102 N 
HETATM   27  C13 UNL     1       6.427   3.527  17.457  1.00  0.00     0.248 C 
HETATM   28  C14 UNL     1       7.012   2.721  16.356  1.00  0.00     0.041 C 
HETATM   29  C22 UNL     1       7.528   4.382  18.030  1.00  0.00     0.042 C 
HETATM   30  C15 UNL     1       7.854   1.749  16.658  1.00  0.00     0.113 C 
HETATM   31  C19 UNL     1       8.188   1.501  18.081  1.00  0.00     0.100 C 
HETATM   32  C20 UNL     1       7.321   2.247  19.051  1.00  0.00     0.229 C 
HETATM   33  C21 UNL     1       7.922   3.627  19.292  1.00  0.00     0.038 C 
BRANCH  30  34
HETATM   34  N3  UNL     1       8.449   0.936  15.614  1.00  0.00    -0.052 N 
HETATM   35  C16 UNL     1       7.449   0.194  14.908  1.00  0.00     0.278 C 
HETATM   36  C17 UNL     1       9.192   1.843  14.740  1.00  0.00     0.278 C 
HETATM   37  C18 UNL     1       9.442   0.027  16.179  1.00  0.00     0.278 C 
ENDBRANCH  30  34
ENDBRANCH  25  26
ENDBRANCH  24  25
ENDBRANCH   3  24
TORSDOF 8
ENDMDL
