MODEL 1
REMARK VINA RESULT: -8.442575344      0.000      0.000
REMARK  8 active torsions:
REMARK  status: ('A' for Active; 'I' for Inactive)
REMARK    1  A    between atoms: N2_5  and  C4_6 
REMARK    2  A    between atoms: C4_6  and  C5_7 
REMARK    3  A    between atoms: C5_7  and  C6_8 
REMARK    4  A    between atoms: C9_12  and  N3_13 
REMARK       I    between atoms: N3_13  and  C10_15 
REMARK    5  A    between atoms: C10_15  and  C11_17 
REMARK    6  A    between atoms: N6_23  and  C13_24 
REMARK    7  A    between atoms: C13_24  and  C14_25 
REMARK    8  A    between atoms: C14_25  and  C15_26 
ROOT
HETATM    1  C6  UNL     1       6.346   8.771  21.155  1.00  0.00    -0.054 A 
HETATM    2  C7  UNL     1       6.286   9.391  19.923  1.00  0.00     0.028 A 
HETATM    3  C8  UNL     1       6.417   8.705  18.737  1.00  0.00     0.039 A 
HETATM    4 BR1  UNL     1       6.325   9.612  17.064  1.00  0.00    -0.049 Br
HETATM    5  C9  UNL     1       6.618   7.343  18.741  1.00  0.00     0.070 A 
HETATM    6  C19 UNL     1       6.684   6.695  19.960  1.00  0.00     0.039 A 
HETATM    7 BR2  UNL     1       6.961   4.818  19.947  1.00  0.00    -0.049 Br
HETATM    8  C20 UNL     1       6.548   7.407  21.157  1.00  0.00     0.028 A 
ENDROOT
BRANCH   5   9
HETATM    9  N3  UNL     1       6.753   6.668  17.512  1.00  0.00    -0.318 N 
HETATM   10  C10 UNL     1       5.675   6.003  16.862  1.00  0.00     0.291 C 
HETATM   11  O1  UNL     1       4.559   6.021  17.410  1.00  0.00    -0.264 OA
ATOM     12  H3  UNL     1       7.670   6.655  17.065  1.00  0.00     0.169 HD
BRANCH  10  13
HETATM   13  C11 UNL     1       5.902   5.330  15.594  1.00  0.00     0.192 A 
HETATM   14  N4  UNL     1       5.708   5.870  14.353  1.00  0.00    -0.332 N 
HETATM   15  C12 UNL     1       6.007   4.972  13.406  1.00  0.00     0.199 A 
ATOM     16  H4  UNL     1       5.383   6.820  14.175  1.00  0.00     0.168 HD
HETATM   17  N5  UNL     1       6.391   3.865  14.046  1.00  0.00    -0.292 N 
HETATM   18  N6  UNL     1       6.327   4.083  15.378  1.00  0.00    -0.271 N 
ATOM     19  H5  UNL     1       6.685   2.996  13.601  1.00  0.00     0.188 HD
BRANCH  18  20
HETATM   20  C13 UNL     1       6.648   3.101  16.381  1.00  0.00     0.152 C 
BRANCH  20  21
HETATM   21  C14 UNL     1       7.830   2.245  16.157  1.00  0.00     0.030 C 
BRANCH  21  22
HETATM   22  C15 UNL     1       8.679   1.926  17.347  1.00  0.00    -0.050 C 
HETATM   23  C16 UNL     1       7.852   1.499  18.547  1.00  0.00     0.014 C 
HETATM   24  C17 UNL     1       9.857   1.057  17.119  1.00  0.00     0.014 C 
HETATM   25  C18 UNL     1       9.270   3.308  17.790  1.00  0.00     0.014 C 
ENDBRANCH  21  22
ENDBRANCH  20  21
ENDBRANCH  18  20
ENDBRANCH  10  13
ENDBRANCH   5   9
BRANCH   1  26
HETATM   26  C5  UNL     1       6.206   9.501  22.431  1.00  0.00     0.069 C 
BRANCH  26  27
HETATM   27  C4  UNL     1       7.422  10.347  22.741  1.00  0.00     0.277 C 
BRANCH  27  28
HETATM   28  N2  UNL     1       8.325   9.724  23.647  1.00  0.00     0.092 N 
HETATM   29  C3  UNL     1       7.703   8.914  24.645  1.00  0.00     0.302 C 
HETATM   30  C2  UNL     1       8.739   8.166  25.449  1.00  0.00     0.302 C 
HETATM   31  N1  UNL     1      10.044   8.755  25.403  1.00  0.00     0.087 N 
HETATM   32  C1  UNL     1      10.958   7.807  26.038  1.00  0.00     0.310 C 
HETATM   33  C22 UNL     1      10.540   8.969  24.061  1.00  0.00     0.302 C 
HETATM   34  C21 UNL     1       9.414   9.013  23.049  1.00  0.00     0.302 C 
ENDBRANCH  27  28
ENDBRANCH  26  27
ENDBRANCH   1  26
TORSDOF 8
ENDMDL
MODEL 2
REMARK VINA RESULT: -8.429980665      0.073      1.664
REMARK  8 active torsions:
REMARK  status: ('A' for Active; 'I' for Inactive)
REMARK    1  A    between atoms: N2_5  and  C4_6 
REMARK    2  A    between atoms: C4_6  and  C5_7 
REMARK    3  A    between atoms: C5_7  and  C6_8 
REMARK    4  A    between atoms: C9_12  and  N3_13 
REMARK       I    between atoms: N3_13  and  C10_15 
REMARK    5  A    between atoms: C10_15  and  C11_17 
REMARK    6  A    between atoms: N6_23  and  C13_24 
REMARK    7  A    between atoms: C13_24  and  C14_25 
REMARK    8  A    between atoms: C14_25  and  C15_26 
ROOT
HETATM    1  C6  UNL     1       6.342   8.762  21.156  1.00  0.00    -0.054 A 
HETATM    2  C7  UNL     1       6.544   7.399  21.092  1.00  0.00     0.028 A 
HETATM    3  C8  UNL     1       6.679   6.722  19.901  1.00  0.00     0.039 A 
HETATM    4 BR1  UNL     1       6.957   4.837  19.871  1.00  0.00    -0.049 Br
HETATM    5  C9  UNL     1       6.616   7.400  18.705  1.00  0.00     0.070 A 
HETATM    6  C19 UNL     1       6.415   8.767  18.739  1.00  0.00     0.039 A 
HETATM    7 BR2  UNL     1       6.331   9.687  17.081  1.00  0.00    -0.049 Br
HETATM    8  C20 UNL     1       6.279   9.441  19.957  1.00  0.00     0.028 A 
ENDROOT
BRANCH   5   9
HETATM    9  N3  UNL     1       6.754   6.681  17.502  1.00  0.00    -0.318 N 
HETATM   10  C10 UNL     1       5.661   6.068  16.826  1.00  0.00     0.291 C 
HETATM   11  O1  UNL     1       4.528   6.177  17.326  1.00  0.00    -0.264 OA
ATOM     12  H3  UNL     1       7.686   6.594  17.094  1.00  0.00     0.169 HD
BRANCH  10  13
HETATM   13  C11 UNL     1       5.893   5.343  15.588  1.00  0.00     0.192 A 
HETATM   14  N4  UNL     1       5.696   5.828  14.326  1.00  0.00    -0.332 N 
HETATM   15  C12 UNL     1       6.001   4.893  13.418  1.00  0.00     0.199 A 
ATOM     16  H4  UNL     1       5.364   6.768  14.107  1.00  0.00     0.168 HD
HETATM   17  N5  UNL     1       6.392   3.817  14.104  1.00  0.00    -0.292 N 
HETATM   18  N6  UNL     1       6.327   4.091  15.426  1.00  0.00    -0.271 N 
ATOM     19  H5  UNL     1       6.693   2.931  13.697  1.00  0.00     0.188 HD
BRANCH  18  20
HETATM   20  C13 UNL     1       6.655   3.155  16.470  1.00  0.00     0.152 C 
BRANCH  20  21
HETATM   21  C14 UNL     1       7.755   2.203  16.224  1.00  0.00     0.030 C 
BRANCH  21  22
HETATM   22  C15 UNL     1       8.636   1.862  17.384  1.00  0.00    -0.050 C 
HETATM   23  C16 UNL     1       7.839   1.501  18.625  1.00  0.00     0.014 C 
HETATM   24  C17 UNL     1       9.756   0.927  17.126  1.00  0.00     0.014 C 
HETATM   25  C18 UNL     1       9.317   3.218  17.774  1.00  0.00     0.014 C 
ENDBRANCH  21  22
ENDBRANCH  20  21
ENDBRANCH  18  20
ENDBRANCH  10  13
ENDBRANCH   5   9
BRANCH   1  26
HETATM   26  C5  UNL     1       6.197   9.496  22.430  1.00  0.00     0.069 C 
BRANCH  26  27
HETATM   27  C4  UNL     1       7.409  10.346  22.741  1.00  0.00     0.277 C 
BRANCH  27  28
HETATM   28  N2  UNL     1       8.318   9.723  23.642  1.00  0.00     0.092 N 
HETATM   29  C3  UNL     1       7.701   8.913  24.643  1.00  0.00     0.302 C 
HETATM   30  C2  UNL     1       8.741   8.165  25.442  1.00  0.00     0.302 C 
HETATM   31  N1  UNL     1      10.045   8.755  25.389  1.00  0.00     0.087 N 
HETATM   32  C1  UNL     1      10.963   7.808  26.020  1.00  0.00     0.310 C 
HETATM   33  C22 UNL     1      10.535   8.970  24.045  1.00  0.00     0.302 C 
HETATM   34  C21 UNL     1       9.404   9.014  23.039  1.00  0.00     0.302 C 
ENDBRANCH  27  28
ENDBRANCH  26  27
ENDBRANCH   1  26
TORSDOF 8
ENDMDL
MODEL 3
REMARK VINA RESULT: -7.980950461      2.170      2.816
REMARK  8 active torsions:
REMARK  status: ('A' for Active; 'I' for Inactive)
REMARK    1  A    between atoms: N2_5  and  C4_6 
REMARK    2  A    between atoms: C4_6  and  C5_7 
REMARK    3  A    between atoms: C5_7  and  C6_8 
REMARK    4  A    between atoms: C9_12  and  N3_13 
REMARK       I    between atoms: N3_13  and  C10_15 
REMARK    5  A    between atoms: C10_15  and  C11_17 
REMARK    6  A    between atoms: N6_23  and  C13_24 
REMARK    7  A    between atoms: C13_24  and  C14_25 
REMARK    8  A    between atoms: C14_25  and  C15_26 
ROOT
HETATM    1  C6  UNL     1       5.553   8.416  22.166  1.00  0.00    -0.054 A 
HETATM    2  C7  UNL     1       4.535   7.516  22.406  1.00  0.00     0.028 A 
HETATM    3  C8  UNL     1       4.180   6.537  21.505  1.00  0.00     0.039 A 
HETATM    4 BR1  UNL     1       2.764   5.319  21.889  1.00  0.00    -0.049 Br
HETATM    5  C9  UNL     1       4.846   6.421  20.306  1.00  0.00     0.070 A 
HETATM    6  C19 UNL     1       5.870   7.309  20.039  1.00  0.00     0.039 A 
HETATM    7 BR2  UNL     1       6.779   7.135  18.382  1.00  0.00    -0.049 Br
HETATM    8  C20 UNL     1       6.219   8.298  20.964  1.00  0.00     0.028 A 
ENDROOT
BRANCH   5   9
HETATM    9  N3  UNL     1       4.458   5.412  19.403  1.00  0.00    -0.318 N 
HETATM   10  C10 UNL     1       5.052   4.119  19.371  1.00  0.00     0.291 C 
HETATM   11  O1  UNL     1       5.960   3.871  20.184  1.00  0.00    -0.264 OA
ATOM     12  H3  UNL     1       3.712   5.618  18.737  1.00  0.00     0.169 HD
BRANCH  10  13
HETATM   13  C11 UNL     1       4.591   3.135  18.405  1.00  0.00     0.192 A 
HETATM   14  N4  UNL     1       3.459   2.377  18.511  1.00  0.00    -0.332 N 
HETATM   15  C12 UNL     1       3.342   1.571  17.448  1.00  0.00     0.199 A 
ATOM     16  H4  UNL     1       2.799   2.419  19.287  1.00  0.00     0.168 HD
HETATM   17  N5  UNL     1       4.397   1.820  16.670  1.00  0.00    -0.292 N 
HETATM   18  N6  UNL     1       5.158   2.773  17.252  1.00  0.00    -0.271 N 
ATOM     19  H5  UNL     1       4.597   1.364  15.779  1.00  0.00     0.188 HD
BRANCH  18  20
HETATM   20  C13 UNL     1       6.391   3.278  16.706  1.00  0.00     0.152 C 
BRANCH  20  21
HETATM   21  C14 UNL     1       7.492   2.321  16.484  1.00  0.00     0.030 C 
BRANCH  21  22
HETATM   22  C15 UNL     1       8.539   2.223  17.549  1.00  0.00    -0.050 C 
HETATM   23  C16 UNL     1       8.016   1.561  18.811  1.00  0.00     0.014 C 
HETATM   24  C17 UNL     1       9.869   1.716  17.139  1.00  0.00     0.014 C 
HETATM   25  C18 UNL     1       8.786   3.705  17.994  1.00  0.00     0.014 C 
ENDBRANCH  21  22
ENDBRANCH  20  21
ENDBRANCH  18  20
ENDBRANCH  10  13
ENDBRANCH   5   9
BRANCH   1  26
HETATM   26  C5  UNL     1       5.940   9.469  23.127  1.00  0.00     0.069 C 
BRANCH  26  27
HETATM   27  C4  UNL     1       7.300  10.054  22.815  1.00  0.00     0.277 C 
BRANCH  27  28
HETATM   28  N2  UNL     1       8.332   9.563  23.662  1.00  0.00     0.092 N 
HETATM   29  C3  UNL     1       7.873   8.801  24.779  1.00  0.00     0.302 C 
HETATM   30  C2  UNL     1       9.035   8.185  25.521  1.00  0.00     0.302 C 
HETATM   31  N1  UNL     1      10.285   8.847  25.291  1.00  0.00     0.087 N 
HETATM   32  C1  UNL     1      11.322   8.011  25.893  1.00  0.00     0.310 C 
HETATM   33  C22 UNL     1      10.624   8.980  23.891  1.00  0.00     0.302 C 
HETATM   34  C21 UNL     1       9.400   8.873  23.006  1.00  0.00     0.302 C 
ENDBRANCH  27  28
ENDBRANCH  26  27
ENDBRANCH   1  26
TORSDOF 8
ENDMDL
MODEL 4
REMARK VINA RESULT: -7.947329510      2.172      2.549
REMARK  8 active torsions:
REMARK  status: ('A' for Active; 'I' for Inactive)
REMARK    1  A    between atoms: N2_5  and  C4_6 
REMARK    2  A    between atoms: C4_6  and  C5_7 
REMARK    3  A    between atoms: C5_7  and  C6_8 
REMARK    4  A    between atoms: C9_12  and  N3_13 
REMARK       I    between atoms: N3_13  and  C10_15 
REMARK    5  A    between atoms: C10_15  and  C11_17 
REMARK    6  A    between atoms: N6_23  and  C13_24 
REMARK    7  A    between atoms: C13_24  and  C14_25 
REMARK    8  A    between atoms: C14_25  and  C15_26 
ROOT
HETATM    1  C6  UNL     1       5.569   8.462  22.171  1.00  0.00    -0.054 A 
HETATM    2  C7  UNL     1       6.128   8.326  20.917  1.00  0.00     0.028 A 
HETATM    3  C8  UNL     1       5.744   7.342  20.034  1.00  0.00     0.039 A 
HETATM    4 BR1  UNL     1       6.550   7.200  18.312  1.00  0.00    -0.049 Br
HETATM    5  C9  UNL     1       4.766   6.438  20.383  1.00  0.00     0.070 A 
HETATM    6  C19 UNL     1       4.189   6.550  21.633  1.00  0.00     0.039 A 
HETATM    7 BR2  UNL     1       2.842   5.296  22.098  1.00  0.00    -0.049 Br
HETATM    8  C20 UNL     1       4.589   7.556  22.519  1.00  0.00     0.028 A 
ENDROOT
BRANCH   5   9
HETATM    9  N3  UNL     1       4.397   5.439  19.460  1.00  0.00    -0.318 N 
HETATM   10  C10 UNL     1       5.011   4.156  19.408  1.00  0.00     0.291 C 
HETATM   11  O1  UNL     1       5.919   3.907  20.221  1.00  0.00    -0.264 OA
ATOM     12  H3  UNL     1       3.651   5.647  18.795  1.00  0.00     0.169 HD
BRANCH  10  13
HETATM   13  C11 UNL     1       4.568   3.183  18.423  1.00  0.00     0.192 A 
HETATM   14  N4  UNL     1       3.440   2.416  18.504  1.00  0.00    -0.332 N 
HETATM   15  C12 UNL     1       3.341   1.624  17.429  1.00  0.00     0.199 A 
ATOM     16  H4  UNL     1       2.770   2.443  19.273  1.00  0.00     0.168 HD
HETATM   17  N5  UNL     1       4.404   1.890  16.668  1.00  0.00    -0.292 N 
HETATM   18  N6  UNL     1       5.152   2.840  17.273  1.00  0.00    -0.271 N 
ATOM     19  H5  UNL     1       4.618   1.449  15.773  1.00  0.00     0.188 HD
BRANCH  18  20
HETATM   20  C13 UNL     1       6.388   3.361  16.749  1.00  0.00     0.152 C 
BRANCH  20  21
HETATM   21  C14 UNL     1       7.485   2.408  16.491  1.00  0.00     0.030 C 
BRANCH  21  22
HETATM   22  C15 UNL     1       8.525   2.258  17.556  1.00  0.00    -0.050 C 
HETATM   23  C16 UNL     1       7.976   1.600  18.809  1.00  0.00     0.014 C 
HETATM   24  C17 UNL     1       9.837   1.706  17.142  1.00  0.00     0.014 C 
HETATM   25  C18 UNL     1       8.827   3.724  18.020  1.00  0.00     0.014 C 
ENDBRANCH  21  22
ENDBRANCH  20  21
ENDBRANCH  18  20
ENDBRANCH  10  13
ENDBRANCH   5   9
BRANCH   1  26
HETATM   26  C5  UNL     1       5.975   9.516  23.124  1.00  0.00     0.069 C 
BRANCH  26  27
HETATM   27  C4  UNL     1       7.350  10.066  22.813  1.00  0.00     0.277 C 
BRANCH  27  28
HETATM   28  N2  UNL     1       8.367   9.556  23.667  1.00  0.00     0.092 N 
HETATM   29  C3  UNL     1       7.887   8.796  24.776  1.00  0.00     0.302 C 
HETATM   30  C2  UNL     1       9.033   8.160  25.525  1.00  0.00     0.302 C 
HETATM   31  N1  UNL     1      10.294   8.804  25.310  1.00  0.00     0.087 N 
HETATM   32  C1  UNL     1      11.314   7.950  25.917  1.00  0.00     0.310 C 
HETATM   33  C22 UNL     1      10.648   8.939  23.914  1.00  0.00     0.302 C 
HETATM   34  C21 UNL     1       9.431   8.854  23.017  1.00  0.00     0.302 C 
ENDBRANCH  27  28
ENDBRANCH  26  27
ENDBRANCH   1  26
TORSDOF 8
ENDMDL
MODEL 5
REMARK VINA RESULT: -7.906230289      0.833      1.498
REMARK  8 active torsions:
REMARK  status: ('A' for Active; 'I' for Inactive)
REMARK    1  A    between atoms: N2_5  and  C4_6 
REMARK    2  A    between atoms: C4_6  and  C5_7 
REMARK    3  A    between atoms: C5_7  and  C6_8 
REMARK    4  A    between atoms: C9_12  and  N3_13 
REMARK       I    between atoms: N3_13  and  C10_15 
REMARK    5  A    between atoms: C10_15  and  C11_17 
REMARK    6  A    between atoms: N6_23  and  C13_24 
REMARK    7  A    between atoms: C13_24  and  C14_25 
REMARK    8  A    between atoms: C14_25  and  C15_26 
ROOT
HETATM    1  C6  UNL     1       7.319   8.813  21.627  1.00  0.00    -0.054 A 
HETATM    2  C7  UNL     1       7.257   9.475  20.418  1.00  0.00     0.028 A 
HETATM    3  C8  UNL     1       7.209   8.817  19.210  1.00  0.00     0.039 A 
HETATM    4 BR1  UNL     1       7.124   9.784  17.570  1.00  0.00    -0.049 Br
HETATM    5  C9  UNL     1       7.221   7.441  19.167  1.00  0.00     0.070 A 
HETATM    6  C19 UNL     1       7.282   6.751  20.363  1.00  0.00     0.039 A 
HETATM    7 BR2  UNL     1       7.298   4.854  20.287  1.00  0.00    -0.049 Br
HETATM    8  C20 UNL     1       7.330   7.434  21.582  1.00  0.00     0.028 A 
ENDROOT
BRANCH   5   9
HETATM    9  N3  UNL     1       7.174   6.795  17.917  1.00  0.00    -0.318 N 
HETATM   10  C10 UNL     1       5.974   6.293  17.339  1.00  0.00     0.291 C 
HETATM   11  O1  UNL     1       4.914   6.435  17.974  1.00  0.00    -0.264 OA
ATOM     12  H3  UNL     1       8.046   6.681  17.398  1.00  0.00     0.169 HD
BRANCH  10  13
HETATM   13  C11 UNL     1       6.016   5.638  16.042  1.00  0.00     0.192 A 
HETATM   14  N4  UNL     1       5.878   6.253  14.829  1.00  0.00    -0.332 N 
HETATM   15  C12 UNL     1       5.961   5.351  13.842  1.00  0.00     0.199 A 
ATOM     16  H4  UNL     1       5.734   7.253  14.695  1.00  0.00     0.168 HD
HETATM   17  N5  UNL     1       6.152   4.169  14.429  1.00  0.00    -0.292 N 
HETATM   18  N6  UNL     1       6.186   4.343  15.769  1.00  0.00    -0.271 N 
ATOM     19  H5  UNL     1       6.256   3.277  13.945  1.00  0.00     0.188 HD
BRANCH  18  20
HETATM   20  C13 UNL     1       6.354   3.280  16.726  1.00  0.00     0.152 C 
BRANCH  20  21
HETATM   21  C14 UNL     1       7.340   2.225  16.421  1.00  0.00     0.030 C 
BRANCH  21  22
HETATM   22  C15 UNL     1       8.483   2.062  17.373  1.00  0.00    -0.050 C 
HETATM   23  C16 UNL     1       9.413   0.932  16.969  1.00  0.00     0.014 C 
HETATM   24  C17 UNL     1       9.208   3.292  17.769  1.00  0.00     0.014 C 
HETATM   25  C18 UNL     1       7.824   1.534  18.693  1.00  0.00     0.014 C 
ENDBRANCH  21  22
ENDBRANCH  20  21
ENDBRANCH  18  20
ENDBRANCH  10  13
ENDBRANCH   5   9
BRANCH   1  26
HETATM   26  C5  UNL     1       7.370   9.512  22.927  1.00  0.00     0.069 C 
BRANCH  26  27
HETATM   27  C4  UNL     1       7.421   8.547  24.091  1.00  0.00     0.277 C 
BRANCH  27  28
HETATM   28  N2  UNL     1       8.741   8.302  24.562  1.00  0.00     0.092 N 
HETATM   29  C3  UNL     1       9.733   9.183  24.036  1.00  0.00     0.302 C 
HETATM   30  C2  UNL     1      11.063   8.957  24.714  1.00  0.00     0.302 C 
HETATM   31  N1  UNL     1      11.188   7.669  25.330  1.00  0.00     0.087 N 
HETATM   32  C1  UNL     1      12.421   7.693  26.114  1.00  0.00     0.310 C 
HETATM   33  C22 UNL     1      10.118   7.358  26.253  1.00  0.00     0.302 C 
HETATM   34  C21 UNL     1       8.885   8.194  25.982  1.00  0.00     0.302 C 
ENDBRANCH  27  28
ENDBRANCH  26  27
ENDBRANCH   1  26
TORSDOF 8
ENDMDL
