MODEL 1
REMARK VINA RESULT: -8.180124551      0.000      0.000
REMARK  10 active torsions:
REMARK  status: ('A' for Active; 'I' for Inactive)
REMARK    1  A    between atoms: C4_4  and  O1_5 
REMARK    2  A    between atoms: O1_5  and  C5_6 
REMARK       I    between atoms: N1_11  and  C10_12 
REMARK    3  A    between atoms: C10_12  and  O3_14 
REMARK    4  A    between atoms: O3_14  and  C11_15 
REMARK    5  A    between atoms: C11_15  and  C12_16 
REMARK    6  A    between atoms: C20_29  and  N4_30 
REMARK    7  A    between atoms: N4_30  and  C21_32 
REMARK    8  A    between atoms: C21_32  and  C22_33 
REMARK    9  A    between atoms: C22_33  and  C23_34 
REMARK   10  A    between atoms: C23_34  and  N5_35 
ROOT
HETATM    1  C1  UNL     1       6.141   4.085  14.879  1.00  0.00     0.049 C 
HETATM    2  C2  UNL     1       6.591   4.125  16.270  1.00  0.00    -0.044 A 
HETATM    3  C3  UNL     1       6.170   5.107  17.157  1.00  0.00     0.044 A 
HETATM    4  C4  UNL     1       6.540   5.212  18.471  1.00  0.00     0.072 A 
HETATM    5  C15 UNL     1       7.400   4.270  18.961  1.00  0.00     0.067 A 
HETATM    6  C16 UNL     1       7.861   3.254  18.120  1.00  0.00     0.047 A 
HETATM    7  N2  UNL     1       8.709   2.347  18.685  1.00  0.00    -0.364 N 
ATOM      8  H2  UNL     1       8.983   2.429  19.664  1.00  0.00     0.165 HD
HETATM    9  C17 UNL     1       9.173   1.355  17.931  1.00  0.00     0.113 A 
HETATM   10  C18 UNL     1       8.826   1.212  16.608  1.00  0.00     0.087 A 
HETATM   11  C19 UNL     1       9.358   0.104  15.846  1.00  0.00     0.103 C 
HETATM   12  N3  UNL     1       9.795  -0.786  15.272  1.00  0.00    -0.191 NA
HETATM   13  C20 UNL     1       7.963   2.128  16.025  1.00  0.00     0.067 A 
HETATM   14  C29 UNL     1       7.470   3.181  16.819  1.00  0.00     0.025 A 
ENDROOT
BRANCH  13  15
HETATM   15  N4  UNL     1       7.598   2.080  14.857  1.00  0.00    -0.367 N 
ATOM     16  H4  UNL     1       7.887   2.961  14.433  1.00  0.00     0.165 HD
BRANCH  15  17
HETATM   17  C21 UNL     1       6.973   1.366  13.866  1.00  0.00     0.066 C 
BRANCH  17  18
HETATM   18  C22 UNL     1       5.912   0.381  14.330  1.00  0.00     0.089 C 
BRANCH  18  19
HETATM   19  C23 UNL     1       5.364  -0.462  13.203  1.00  0.00     0.073 C 
BRANCH  19  20
HETATM   20  N5  UNL     1       6.196  -1.509  12.766  1.00  0.00    -0.351 N 
HETATM   21  C24 UNL     1       6.756  -2.339  13.751  1.00  0.00     0.098 C 
HETATM   22  C25 UNL     1       7.416  -3.593  13.317  1.00  0.00     0.317 C 
HETATM   23  N6  UNL     1       7.190  -3.998  11.964  1.00  0.00     0.093 N 
HETATM   24  C26 UNL     1       6.041  -4.853  11.876  1.00  0.00     0.310 C 
HETATM   25  C27 UNL     1       7.186  -2.921  11.026  1.00  0.00     0.317 C 
HETATM   26  C28 UNL     1       6.155  -1.921  11.428  1.00  0.00     0.098 C 
ENDBRANCH  19  20
ENDBRANCH  18  19
ENDBRANCH  17  18
ENDBRANCH  15  17
ENDBRANCH  13  15
BRANCH   4  27
HETATM   27  O1  UNL     1       6.051   6.250  19.287  1.00  0.00    -0.338 OA
BRANCH  27  28
HETATM   28  C5  UNL     1       6.774   7.393  19.637  1.00  0.00     0.084 C 
HETATM   29  C6  UNL     1       8.244   7.318  19.354  1.00  0.00     0.041 C 
HETATM   30  C7  UNL     1       8.707   8.716  19.001  1.00  0.00     0.009 C 
HETATM   31  C8  UNL     1       7.476   9.571  19.086  1.00  0.00     0.007 C 
HETATM   32  C9  UNL     1       7.267  10.071  20.491  1.00  0.00     0.133 C 
HETATM   33  C14 UNL     1       6.359   8.582  18.808  1.00  0.00     0.046 C 
HETATM   34  N1  UNL     1       7.372   8.926  21.388  1.00  0.00    -0.325 N 
HETATM   35  C10 UNL     1       8.229   9.007  22.510  1.00  0.00     0.363 C 
HETATM   36  C13 UNL     1       6.583   7.742  21.091  1.00  0.00     0.166 C 
HETATM   37  O2  UNL     1       8.881  10.061  22.699  1.00  0.00    -0.238 OA
BRANCH  35  38
HETATM   38  O3  UNL     1       8.382   7.973  23.412  1.00  0.00    -0.298 OA
BRANCH  38  39
HETATM   39  C11 UNL     1       8.372   8.185  24.821  1.00  0.00     0.251 C 
BRANCH  39  40
HETATM   40  C12 UNL     1       9.758   8.158  25.378  1.00  0.00     0.377 C 
HETATM   41  F1  UNL     1      10.222   9.459  25.521  1.00  0.00    -0.212 F 
HETATM   42  F2  UNL     1       9.768   7.549  26.614  1.00  0.00    -0.212 F 
ENDBRANCH  39  40
ENDBRANCH  38  39
ENDBRANCH  35  38
ENDBRANCH  27  28
ENDBRANCH   4  27
TORSDOF 10
ENDMDL
MODEL 2
REMARK VINA RESULT: -8.145920460      4.107     10.484
REMARK  10 active torsions:
REMARK  status: ('A' for Active; 'I' for Inactive)
REMARK    1  A    between atoms: C4_4  and  O1_5 
REMARK    2  A    between atoms: O1_5  and  C5_6 
REMARK       I    between atoms: N1_11  and  C10_12 
REMARK    3  A    between atoms: C10_12  and  O3_14 
REMARK    4  A    between atoms: O3_14  and  C11_15 
REMARK    5  A    between atoms: C11_15  and  C12_16 
REMARK    6  A    between atoms: C20_29  and  N4_30 
REMARK    7  A    between atoms: N4_30  and  C21_32 
REMARK    8  A    between atoms: C21_32  and  C22_33 
REMARK    9  A    between atoms: C22_33  and  C23_34 
REMARK   10  A    between atoms: C23_34  and  N5_35 
ROOT
HETATM    1  C1  UNL     1       4.662   6.202  21.679  1.00  0.00     0.049 C 
HETATM    2  C2  UNL     1       5.592   6.436  20.574  1.00  0.00    -0.044 A 
HETATM    3  C3  UNL     1       5.355   5.956  19.292  1.00  0.00     0.044 A 
HETATM    4  C4  UNL     1       6.169   6.135  18.206  1.00  0.00     0.072 A 
HETATM    5  C15 UNL     1       7.320   6.849  18.392  1.00  0.00     0.067 A 
HETATM    6  C16 UNL     1       7.617   7.360  19.658  1.00  0.00     0.047 A 
HETATM    7  N2  UNL     1       8.779   8.067  19.761  1.00  0.00    -0.364 N 
ATOM      8  H2  UNL     1       9.383   8.198  18.950  1.00  0.00     0.165 HD
HETATM    9  C17 UNL     1       9.107   8.582  20.942  1.00  0.00     0.113 A 
HETATM   10  C18 UNL     1       8.317   8.427  22.057  1.00  0.00     0.087 A 
HETATM   11  C19 UNL     1       8.727   9.021  23.311  1.00  0.00     0.103 C 
HETATM   12  N3  UNL     1       9.080   9.507  24.287  1.00  0.00    -0.191 NA
HETATM   13  C20 UNL     1       7.134   7.710  21.962  1.00  0.00     0.067 A 
HETATM   14  C29 UNL     1       6.782   7.163  20.714  1.00  0.00     0.025 A 
ENDROOT
BRANCH  13  15
HETATM   15  N4  UNL     1       6.368   7.522  22.900  1.00  0.00    -0.367 N 
ATOM     16  H4  UNL     1       6.361   6.516  23.063  1.00  0.00     0.165 HD
BRANCH  15  17
HETATM   17  C21 UNL     1       5.516   8.066  23.827  1.00  0.00     0.066 C 
BRANCH  17  18
HETATM   18  C22 UNL     1       5.230   9.550  23.672  1.00  0.00     0.089 C 
BRANCH  18  19
HETATM   19  C23 UNL     1       4.238   9.843  22.570  1.00  0.00     0.073 C 
BRANCH  19  20
HETATM   20  N5  UNL     1       4.796  10.126  21.309  1.00  0.00    -0.351 N 
HETATM   21  C24 UNL     1       4.022   9.817  20.179  1.00  0.00     0.098 C 
HETATM   22  C25 UNL     1       4.464  10.337  18.864  1.00  0.00     0.317 C 
HETATM   23  N6  UNL     1       5.484  11.339  18.884  1.00  0.00     0.093 N 
HETATM   24  C26 UNL     1       4.905  12.651  18.941  1.00  0.00     0.310 C 
HETATM   25  C27 UNL     1       6.505  11.112  19.857  1.00  0.00     0.317 C 
HETATM   26  C28 UNL     1       5.882  11.004  21.208  1.00  0.00     0.098 C 
ENDBRANCH  19  20
ENDBRANCH  18  19
ENDBRANCH  17  18
ENDBRANCH  15  17
ENDBRANCH  13  15
BRANCH   4  27
HETATM   27  O1  UNL     1       5.833   5.606  16.946  1.00  0.00    -0.338 OA
BRANCH  27  28
HETATM   28  C5  UNL     1       5.682   4.245  16.670  1.00  0.00     0.084 C 
HETATM   29  C6  UNL     1       5.912   3.337  17.840  1.00  0.00     0.041 C 
HETATM   30  C7  UNL     1       4.993   2.144  17.672  1.00  0.00     0.009 C 
HETATM   31  C8  UNL     1       4.245   2.400  16.396  1.00  0.00     0.007 C 
HETATM   32  C9  UNL     1       5.016   1.885  15.210  1.00  0.00     0.133 C 
HETATM   33  C14 UNL     1       4.259   3.915  16.296  1.00  0.00     0.046 C 
HETATM   34  N1  UNL     1       6.382   2.385  15.319  1.00  0.00    -0.325 N 
HETATM   35  C10 UNL     1       7.460   1.477  15.203  1.00  0.00     0.363 C 
HETATM   36  C13 UNL     1       6.580   3.808  15.540  1.00  0.00     0.166 C 
HETATM   37  O2  UNL     1       7.210   0.263  15.016  1.00  0.00    -0.238 OA
BRANCH  35  38
HETATM   38  O3  UNL     1       8.781   1.868  15.286  1.00  0.00    -0.298 OA
BRANCH  38  39
HETATM   39  C11 UNL     1       9.715   1.219  16.144  1.00  0.00     0.251 C 
BRANCH  39  40
HETATM   40  C12 UNL     1       9.648   1.773  17.530  1.00  0.00     0.377 C 
HETATM   41  F1  UNL     1       9.265   3.107  17.474  1.00  0.00    -0.212 F 
HETATM   42  F2  UNL     1       8.723   1.081  18.281  1.00  0.00    -0.212 F 
ENDBRANCH  39  40
ENDBRANCH  38  39
ENDBRANCH  35  38
ENDBRANCH  27  28
ENDBRANCH   4  27
TORSDOF 10
ENDMDL
MODEL 3
REMARK VINA RESULT: -8.135874263      1.688      2.899
REMARK  10 active torsions:
REMARK  status: ('A' for Active; 'I' for Inactive)
REMARK    1  A    between atoms: C4_4  and  O1_5 
REMARK    2  A    between atoms: O1_5  and  C5_6 
REMARK       I    between atoms: N1_11  and  C10_12 
REMARK    3  A    between atoms: C10_12  and  O3_14 
REMARK    4  A    between atoms: O3_14  and  C11_15 
REMARK    5  A    between atoms: C11_15  and  C12_16 
REMARK    6  A    between atoms: C20_29  and  N4_30 
REMARK    7  A    between atoms: N4_30  and  C21_32 
REMARK    8  A    between atoms: C21_32  and  C22_33 
REMARK    9  A    between atoms: C22_33  and  C23_34 
REMARK   10  A    between atoms: C23_34  and  N5_35 
ROOT
HETATM    1  C1  UNL     1       9.027   3.294  17.905  1.00  0.00     0.049 C 
HETATM    2  C2  UNL     1       7.733   3.973  17.989  1.00  0.00    -0.044 A 
HETATM    3  C3  UNL     1       7.415   4.832  19.032  1.00  0.00     0.044 A 
HETATM    4  C4  UNL     1       6.233   5.507  19.182  1.00  0.00     0.072 A 
HETATM    5  C15 UNL     1       5.276   5.323  18.222  1.00  0.00     0.067 A 
HETATM    6  C16 UNL     1       5.535   4.471  17.146  1.00  0.00     0.047 A 
HETATM    7  N2  UNL     1       4.534   4.345  16.228  1.00  0.00    -0.364 N 
ATOM      8  H2  UNL     1       3.655   4.848  16.342  1.00  0.00     0.165 HD
HETATM    9  C17 UNL     1       4.730   3.551  15.179  1.00  0.00     0.113 A 
HETATM   10  C18 UNL     1       5.902   2.857  14.990  1.00  0.00     0.087 A 
HETATM   11  C19 UNL     1       6.054   2.017  13.823  1.00  0.00     0.103 C 
HETATM   12  N3  UNL     1       6.143   1.363  12.886  1.00  0.00    -0.191 NA
HETATM   13  C20 UNL     1       6.925   2.979  15.919  1.00  0.00     0.067 A 
HETATM   14  C29 UNL     1       6.723   3.817  17.031  1.00  0.00     0.025 A 
ENDROOT
BRANCH  13  15
HETATM   15  N4  UNL     1       8.002   2.401  15.833  1.00  0.00    -0.367 N 
ATOM     16  H4  UNL     1       8.564   2.730  16.617  1.00  0.00     0.165 HD
BRANCH  15  17
HETATM   17  C21 UNL     1       8.787   1.508  15.149  1.00  0.00     0.066 C 
BRANCH  17  18
HETATM   18  C22 UNL     1       8.663   0.055  15.577  1.00  0.00     0.089 C 
BRANCH  18  19
HETATM   19  C23 UNL     1       9.990  -0.669  15.585  1.00  0.00     0.073 C 
BRANCH  19  20
HETATM   20  N5  UNL     1       9.967  -1.986  15.090  1.00  0.00    -0.351 N 
HETATM   21  C24 UNL     1       8.724  -2.499  14.683  1.00  0.00     0.098 C 
HETATM   22  C25 UNL     1       8.706  -3.770  13.922  1.00  0.00     0.317 C 
HETATM   23  N6  UNL     1       9.965  -4.232  13.423  1.00  0.00     0.093 N 
HETATM   24  C26 UNL     1      10.204  -3.722  12.102  1.00  0.00     0.310 C 
HETATM   25  C27 UNL     1      11.056  -4.042  14.324  1.00  0.00     0.317 C 
HETATM   26  C28 UNL     1      11.157  -2.596  14.677  1.00  0.00     0.098 C 
ENDBRANCH  19  20
ENDBRANCH  18  19
ENDBRANCH  17  18
ENDBRANCH  15  17
ENDBRANCH  13  15
BRANCH   4  27
HETATM   27  O1  UNL     1       6.011   6.359  20.280  1.00  0.00    -0.338 OA
BRANCH  27  28
HETATM   28  C5  UNL     1       6.758   7.506  20.559  1.00  0.00     0.084 C 
HETATM   29  C6  UNL     1       8.171   7.473  20.059  1.00  0.00     0.041 C 
HETATM   30  C7  UNL     1       8.551   8.893  19.691  1.00  0.00     0.009 C 
HETATM   31  C8  UNL     1       7.332   9.717  19.988  1.00  0.00     0.007 C 
HETATM   32  C9  UNL     1       7.325  10.166  21.424  1.00  0.00     0.133 C 
HETATM   33  C14 UNL     1       6.203   8.712  19.844  1.00  0.00     0.046 C 
HETATM   34  N1  UNL     1       7.583   8.995  22.255  1.00  0.00    -0.325 N 
HETATM   35  C10 UNL     1       8.596   9.058  23.240  1.00  0.00     0.363 C 
HETATM   36  C13 UNL     1       6.779   7.804  22.037  1.00  0.00     0.166 C 
HETATM   37  O2  UNL     1       9.251  10.120  23.367  1.00  0.00    -0.238 OA
BRANCH  35  38
HETATM   38  O3  UNL     1       8.899   8.000  24.072  1.00  0.00    -0.298 OA
BRANCH  38  39
HETATM   39  C11 UNL     1       9.132   8.171  25.467  1.00  0.00     0.251 C 
BRANCH  39  40
HETATM   40  C12 UNL     1      10.510   7.730  25.841  1.00  0.00     0.377 C 
HETATM   41  F1  UNL     1      11.421   8.714  25.479  1.00  0.00    -0.212 F 
HETATM   42  F2  UNL     1      10.598   7.527  27.201  1.00  0.00    -0.212 F 
ENDBRANCH  39  40
ENDBRANCH  38  39
ENDBRANCH  35  38
ENDBRANCH  27  28
ENDBRANCH   4  27
TORSDOF 10
ENDMDL
MODEL 4
REMARK VINA RESULT: -8.127999015      4.402     10.630
REMARK  10 active torsions:
REMARK  status: ('A' for Active; 'I' for Inactive)
REMARK    1  A    between atoms: C4_4  and  O1_5 
REMARK    2  A    between atoms: O1_5  and  C5_6 
REMARK       I    between atoms: N1_11  and  C10_12 
REMARK    3  A    between atoms: C10_12  and  O3_14 
REMARK    4  A    between atoms: O3_14  and  C11_15 
REMARK    5  A    between atoms: C11_15  and  C12_16 
REMARK    6  A    between atoms: C20_29  and  N4_30 
REMARK    7  A    between atoms: N4_30  and  C21_32 
REMARK    8  A    between atoms: C21_32  and  C22_33 
REMARK    9  A    between atoms: C22_33  and  C23_34 
REMARK   10  A    between atoms: C23_34  and  N5_35 
ROOT
HETATM    1  C1  UNL     1       4.741   8.487  17.993  1.00  0.00     0.049 C 
HETATM    2  C2  UNL     1       5.610   7.752  18.913  1.00  0.00    -0.044 A 
HETATM    3  C3  UNL     1       5.661   6.365  18.934  1.00  0.00     0.044 A 
HETATM    4  C4  UNL     1       6.447   5.605  19.759  1.00  0.00     0.072 A 
HETATM    5  C15 UNL     1       7.256   6.264  20.643  1.00  0.00     0.067 A 
HETATM    6  C16 UNL     1       7.251   7.660  20.671  1.00  0.00     0.047 A 
HETATM    7  N2  UNL     1       8.090   8.244  21.574  1.00  0.00    -0.364 N 
ATOM      8  H2  UNL     1       8.674   7.675  22.187  1.00  0.00     0.165 HD
HETATM    9  C17 UNL     1       8.131   9.572  21.639  1.00  0.00     0.113 A 
HETATM   10  C18 UNL     1       7.360  10.371  20.828  1.00  0.00     0.087 A 
HETATM   11  C19 UNL     1       7.459  11.810  20.943  1.00  0.00     0.103 C 
HETATM   12  N3  UNL     1       7.563  12.945  21.058  1.00  0.00    -0.191 NA
HETATM   13  C20 UNL     1       6.504   9.787  19.907  1.00  0.00     0.067 A 
HETATM   14  C29 UNL     1       6.457   8.383  19.835  1.00  0.00     0.025 A 
ENDROOT
BRANCH  13  15
HETATM   15  N4  UNL     1       5.782  10.419  19.145  1.00  0.00    -0.367 N 
ATOM     16  H4  UNL     1       6.165  10.280  18.211  1.00  0.00     0.165 HD
BRANCH  15  17
HETATM   17  C21 UNL     1       4.686  11.230  18.991  1.00  0.00     0.066 C 
BRANCH  17  18
HETATM   18  C22 UNL     1       3.848  11.453  20.240  1.00  0.00     0.089 C 
BRANCH  18  19
HETATM   19  C23 UNL     1       3.000  10.254  20.597  1.00  0.00     0.073 C 
BRANCH  19  20
HETATM   20  N5  UNL     1       3.522   9.418  21.602  1.00  0.00    -0.351 N 
HETATM   21  C24 UNL     1       4.190  10.037  22.671  1.00  0.00     0.098 C 
HETATM   22  C25 UNL     1       4.516   9.218  23.861  1.00  0.00     0.317 C 
HETATM   23  N6  UNL     1       3.884   7.937  23.947  1.00  0.00     0.093 N 
HETATM   24  C26 UNL     1       2.637   8.034  24.651  1.00  0.00     0.310 C 
HETATM   25  C27 UNL     1       3.795   7.246  22.700  1.00  0.00     0.317 C 
HETATM   26  C28 UNL     1       3.068   8.098  21.715  1.00  0.00     0.098 C 
ENDBRANCH  19  20
ENDBRANCH  18  19
ENDBRANCH  17  18
ENDBRANCH  15  17
ENDBRANCH  13  15
BRANCH   4  27
HETATM   27  O1  UNL     1       6.424   4.199  19.698  1.00  0.00    -0.338 OA
BRANCH  27  28
HETATM   28  C5  UNL     1       7.012   3.438  18.685  1.00  0.00     0.084 C 
HETATM   29  C6  UNL     1       8.149   4.108  17.975  1.00  0.00     0.041 C 
HETATM   30  C7  UNL     1       9.130   3.025  17.572  1.00  0.00     0.009 C 
HETATM   31  C8  UNL     1       8.527   1.744  18.069  1.00  0.00     0.007 C 
HETATM   32  C9  UNL     1       7.579   1.166  17.053  1.00  0.00     0.133 C 
HETATM   33  C14 UNL     1       7.678   2.204  19.240  1.00  0.00     0.046 C 
HETATM   34  N1  UNL     1       6.677   2.233  16.633  1.00  0.00    -0.325 N 
HETATM   35  C10 UNL     1       6.494   2.477  15.252  1.00  0.00     0.363 C 
HETATM   36  C13 UNL     1       5.996   3.003  17.660  1.00  0.00     0.166 C 
HETATM   37  O2  UNL     1       7.119   1.773  14.425  1.00  0.00    -0.238 OA
BRANCH  35  38
HETATM   38  O3  UNL     1       5.654   3.460  14.770  1.00  0.00    -0.298 OA
BRANCH  38  39
HETATM   39  C11 UNL     1       6.080   4.424  13.811  1.00  0.00     0.251 C 
BRANCH  39  40
HETATM   40  C12 UNL     1       5.804   5.813  14.285  1.00  0.00     0.377 C 
HETATM   41  F1  UNL     1       6.162   5.922  15.622  1.00  0.00    -0.212 F 
HETATM   42  F2  UNL     1       6.538   6.724  13.557  1.00  0.00    -0.212 F 
ENDBRANCH  39  40
ENDBRANCH  38  39
ENDBRANCH  35  38
ENDBRANCH  27  28
ENDBRANCH   4  27
TORSDOF 10
ENDMDL
MODEL 5
REMARK VINA RESULT: -8.100052218      2.992      5.173
REMARK  10 active torsions:
REMARK  status: ('A' for Active; 'I' for Inactive)
REMARK    1  A    between atoms: C4_4  and  O1_5 
REMARK    2  A    between atoms: O1_5  and  C5_6 
REMARK       I    between atoms: N1_11  and  C10_12 
REMARK    3  A    between atoms: C10_12  and  O3_14 
REMARK    4  A    between atoms: O3_14  and  C11_15 
REMARK    5  A    between atoms: C11_15  and  C12_16 
REMARK    6  A    between atoms: C20_29  and  N4_30 
REMARK    7  A    between atoms: N4_30  and  C21_32 
REMARK    8  A    between atoms: C21_32  and  C22_33 
REMARK    9  A    between atoms: C22_33  and  C23_34 
REMARK   10  A    between atoms: C23_34  and  N5_35 
ROOT
HETATM    1  C1  UNL     1       4.710   6.479  16.228  1.00  0.00     0.049 C 
HETATM    2  C2  UNL     1       5.856   6.417  17.137  1.00  0.00    -0.044 A 
HETATM    3  C3  UNL     1       6.181   7.465  17.988  1.00  0.00     0.044 A 
HETATM    4  C4  UNL     1       7.230   7.485  18.869  1.00  0.00     0.072 A 
HETATM    5  C15 UNL     1       8.032   6.379  18.919  1.00  0.00     0.067 A 
HETATM    6  C16 UNL     1       7.758   5.291  18.088  1.00  0.00     0.047 A 
HETATM    7  N2  UNL     1       8.598   4.223  18.202  1.00  0.00    -0.364 N 
ATOM      8  H2  UNL     1       9.379   4.241  18.858  1.00  0.00     0.165 HD
HETATM    9  C17 UNL     1       8.378   3.156  17.439  1.00  0.00     0.113 A 
HETATM   10  C18 UNL     1       7.336   3.094  16.543  1.00  0.00     0.087 A 
HETATM   11  C19 UNL     1       7.148   1.900  15.749  1.00  0.00     0.103 C 
HETATM   12  N3  UNL     1       7.025   0.939  15.138  1.00  0.00    -0.191 NA
HETATM   13  C20 UNL     1       6.477   4.175  16.420  1.00  0.00     0.067 A 
HETATM   14  C29 UNL     1       6.705   5.306  17.225  1.00  0.00     0.025 A 
ENDROOT
BRANCH  13  15
HETATM   15  N4  UNL     1       5.523   4.209  15.652  1.00  0.00    -0.367 N 
ATOM     16  H4  UNL     1       5.567   5.113  15.184  1.00  0.00     0.165 HD
BRANCH  15  17
HETATM   17  C21 UNL     1       4.421   3.569  15.143  1.00  0.00     0.066 C 
BRANCH  17  18
HETATM   18  C22 UNL     1       3.285   3.328  16.123  1.00  0.00     0.089 C 
BRANCH  18  19
HETATM   19  C23 UNL     1       3.665   2.385  17.240  1.00  0.00     0.073 C 
BRANCH  19  20
HETATM   20  N5  UNL     1       4.137   2.995  18.417  1.00  0.00    -0.351 N 
HETATM   21  C24 UNL     1       3.449   4.131  18.873  1.00  0.00     0.098 C 
HETATM   22  C25 UNL     1       3.753   4.635  20.232  1.00  0.00     0.317 C 
HETATM   23  N6  UNL     1       4.516   3.769  21.078  1.00  0.00     0.093 N 
HETATM   24  C26 UNL     1       3.651   2.920  21.846  1.00  0.00     0.310 C 
HETATM   25  C27 UNL     1       5.566   3.073  20.405  1.00  0.00     0.317 C 
HETATM   26  C28 UNL     1       4.991   2.290  19.274  1.00  0.00     0.098 C 
ENDBRANCH  19  20
ENDBRANCH  18  19
ENDBRANCH  17  18
ENDBRANCH  15  17
ENDBRANCH  13  15
BRANCH   4  27
HETATM   27  O1  UNL     1       7.472   8.601  19.691  1.00  0.00    -0.338 OA
BRANCH  27  28
HETATM   28  C5  UNL     1       7.084   8.701  21.029  1.00  0.00     0.084 C 
HETATM   29  C6  UNL     1       6.958  10.103  21.544  1.00  0.00     0.041 C 
HETATM   30  C7  UNL     1       5.846  10.106  22.573  1.00  0.00     0.009 C 
HETATM   31  C8  UNL     1       5.351   8.690  22.623  1.00  0.00     0.007 C 
HETATM   32  C9  UNL     1       6.157   7.874  23.599  1.00  0.00     0.133 C 
HETATM   33  C14 UNL     1       5.690   8.166  21.239  1.00  0.00     0.046 C 
HETATM   34  N1  UNL     1       7.568   8.100  23.305  1.00  0.00    -0.325 N 
HETATM   35  C10 UNL     1       8.441   8.460  24.357  1.00  0.00     0.363 C 
HETATM   36  C13 UNL     1       8.021   7.940  21.934  1.00  0.00     0.166 C 
HETATM   37  O2  UNL     1       7.976   8.582  25.515  1.00  0.00    -0.238 OA
BRANCH  35  38
HETATM   38  O3  UNL     1       9.790   8.684  24.168  1.00  0.00    -0.298 OA
BRANCH  38  39
HETATM   39  C11 UNL     1      10.676   8.957  25.249  1.00  0.00     0.251 C 
BRANCH  39  40
HETATM   40  C12 UNL     1      11.232   7.694  25.822  1.00  0.00     0.377 C 
HETATM   41  F1  UNL     1      12.609   7.676  25.646  1.00  0.00    -0.212 F 
HETATM   42  F2  UNL     1      10.958   7.617  27.170  1.00  0.00    -0.212 F 
ENDBRANCH  39  40
ENDBRANCH  38  39
ENDBRANCH  35  38
ENDBRANCH  27  28
ENDBRANCH   4  27
TORSDOF 10
ENDMDL
