MODEL 1
REMARK VINA RESULT: -9.164254679      0.000      0.000
REMARK  12 active torsions:
REMARK  status: ('A' for Active; 'I' for Inactive)
REMARK    1  A    between atoms: N1_1  and  C1_4 
REMARK    2  A    between atoms: N3_11  and  C4_12 
REMARK    3  A    between atoms: C4_12  and  C5_13 
REMARK    4  A    between atoms: C4_12  and  C6_16 
REMARK    5  A    between atoms: C5_13  and  O3_14 
REMARK    6  A    between atoms: C8_20  and  N4_21 
REMARK    7  A    between atoms: N5_24  and  C9_25 
REMARK    8  A    between atoms: C9_25  and  C10_26 
REMARK    9  A    between atoms: C12_32  and  C13_33 
REMARK   10  A    between atoms: C13_33  and  O8_34 
REMARK   11  A    between atoms: C13_33  and  O9_36 
REMARK   12  A    between atoms: C14_38  and  O10_39 
ROOT
HETATM    1  C1  UNL     1      81.864  49.138   4.882  1.00  0.00     0.682 A 
HETATM    2  N2  UNL     1      82.885  49.697   4.238  1.00  0.00    -0.168 N 
ATOM      3  H2  UNL     1      83.071  50.687   4.395  1.00  0.00     0.186 HD
HETATM    4  C2  UNL     1      83.686  49.025   3.390  1.00  0.00     0.198 A 
HETATM    5  O1  UNL     1      84.717  49.342   2.663  1.00  0.00    -0.241 OA
HETATM    6  C3  UNL     1      85.140  48.271   1.992  1.00  0.00     0.375 A 
HETATM    7  O2  UNL     1      86.124  48.262   1.201  1.00  0.00    -0.237 OA
HETATM    8  N3  UNL     1      84.377  47.200   2.271  1.00  0.00    -0.269 N 
HETATM    9  C7  UNL     1      83.445  47.672   3.163  1.00  0.00     0.137 A 
HETATM   10  C8  UNL     1      82.383  47.126   3.841  1.00  0.00     0.149 A 
HETATM   11  N5  UNL     1      81.605  47.834   4.682  1.00  0.00    -0.161 N 
ENDROOT
BRANCH  11  12
HETATM   12  C9  UNL     1      80.517  47.204   5.336  1.00  0.00     0.209 C 
BRANCH  12  13
HETATM   13  C10 UNL     1      79.311  46.888   4.592  1.00  0.00     0.069 A 
HETATM   14  N6  UNL     1      78.295  46.362   5.313  1.00  0.00    -0.302 N 
HETATM   15  C11 UNL     1      77.141  46.039   4.715  1.00  0.00     0.370 A 
ATOM     16  H6  UNL     1      78.409  46.211   6.316  1.00  0.00     0.171 HD
HETATM   17  O6  UNL     1      76.216  45.547   5.435  1.00  0.00    -0.238 OA
HETATM   18  O7  UNL     1      76.985  46.229   3.434  1.00  0.00    -0.258 OA
HETATM   19  C12 UNL     1      77.935  46.744   2.649  1.00  0.00     0.147 A 
HETATM   20  C14 UNL     1      79.125  47.080   3.243  1.00  0.00     0.125 A 
BRANCH  19  21
HETATM   21  C13 UNL     1      77.630  46.918   1.194  1.00  0.00     0.316 C 
BRANCH  21  22
HETATM   22  O8  UNL     1      78.580  46.455   0.337  1.00  0.00    -0.365 OA
ATOM     23  H8  UNL     1      78.372  46.535  -0.587  1.00  0.00     0.213 HD
ENDBRANCH  21  22
BRANCH  21  24
HETATM   24  O9  UNL     1      77.468  48.282   0.955  1.00  0.00    -0.365 OA
ATOM     25  H9  UNL     1      76.553  48.494   1.099  1.00  0.00     0.213 HD
ENDBRANCH  21  24
ENDBRANCH  19  21
BRANCH  20  26
HETATM   26  O10 UNL     1      80.134  47.609   2.470  1.00  0.00    -0.356 OA
ATOM     27  H10 UNL     1      80.022  47.702   1.531  1.00  0.00     0.218 HD
ENDBRANCH  20  26
ENDBRANCH  12  13
ENDBRANCH  11  12
BRANCH   1  28
HETATM   28  N1  UNL     1      81.103  49.840   5.699  1.00  0.00    -0.234 N 
ATOM     29  H12 UNL     1      81.384  50.783   5.970  1.00  0.00     0.174 HD
ATOM     30  H11 UNL     1      80.236  49.458   6.076  1.00  0.00     0.174 HD
ENDBRANCH   1  28
BRANCH  10  31
HETATM   31  N4  UNL     1      82.158  45.867   3.630  1.00  0.00    -0.383 N 
ATOM     32  H42 UNL     1      82.916  45.186   3.679  1.00  0.00     0.157 HD
ATOM     33  H41 UNL     1      81.194  45.613   3.418  1.00  0.00     0.157 HD
ENDBRANCH  10  31
BRANCH   8  34
HETATM   34  C4  UNL     1      84.416  45.843   1.820  1.00  0.00     0.220 C 
BRANCH  34  35
HETATM   35  C5  UNL     1      85.524  45.652   0.792  1.00  0.00     0.201 C 
BRANCH  35  36
HETATM   36  O3  UNL     1      85.081  46.078  -0.473  1.00  0.00    -0.398 OA
ATOM     37  H3  UNL     1      85.801  46.055  -1.092  1.00  0.00     0.209 HD
ENDBRANCH  35  36
ENDBRANCH  34  35
BRANCH  34  38
HETATM   38  C6  UNL     1      84.776  44.908   2.953  1.00  0.00     0.199 C 
HETATM   39  O4  UNL     1      85.679  45.206   3.755  1.00  0.00    -0.646 OA
HETATM   40  O5  UNL     1      84.100  43.717   3.100  1.00  0.00    -0.646 OA
ENDBRANCH  34  38
ENDBRANCH   8  34
TORSDOF 12
ENDMDL
MODEL 2
REMARK VINA RESULT: -8.795751833      1.357      2.148
REMARK  12 active torsions:
REMARK  status: ('A' for Active; 'I' for Inactive)
REMARK    1  A    between atoms: N1_1  and  C1_4 
REMARK    2  A    between atoms: N3_11  and  C4_12 
REMARK    3  A    between atoms: C4_12  and  C5_13 
REMARK    4  A    between atoms: C4_12  and  C6_16 
REMARK    5  A    between atoms: C5_13  and  O3_14 
REMARK    6  A    between atoms: C8_20  and  N4_21 
REMARK    7  A    between atoms: N5_24  and  C9_25 
REMARK    8  A    between atoms: C9_25  and  C10_26 
REMARK    9  A    between atoms: C12_32  and  C13_33 
REMARK   10  A    between atoms: C13_33  and  O8_34 
REMARK   11  A    between atoms: C13_33  and  O9_36 
REMARK   12  A    between atoms: C14_38  and  O10_39 
ROOT
HETATM    1  C1  UNL     1      81.772  48.689   4.997  1.00  0.00     0.682 A 
HETATM    2  N2  UNL     1      82.563  49.756   4.920  1.00  0.00    -0.168 N 
ATOM      3  H2  UNL     1      82.319  50.578   5.472  1.00  0.00     0.186 HD
HETATM    4  C2  UNL     1      83.669  49.809   4.154  1.00  0.00     0.198 A 
HETATM    5  O1  UNL     1      84.575  50.712   3.920  1.00  0.00    -0.241 OA
HETATM    6  C3  UNL     1      85.473  50.235   3.058  1.00  0.00     0.375 A 
HETATM    7  O2  UNL     1      86.473  50.876   2.635  1.00  0.00    -0.237 OA
HETATM    8  N3  UNL     1      85.168  48.975   2.699  1.00  0.00    -0.269 N 
HETATM    9  C7  UNL     1      84.016  48.695   3.394  1.00  0.00     0.137 A 
HETATM   10  C8  UNL     1      83.179  47.611   3.494  1.00  0.00     0.149 A 
HETATM   11  N5  UNL     1      82.081  47.598   4.273  1.00  0.00    -0.161 N 
ENDROOT
BRANCH  11  12
HETATM   12  C9  UNL     1      81.256  46.447   4.313  1.00  0.00     0.209 C 
BRANCH  12  13
HETATM   13  C10 UNL     1      79.894  46.515   3.815  1.00  0.00     0.069 A 
HETATM   14  N6  UNL     1      78.929  46.160   4.692  1.00  0.00    -0.302 N 
HETATM   15  C11 UNL     1      77.641  46.192   4.325  1.00  0.00     0.370 A 
ATOM     16  H6  UNL     1      79.182  45.867   5.636  1.00  0.00     0.171 HD
HETATM   17  O6  UNL     1      76.769  45.848   5.185  1.00  0.00    -0.238 OA
HETATM   18  O7  UNL     1      77.306  46.566   3.121  1.00  0.00    -0.258 OA
HETATM   19  C12 UNL     1      78.195  46.933   2.195  1.00  0.00     0.147 A 
HETATM   20  C14 UNL     1      79.519  46.906   2.551  1.00  0.00     0.125 A 
BRANCH  19  21
HETATM   21  C13 UNL     1      77.682  47.348   0.851  1.00  0.00     0.316 C 
BRANCH  21  22
HETATM   22  O8  UNL     1      78.629  47.765  -0.034  1.00  0.00    -0.365 OA
ATOM     23  H8  UNL     1      78.362  48.464  -0.620  1.00  0.00     0.213 HD
ENDBRANCH  21  22
BRANCH  21  24
HETATM   24  O9  UNL     1      76.786  48.397   1.044  1.00  0.00    -0.365 OA
ATOM     25  H9  UNL     1      76.667  48.834   0.209  1.00  0.00     0.213 HD
ENDBRANCH  21  24
ENDBRANCH  19  21
BRANCH  20  26
HETATM   26  O10 UNL     1      80.470  47.272   1.624  1.00  0.00    -0.356 OA
ATOM     27  H10 UNL     1      80.789  46.642   0.988  1.00  0.00     0.218 HD
ENDBRANCH  20  26
ENDBRANCH  12  13
ENDBRANCH  11  12
BRANCH   1  28
HETATM   28  N1  UNL     1      80.695  48.688   5.758  1.00  0.00    -0.234 N 
ATOM     29  H12 UNL     1      80.023  47.924   5.685  1.00  0.00     0.174 HD
ATOM     30  H11 UNL     1      80.513  49.442   6.420  1.00  0.00     0.174 HD
ENDBRANCH   1  28
BRANCH  10  31
HETATM   31  N4  UNL     1      83.502  46.574   2.785  1.00  0.00    -0.383 N 
ATOM     32  H42 UNL     1      84.151  45.876   3.148  1.00  0.00     0.157 HD
ATOM     33  H41 UNL     1      83.071  46.508   1.864  1.00  0.00     0.157 HD
ENDBRANCH  10  31
BRANCH   8  34
HETATM   34  C4  UNL     1      85.800  48.042   1.818  1.00  0.00     0.220 C 
BRANCH  34  35
HETATM   35  C5  UNL     1      85.378  46.618   2.155  1.00  0.00     0.201 C 
BRANCH  35  36
HETATM   36  O3  UNL     1      85.721  45.755   1.100  1.00  0.00    -0.398 OA
ATOM     37  H3  UNL     1      85.298  46.040   0.299  1.00  0.00     0.209 HD
ENDBRANCH  35  36
ENDBRANCH  34  35
BRANCH  34  38
HETATM   38  C6  UNL     1      85.344  48.254   0.392  1.00  0.00     0.199 C 
HETATM   39  O4  UNL     1      84.208  47.894   0.032  1.00  0.00    -0.646 OA
HETATM   40  O5  UNL     1      86.191  48.847  -0.518  1.00  0.00    -0.646 OA
ENDBRANCH  34  38
ENDBRANCH   8  34
TORSDOF 12
ENDMDL
MODEL 3
REMARK VINA RESULT: -8.735294358      9.957     12.002
REMARK  12 active torsions:
REMARK  status: ('A' for Active; 'I' for Inactive)
REMARK    1  A    between atoms: N1_1  and  C1_4 
REMARK    2  A    between atoms: N3_11  and  C4_12 
REMARK    3  A    between atoms: C4_12  and  C5_13 
REMARK    4  A    between atoms: C4_12  and  C6_16 
REMARK    5  A    between atoms: C5_13  and  O3_14 
REMARK    6  A    between atoms: C8_20  and  N4_21 
REMARK    7  A    between atoms: N5_24  and  C9_25 
REMARK    8  A    between atoms: C9_25  and  C10_26 
REMARK    9  A    between atoms: C12_32  and  C13_33 
REMARK   10  A    between atoms: C13_33  and  O8_34 
REMARK   11  A    between atoms: C13_33  and  O9_36 
REMARK   12  A    between atoms: C14_38  and  O10_39 
ROOT
HETATM    1  C1  UNL     1      87.809  58.805   5.955  1.00  0.00     0.682 A 
HETATM    2  N2  UNL     1      88.976  58.687   5.328  1.00  0.00    -0.168 N 
ATOM      3  H2  UNL     1      89.672  59.421   5.462  1.00  0.00     0.186 HD
HETATM    4  C2  UNL     1      89.288  57.652   4.527  1.00  0.00     0.198 A 
HETATM    5  O1  UNL     1      90.333  57.323   3.824  1.00  0.00    -0.241 OA
HETATM    6  C3  UNL     1      90.109  56.168   3.200  1.00  0.00     0.375 A 
HETATM    7  O2  UNL     1      90.935  55.589   2.442  1.00  0.00    -0.237 OA
HETATM    8  N3  UNL     1      88.881  55.700   3.486  1.00  0.00    -0.269 N 
HETATM    9  C7  UNL     1      88.349  56.642   4.333  1.00  0.00     0.137 A 
HETATM   10  C8  UNL     1      87.155  56.794   4.992  1.00  0.00     0.149 A 
HETATM   11  N5  UNL     1      86.881  57.847   5.786  1.00  0.00    -0.161 N 
ENDROOT
BRANCH  11  12
HETATM   12  C9  UNL     1      85.618  57.942   6.422  1.00  0.00     0.209 C 
BRANCH  12  13
HETATM   13  C10 UNL     1      85.478  57.548   7.813  1.00  0.00     0.069 A 
HETATM   14  N6  UNL     1      86.413  56.690   8.278  1.00  0.00    -0.302 N 
HETATM   15  C11 UNL     1      86.369  56.271   9.549  1.00  0.00     0.370 A 
ATOM     16  H6  UNL     1      87.155  56.362   7.660  1.00  0.00     0.171 HD
HETATM   17  O6  UNL     1      87.270  55.463   9.941  1.00  0.00    -0.238 OA
HETATM   18  O7  UNL     1      85.425  56.685  10.349  1.00  0.00    -0.258 OA
HETATM   19  C12 UNL     1      84.464  57.532   9.971  1.00  0.00     0.147 A 
HETATM   20  C14 UNL     1      84.492  57.972   8.672  1.00  0.00     0.125 A 
BRANCH  19  21
HETATM   21  C13 UNL     1      83.441  57.937  10.986  1.00  0.00     0.316 C 
BRANCH  21  22
HETATM   22  O8  UNL     1      82.144  57.786  10.602  1.00  0.00    -0.365 OA
ATOM     23  H8  UNL     1      81.495  58.086  11.228  1.00  0.00     0.213 HD
ENDBRANCH  21  22
BRANCH  21  24
HETATM   24  O9  UNL     1      83.646  59.283  11.281  1.00  0.00    -0.365 OA
ATOM     25  H9  UNL     1      84.491  59.531  10.926  1.00  0.00     0.213 HD
ENDBRANCH  21  24
ENDBRANCH  19  21
BRANCH  20  26
HETATM   26  O10 UNL     1      83.517  58.843   8.238  1.00  0.00    -0.356 OA
ATOM     27  H10 UNL     1      83.702  59.464   7.543  1.00  0.00     0.218 HD
ENDBRANCH  20  26
ENDBRANCH  12  13
ENDBRANCH  11  12
BRANCH   1  28
HETATM   28  N1  UNL     1      87.547  59.843   6.726  1.00  0.00    -0.234 N 
ATOM     29  H12 UNL     1      87.927  59.881   7.672  1.00  0.00     0.174 HD
ATOM     30  H11 UNL     1      86.963  60.613   6.399  1.00  0.00     0.174 HD
ENDBRANCH   1  28
BRANCH  10  31
HETATM   31  N4  UNL     1      86.280  55.854   4.811  1.00  0.00    -0.383 N 
ATOM     32  H42 UNL     1      86.571  54.882   4.713  1.00  0.00     0.157 HD
ATOM     33  H41 UNL     1      85.304  56.150   4.775  1.00  0.00     0.157 HD
ENDBRANCH  10  31
BRANCH   8  34
HETATM   34  C4  UNL     1      88.176  54.524   3.076  1.00  0.00     0.220 C 
BRANCH  34  35
HETATM   35  C5  UNL     1      88.228  54.370   1.561  1.00  0.00     0.201 C 
BRANCH  35  36
HETATM   36  O3  UNL     1      87.584  53.181   1.180  1.00  0.00    -0.398 OA
ATOM     37  H3  UNL     1      86.992  53.352   0.456  1.00  0.00     0.209 HD
ENDBRANCH  35  36
ENDBRANCH  34  35
BRANCH  34  38
HETATM   38  C6  UNL     1      88.845  53.280   3.615  1.00  0.00     0.199 C 
HETATM   39  O4  UNL     1      88.396  52.706   4.623  1.00  0.00    -0.646 OA
HETATM   40  O5  UNL     1      89.963  52.777   2.986  1.00  0.00    -0.646 OA
ENDBRANCH  34  38
ENDBRANCH   8  34
TORSDOF 12
ENDMDL
MODEL 4
REMARK VINA RESULT: -8.668888064     10.908     14.106
REMARK  12 active torsions:
REMARK  status: ('A' for Active; 'I' for Inactive)
REMARK    1  A    between atoms: N1_1  and  C1_4 
REMARK    2  A    between atoms: N3_11  and  C4_12 
REMARK    3  A    between atoms: C4_12  and  C5_13 
REMARK    4  A    between atoms: C4_12  and  C6_16 
REMARK    5  A    between atoms: C5_13  and  O3_14 
REMARK    6  A    between atoms: C8_20  and  N4_21 
REMARK    7  A    between atoms: N5_24  and  C9_25 
REMARK    8  A    between atoms: C9_25  and  C10_26 
REMARK    9  A    between atoms: C12_32  and  C13_33 
REMARK   10  A    between atoms: C13_33  and  O8_34 
REMARK   11  A    between atoms: C13_33  and  O9_36 
REMARK   12  A    between atoms: C14_38  and  O10_39 
ROOT
HETATM    1  C1  UNL     1      82.241  60.050   9.067  1.00  0.00     0.682 A 
HETATM    2  N2  UNL     1      81.784  61.216   8.620  1.00  0.00    -0.168 N 
ATOM      3  H2  UNL     1      82.082  62.066   9.097  1.00  0.00     0.186 HD
HETATM    4  C2  UNL     1      80.948  61.334   7.571  1.00  0.00     0.198 A 
HETATM    5  O1  UNL     1      80.379  62.334   6.965  1.00  0.00    -0.241 OA
HETATM    6  C3  UNL     1      79.629  61.883   5.960  1.00  0.00     0.375 A 
HETATM    7  O2  UNL     1      78.952  62.613   5.186  1.00  0.00    -0.237 OA
HETATM    8  N3  UNL     1      79.690  60.542   5.883  1.00  0.00    -0.269 N 
HETATM    9  C7  UNL     1      80.531  60.182   6.909  1.00  0.00     0.137 A 
HETATM   10  C8  UNL     1      81.020  58.995   7.396  1.00  0.00     0.149 A 
HETATM   11  N5  UNL     1      81.855  58.920   8.449  1.00  0.00    -0.161 N 
ENDROOT
BRANCH  11  12
HETATM   12  C9  UNL     1      82.306  57.656   8.904  1.00  0.00     0.209 C 
BRANCH  12  13
HETATM   13  C10 UNL     1      83.623  57.178   8.520  1.00  0.00     0.069 A 
HETATM   14  N6  UNL     1      83.769  56.837   7.220  1.00  0.00    -0.302 N 
HETATM   15  C11 UNL     1      84.947  56.386   6.771  1.00  0.00     0.370 A 
ATOM     16  H6  UNL     1      82.980  56.924   6.580  1.00  0.00     0.171 HD
HETATM   17  O6  UNL     1      85.036  56.077   5.540  1.00  0.00    -0.238 OA
HETATM   18  O7  UNL     1      85.964  56.272   7.581  1.00  0.00    -0.258 OA
HETATM   19  C12 UNL     1      85.905  56.587   8.877  1.00  0.00     0.147 A 
HETATM   20  C14 UNL     1      84.706  57.050   9.357  1.00  0.00     0.125 A 
BRANCH  19  21
HETATM   21  C13 UNL     1      87.144  56.417   9.701  1.00  0.00     0.316 C 
BRANCH  21  22
HETATM   22  O8  UNL     1      86.951  55.925  10.955  1.00  0.00    -0.365 OA
ATOM     23  H8  UNL     1      87.722  55.563  11.376  1.00  0.00     0.213 HD
ENDBRANCH  21  22
BRANCH  21  24
HETATM   24  O9  UNL     1      87.748  57.668   9.821  1.00  0.00    -0.365 OA
ATOM     25  H9  UNL     1      88.483  57.578  10.416  1.00  0.00     0.213 HD
ENDBRANCH  21  24
ENDBRANCH  19  21
BRANCH  20  26
HETATM   26  O10 UNL     1      84.600  57.381  10.689  1.00  0.00    -0.356 OA
ATOM     27  H10 UNL     1      85.060  56.875  11.349  1.00  0.00     0.218 HD
ENDBRANCH  20  26
ENDBRANCH  12  13
ENDBRANCH  11  12
BRANCH   1  28
HETATM   28  N1  UNL     1      83.055  59.985  10.104  1.00  0.00    -0.234 N 
ATOM     29  H12 UNL     1      82.691  59.717  11.018  1.00  0.00     0.174 HD
ATOM     30  H11 UNL     1      84.047  60.205  10.013  1.00  0.00     0.174 HD
ENDBRANCH   1  28
BRANCH  10  31
HETATM   31  N4  UNL     1      80.631  57.923   6.779  1.00  0.00    -0.383 N 
ATOM     32  H42 UNL     1      81.037  57.660   5.882  1.00  0.00     0.157 HD
ATOM     33  H41 UNL     1      79.908  57.375   7.245  1.00  0.00     0.157 HD
ENDBRANCH  10  31
BRANCH   8  34
HETATM   34  C4  UNL     1      79.080  59.596   4.999  1.00  0.00     0.220 C 
BRANCH  34  35
HETATM   35  C5  UNL     1      77.720  60.100   4.534  1.00  0.00     0.201 C 
BRANCH  35  36
HETATM   36  O3  UNL     1      77.798  60.521   3.196  1.00  0.00    -0.398 OA
ATOM     37  H3  UNL     1      77.684  59.777   2.616  1.00  0.00     0.209 HD
ENDBRANCH  35  36
ENDBRANCH  34  35
BRANCH  34  38
HETATM   38  C6  UNL     1      79.890  59.444   3.731  1.00  0.00     0.199 C 
HETATM   39  O4  UNL     1      80.671  60.342   3.369  1.00  0.00    -0.646 OA
HETATM   40  O5  UNL     1      79.762  58.304   2.970  1.00  0.00    -0.646 OA
ENDBRANCH  34  38
ENDBRANCH   8  34
TORSDOF 12
ENDMDL
MODEL 5
REMARK VINA RESULT: -8.530210823      9.634     11.875
REMARK  12 active torsions:
REMARK  status: ('A' for Active; 'I' for Inactive)
REMARK    1  A    between atoms: N1_1  and  C1_4 
REMARK    2  A    between atoms: N3_11  and  C4_12 
REMARK    3  A    between atoms: C4_12  and  C5_13 
REMARK    4  A    between atoms: C4_12  and  C6_16 
REMARK    5  A    between atoms: C5_13  and  O3_14 
REMARK    6  A    between atoms: C8_20  and  N4_21 
REMARK    7  A    between atoms: N5_24  and  C9_25 
REMARK    8  A    between atoms: C9_25  and  C10_26 
REMARK    9  A    between atoms: C12_32  and  C13_33 
REMARK   10  A    between atoms: C13_33  and  O8_34 
REMARK   11  A    between atoms: C13_33  and  O9_36 
REMARK   12  A    between atoms: C14_38  and  O10_39 
ROOT
HETATM    1  C1  UNL     1      85.799  58.417   5.014  1.00  0.00     0.682 A 
HETATM    2  N2  UNL     1      86.818  58.758   4.230  1.00  0.00    -0.168 N 
ATOM      3  H2  UNL     1      86.914  59.737   3.961  1.00  0.00     0.186 HD
HETATM    4  C2  UNL     1      87.730  57.880   3.772  1.00  0.00     0.198 A 
HETATM    5  O1  UNL     1      88.785  57.970   3.015  1.00  0.00    -0.241 OA
HETATM    6  C3  UNL     1      89.340  56.766   2.874  1.00  0.00     0.375 A 
HETATM    7  O2  UNL     1      90.377  56.530   2.195  1.00  0.00    -0.237 OA
HETATM    8  N3  UNL     1      88.645  55.837   3.552  1.00  0.00    -0.269 N 
HETATM    9  C7  UNL     1      87.615  56.540   4.129  1.00  0.00     0.137 A 
HETATM   10  C8  UNL     1      86.552  56.220   4.938  1.00  0.00     0.149 A 
HETATM   11  N5  UNL     1      85.660  57.129   5.374  1.00  0.00    -0.161 N 
ENDROOT
BRANCH  11  12
HETATM   12  C9  UNL     1      84.579  56.721   6.195  1.00  0.00     0.209 C 
BRANCH  12  13
HETATM   13  C10 UNL     1      84.570  57.069   7.605  1.00  0.00     0.069 A 
HETATM   14  N6  UNL     1      85.504  56.457   8.368  1.00  0.00    -0.302 N 
HETATM   15  C11 UNL     1      85.575  56.715   9.680  1.00  0.00     0.370 A 
ATOM     16  H6  UNL     1      86.156  55.798   7.943  1.00  0.00     0.171 HD
HETATM   17  O6  UNL     1      86.470  56.115  10.356  1.00  0.00    -0.238 OA
HETATM   18  O7  UNL     1      84.747  57.557  10.234  1.00  0.00    -0.258 OA
HETATM   19  C12 UNL     1      83.797  58.204   9.554  1.00  0.00     0.147 A 
HETATM   20  C14 UNL     1      83.707  57.953   8.209  1.00  0.00     0.125 A 
BRANCH  19  21
HETATM   21  C13 UNL     1      82.913  59.151  10.305  1.00  0.00     0.316 C 
BRANCH  21  22
HETATM   22  O8  UNL     1      82.826  60.407   9.788  1.00  0.00    -0.365 OA
ATOM     23  H8  UNL     1      83.598  60.950   9.901  1.00  0.00     0.213 HD
ENDBRANCH  21  22
BRANCH  21  24
HETATM   24  O9  UNL     1      83.409  59.256  11.603  1.00  0.00    -0.365 OA
ATOM     25  H9  UNL     1      83.948  58.491  11.769  1.00  0.00     0.213 HD
ENDBRANCH  21  24
ENDBRANCH  19  21
BRANCH  20  26
HETATM   26  O10 UNL     1      82.738  58.594   7.470  1.00  0.00    -0.356 OA
ATOM     27  H10 UNL     1      81.825  58.341   7.550  1.00  0.00     0.218 HD
ENDBRANCH  20  26
ENDBRANCH  12  13
ENDBRANCH  11  12
BRANCH   1  28
HETATM   28  N1  UNL     1      84.927  59.314   5.432  1.00  0.00    -0.234 N 
ATOM     29  H12 UNL     1      85.097  60.305   5.263  1.00  0.00     0.174 HD
ATOM     30  H11 UNL     1      84.081  59.037   5.931  1.00  0.00     0.174 HD
ENDBRANCH   1  28
BRANCH  10  31
HETATM   31  N4  UNL     1      86.443  54.971   5.270  1.00  0.00    -0.383 N 
ATOM     32  H42 UNL     1      87.263  54.432   5.549  1.00  0.00     0.157 HD
ATOM     33  H41 UNL     1      85.503  54.577   5.234  1.00  0.00     0.157 HD
ENDBRANCH  10  31
BRANCH   8  34
HETATM   34  C4  UNL     1      88.824  54.427   3.718  1.00  0.00     0.220 C 
BRANCH  34  35
HETATM   35  C5  UNL     1      88.075  53.663   2.633  1.00  0.00     0.201 C 
BRANCH  35  36
HETATM   36  O3  UNL     1      88.041  52.294   2.949  1.00  0.00    -0.398 OA
ATOM     37  H3  UNL     1      88.635  51.816   2.382  1.00  0.00     0.209 HD
ENDBRANCH  35  36
ENDBRANCH  34  35
BRANCH  34  38
HETATM   38  C6  UNL     1      90.274  54.042   3.530  1.00  0.00     0.199 C 
HETATM   39  O4  UNL     1      90.616  53.303   2.590  1.00  0.00    -0.646 OA
HETATM   40  O5  UNL     1      91.226  54.513   4.407  1.00  0.00    -0.646 OA
ENDBRANCH  34  38
ENDBRANCH   8  34
TORSDOF 12
ENDMDL
