MODEL 1
REMARK VINA RESULT: -8.467836704      0.000      0.000
REMARK  14 active torsions:
REMARK  status: ('A' for Active; 'I' for Inactive)
REMARK    1  A    between atoms: O1_2  and  C2_3 
REMARK    2  A    between atoms: C2_3  and  C3_5 
REMARK    3  A    between atoms: C4_7  and  C5_8 
REMARK    4  A    between atoms: C5_8  and  N2_12 
REMARK    5  A    between atoms: N2_12  and  C6_14 
REMARK    6  A    between atoms: N5_18  and  C7_19 
REMARK    7  A    between atoms: C7_19  and  O3_21 
REMARK    8  A    between atoms: C9_23  and  C10_24 
REMARK    9  A    between atoms: C10_24  and  O4_25 
REMARK   10  A    between atoms: C10_24  and  N6_27 
REMARK   11  A    between atoms: N6_27  and  O5_29 
REMARK   12  A    between atoms: O5_29  and  N7_30 
REMARK   13  A    between atoms: C11_35  and  C12_36 
REMARK       I    between atoms: C12_36  and  N9_38 
REMARK   14  A    between atoms: N9_38  and  N10_40 
ROOT
HETATM    1  C5  UNL     1      86.515  51.908   2.638  1.00  0.00     0.134 C 
HETATM    2  N1  UNL     1      86.544  52.421   1.471  1.00  0.00    -0.383 N 
ATOM      3  H11 UNL     1      87.079  53.281   1.352  1.00  0.00     0.157 HD
ATOM      4  H12 UNL     1      86.063  52.016   0.668  1.00  0.00     0.157 HD
ENDROOT
BRANCH   1   5
HETATM    5  C4  UNL     1      85.741  50.665   2.810  1.00  0.00     0.119 A 
HETATM    6  S1  UNL     1      85.940  49.174   2.039  1.00  0.00    -0.060 SA
HETATM    7  C3  UNL     1      84.638  48.297   2.822  1.00  0.00     0.114 A 
HETATM    8  C11 UNL     1      84.143  49.260   3.639  1.00  0.00     0.126 A 
HETATM    9  N8  UNL     1      84.727  50.436   3.603  1.00  0.00    -0.342 N 
ATOM     10  H8  UNL     1      84.383  51.185   4.204  1.00  0.00     0.167 HD
BRANCH   7  11
HETATM   11  C2  UNL     1      84.305  46.903   2.552  1.00  0.00     0.302 C 
HETATM   12  O2  UNL     1      83.346  46.534   1.920  1.00  0.00    -0.259 OA
BRANCH  11  13
HETATM   13  O1  UNL     1      85.148  45.886   3.054  1.00  0.00    -0.322 OA
HETATM   14  C1  UNL     1      84.686  44.535   3.084  1.00  0.00     0.213 C 
ENDBRANCH  11  13
ENDBRANCH   7  11
BRANCH   8  15
HETATM   15  C12 UNL     1      82.993  49.075   4.576  1.00  0.00     0.287 C 
HETATM   16  O6  UNL     1      82.796  49.856   5.482  1.00  0.00    -0.264 OA
HETATM   17  N9  UNL     1      82.105  47.967   4.411  1.00  0.00    -0.271 N 
ATOM     18  H9  UNL     1      82.248  47.295   3.657  1.00  0.00     0.189 HD
BRANCH  17  19
HETATM   19  N10 UNL     1      81.049  47.821   5.290  1.00  0.00    -0.342 N 
ATOM     20 2H10 UNL     1      80.994  46.988   5.877  1.00  0.00     0.176 HD
ATOM     21 1H10 UNL     1      80.340  48.553   5.335  1.00  0.00     0.176 HD
ENDBRANCH  17  19
ENDBRANCH   8  15
ENDBRANCH   1   5
BRANCH   1  22
HETATM   22  N2  UNL     1      87.180  52.467   3.747  1.00  0.00    -0.327 N 
ATOM     23  H2  UNL     1      86.758  52.393   4.673  1.00  0.00     0.169 HD
BRANCH  22  24
HETATM   24  C6  UNL     1      88.431  53.134   3.600  1.00  0.00     0.128 A 
HETATM   25  N3  UNL     1      89.543  52.720   3.096  1.00  0.00    -0.271 N 
HETATM   26  N4  UNL     1      90.508  53.718   3.162  1.00  0.00    -0.020 NA
ATOM     27  H3  UNL     1      89.694  51.790   2.703  1.00  0.00     0.185 HD
HETATM   28  N5  UNL     1      89.905  54.850   3.723  1.00  0.00    -0.264 N 
HETATM   29  C9  UNL     1      88.595  54.557   4.082  1.00  0.00     0.247 A 
BRANCH  28  30
HETATM   30  C7  UNL     1      90.304  56.059   3.159  1.00  0.00     0.231 C 
HETATM   31  C8  UNL     1      91.701  56.497   3.521  1.00  0.00     0.064 C 
BRANCH  30  32
HETATM   32  O3  UNL     1      90.151  56.157   1.779  1.00  0.00    -0.376 OA
ATOM     33  H3  UNL     1      90.525  56.935   1.379  1.00  0.00     0.212 HD
ENDBRANCH  30  32
ENDBRANCH  28  30
BRANCH  29  34
HETATM   34  C10 UNL     1      87.489  55.328   3.534  1.00  0.00     0.170 C 
BRANCH  34  35
HETATM   35  O4  UNL     1      87.213  55.248   2.177  1.00  0.00    -0.346 OA
ATOM     36  H4  UNL     1      87.911  55.404   1.551  1.00  0.00     0.219 HD
ENDBRANCH  34  35
BRANCH  34  37
HETATM   37  N6  UNL     1      86.751  56.084   4.251  1.00  0.00    -0.222 N 
ATOM     38  H6  UNL     1      86.866  57.094   4.167  1.00  0.00     0.198 HD
BRANCH  37  39
HETATM   39  O5  UNL     1      85.813  55.610   5.125  1.00  0.00    -0.162 OA
BRANCH  39  40
HETATM   40  N7  UNL     1      84.705  56.311   5.445  1.00  0.00    -0.286 N 
ATOM     41  H72 UNL     1      83.814  55.993   5.065  1.00  0.00     0.186 HD
ATOM     42  H71 UNL     1      84.736  57.135   6.046  1.00  0.00     0.186 HD
ENDBRANCH  39  40
ENDBRANCH  37  39
ENDBRANCH  34  37
ENDBRANCH  29  34
ENDBRANCH  22  24
ENDBRANCH   1  22
TORSDOF 14
ENDMDL
MODEL 2
REMARK VINA RESULT: -8.428255464      2.574      3.825
REMARK  14 active torsions:
REMARK  status: ('A' for Active; 'I' for Inactive)
REMARK    1  A    between atoms: O1_2  and  C2_3 
REMARK    2  A    between atoms: C2_3  and  C3_5 
REMARK    3  A    between atoms: C4_7  and  C5_8 
REMARK    4  A    between atoms: C5_8  and  N2_12 
REMARK    5  A    between atoms: N2_12  and  C6_14 
REMARK    6  A    between atoms: N5_18  and  C7_19 
REMARK    7  A    between atoms: C7_19  and  O3_21 
REMARK    8  A    between atoms: C9_23  and  C10_24 
REMARK    9  A    between atoms: C10_24  and  O4_25 
REMARK   10  A    between atoms: C10_24  and  N6_27 
REMARK   11  A    between atoms: N6_27  and  O5_29 
REMARK   12  A    between atoms: O5_29  and  N7_30 
REMARK   13  A    between atoms: C11_35  and  C12_36 
REMARK       I    between atoms: C12_36  and  N9_38 
REMARK   14  A    between atoms: N9_38  and  N10_40 
ROOT
HETATM    1  C5  UNL     1      87.119  51.816   3.793  1.00  0.00     0.134 C 
HETATM    2  N1  UNL     1      86.758  52.387   4.875  1.00  0.00    -0.383 N 
ATOM      3  H11 UNL     1      87.304  53.191   5.184  1.00  0.00     0.157 HD
ATOM      4  H12 UNL     1      85.963  52.077   5.434  1.00  0.00     0.157 HD
ENDROOT
BRANCH   1   5
HETATM    5  C4  UNL     1      86.330  50.653   3.348  1.00  0.00     0.119 A 
HETATM    6  S1  UNL     1      85.083  49.844   4.152  1.00  0.00    -0.060 SA
HETATM    7  C3  UNL     1      84.726  48.632   2.935  1.00  0.00     0.114 A 
HETATM    8  C11 UNL     1      85.629  48.965   1.978  1.00  0.00     0.126 A 
HETATM    9  N8  UNL     1      86.416  49.988   2.225  1.00  0.00    -0.342 N 
ATOM     10  H8  UNL     1      87.107  50.268   1.529  1.00  0.00     0.167 HD
BRANCH   7  11
HETATM   11  C2  UNL     1      83.699  47.607   3.069  1.00  0.00     0.302 C 
HETATM   12  O2  UNL     1      83.911  46.419   3.102  1.00  0.00    -0.259 OA
BRANCH  11  13
HETATM   13  O1  UNL     1      82.345  47.999   3.170  1.00  0.00    -0.322 OA
HETATM   14  C1  UNL     1      81.313  47.026   3.012  1.00  0.00     0.213 C 
ENDBRANCH  11  13
ENDBRANCH   7  11
BRANCH   8  15
HETATM   15  C12 UNL     1      85.785  48.260   0.670  1.00  0.00     0.287 C 
HETATM   16  O6  UNL     1      86.010  48.877  -0.348  1.00  0.00    -0.264 OA
HETATM   17  N9  UNL     1      85.671  46.835   0.605  1.00  0.00    -0.271 N 
ATOM     18  H9  UNL     1      85.482  46.292   1.447  1.00  0.00     0.189 HD
BRANCH  17  19
HETATM   19  N10 UNL     1      85.821  46.208  -0.617  1.00  0.00    -0.342 N 
ATOM     20 2H10 UNL     1      86.702  45.743  -0.839  1.00  0.00     0.176 HD
ATOM     21 1H10 UNL     1      85.044  46.222  -1.277  1.00  0.00     0.176 HD
ENDBRANCH  17  19
ENDBRANCH   8  15
ENDBRANCH   1   5
BRANCH   1  22
HETATM   22  N2  UNL     1      88.217  52.243   3.021  1.00  0.00    -0.327 N 
ATOM     23  H2  UNL     1      89.116  51.771   3.125  1.00  0.00     0.169 HD
BRANCH  22  24
HETATM   24  C6  UNL     1      88.096  53.322   2.097  1.00  0.00     0.128 A 
HETATM   25  N3  UNL     1      87.225  53.534   1.170  1.00  0.00    -0.271 N 
HETATM   26  N4  UNL     1      87.499  54.724   0.508  1.00  0.00    -0.020 NA
ATOM     27  H3  UNL     1      86.444  52.914   0.954  1.00  0.00     0.185 HD
HETATM   28  N5  UNL     1      88.617  55.300   1.123  1.00  0.00    -0.264 N 
HETATM   29  C9  UNL     1      89.098  54.452   2.113  1.00  0.00     0.247 A 
BRANCH  28  30
HETATM   30  C7  UNL     1      88.562  56.686   1.246  1.00  0.00     0.231 C 
HETATM   31  C8  UNL     1      88.820  57.446  -0.031  1.00  0.00     0.064 C 
BRANCH  30  32
HETATM   32  O3  UNL     1      87.408  57.191   1.838  1.00  0.00    -0.376 OA
ATOM     33  H3  UNL     1      87.412  58.125   2.015  1.00  0.00     0.212 HD
ENDBRANCH  30  32
ENDBRANCH  28  30
BRANCH  29  34
HETATM   34  C10 UNL     1      89.207  54.913   3.490  1.00  0.00     0.170 C 
BRANCH  34  35
HETATM   35  O4  UNL     1      88.052  55.094   4.238  1.00  0.00    -0.346 OA
ATOM     36  H4  UNL     1      87.338  55.603   3.872  1.00  0.00     0.219 HD
ENDBRANCH  34  35
BRANCH  34  37
HETATM   37  N6  UNL     1      90.328  55.159   4.051  1.00  0.00    -0.222 N 
ATOM     38  H6  UNL     1      90.474  56.085   4.454  1.00  0.00     0.198 HD
BRANCH  37  39
HETATM   39  O5  UNL     1      91.341  54.247   4.139  1.00  0.00    -0.162 OA
BRANCH  39  40
HETATM   40  N7  UNL     1      92.642  54.610   4.133  1.00  0.00    -0.286 N 
ATOM     41  H72 UNL     1      93.104  54.742   5.033  1.00  0.00     0.186 HD
ATOM     42  H71 UNL     1      93.164  54.754   3.268  1.00  0.00     0.186 HD
ENDBRANCH  39  40
ENDBRANCH  37  39
ENDBRANCH  34  37
ENDBRANCH  29  34
ENDBRANCH  22  24
ENDBRANCH   1  22
TORSDOF 14
ENDMDL
MODEL 3
REMARK VINA RESULT: -8.354429800      2.326      2.987
REMARK  14 active torsions:
REMARK  status: ('A' for Active; 'I' for Inactive)
REMARK    1  A    between atoms: O1_2  and  C2_3 
REMARK    2  A    between atoms: C2_3  and  C3_5 
REMARK    3  A    between atoms: C4_7  and  C5_8 
REMARK    4  A    between atoms: C5_8  and  N2_12 
REMARK    5  A    between atoms: N2_12  and  C6_14 
REMARK    6  A    between atoms: N5_18  and  C7_19 
REMARK    7  A    between atoms: C7_19  and  O3_21 
REMARK    8  A    between atoms: C9_23  and  C10_24 
REMARK    9  A    between atoms: C10_24  and  O4_25 
REMARK   10  A    between atoms: C10_24  and  N6_27 
REMARK   11  A    between atoms: N6_27  and  O5_29 
REMARK   12  A    between atoms: O5_29  and  N7_30 
REMARK   13  A    between atoms: C11_35  and  C12_36 
REMARK       I    between atoms: C12_36  and  N9_38 
REMARK   14  A    between atoms: N9_38  and  N10_40 
ROOT
HETATM    1  C5  UNL     1      87.091  51.900   3.529  1.00  0.00     0.134 C 
HETATM    2  N1  UNL     1      86.901  52.352   4.706  1.00  0.00    -0.383 N 
ATOM      3  H11 UNL     1      87.415  53.192   4.973  1.00  0.00     0.157 HD
ATOM      4  H12 UNL     1      86.270  51.917   5.379  1.00  0.00     0.157 HD
ENDROOT
BRANCH   1   5
HETATM    5  C4  UNL     1      86.349  50.687   3.144  1.00  0.00     0.119 A 
HETATM    6  S1  UNL     1      85.200  49.818   4.029  1.00  0.00    -0.060 SA
HETATM    7  C3  UNL     1      84.847  48.569   2.849  1.00  0.00     0.114 A 
HETATM    8  C11 UNL     1      85.672  48.940   1.837  1.00  0.00     0.126 A 
HETATM    9  N8  UNL     1      86.409  50.010   2.026  1.00  0.00    -0.342 N 
ATOM     10  H8  UNL     1      87.041  50.320   1.287  1.00  0.00     0.167 HD
BRANCH   7  11
HETATM   11  C2  UNL     1      83.892  47.487   3.055  1.00  0.00     0.302 C 
HETATM   12  O2  UNL     1      82.708  47.638   3.237  1.00  0.00    -0.259 OA
BRANCH  11  13
HETATM   13  O1  UNL     1      84.354  46.152   3.044  1.00  0.00    -0.322 OA
HETATM   14  C1  UNL     1      83.427  45.084   2.844  1.00  0.00     0.213 C 
ENDBRANCH  11  13
ENDBRANCH   7  11
BRANCH   8  15
HETATM   15  C12 UNL     1      85.794  48.224   0.531  1.00  0.00     0.287 C 
HETATM   16  O6  UNL     1      85.957  48.837  -0.502  1.00  0.00    -0.264 OA
HETATM   17  N9  UNL     1      85.721  46.797   0.485  1.00  0.00    -0.271 N 
ATOM     18  H9  UNL     1      85.584  46.257   1.340  1.00  0.00     0.189 HD
BRANCH  17  19
HETATM   19  N10 UNL     1      85.839  46.161  -0.736  1.00  0.00    -0.342 N 
ATOM     20 2H10 UNL     1      86.001  45.154  -0.765  1.00  0.00     0.176 HD
ATOM     21 1H10 UNL     1      85.761  46.713  -1.589  1.00  0.00     0.176 HD
ENDBRANCH  17  19
ENDBRANCH   8  15
ENDBRANCH   1   5
BRANCH   1  22
HETATM   22  N2  UNL     1      87.962  52.502   2.599  1.00  0.00    -0.327 N 
ATOM     23  H2  UNL     1      87.862  52.286   1.607  1.00  0.00     0.169 HD
BRANCH  22  24
HETATM   24  C6  UNL     1      88.981  53.405   3.018  1.00  0.00     0.128 A 
HETATM   25  N3  UNL     1      90.235  53.204   3.243  1.00  0.00    -0.271 N 
HETATM   26  N4  UNL     1      90.854  54.383   3.638  1.00  0.00    -0.020 NA
ATOM     27  H3  UNL     1      90.707  52.304   3.144  1.00  0.00     0.185 HD
HETATM   28  N5  UNL     1      89.888  55.396   3.608  1.00  0.00    -0.264 N 
HETATM   29  C9  UNL     1      88.651  54.858   3.275  1.00  0.00     0.247 A 
BRANCH  28  30
HETATM   30  C7  UNL     1      90.350  56.626   3.146  1.00  0.00     0.231 C 
HETATM   31  C8  UNL     1      91.272  57.353   4.093  1.00  0.00     0.064 C 
BRANCH  30  32
HETATM   32  O3  UNL     1      90.933  56.611   1.882  1.00  0.00    -0.376 OA
ATOM     33  H3  UNL     1      90.643  55.914   1.304  1.00  0.00     0.212 HD
ENDBRANCH  30  32
ENDBRANCH  28  30
BRANCH  29  34
HETATM   34  C10 UNL     1      87.922  55.346   2.114  1.00  0.00     0.170 C 
BRANCH  34  35
HETATM   35  O4  UNL     1      88.413  55.078   0.843  1.00  0.00    -0.346 OA
ATOM     36  H4  UNL     1      89.348  55.140   0.683  1.00  0.00     0.219 HD
ENDBRANCH  34  35
BRANCH  34  37
HETATM   37  N6  UNL     1      86.840  56.017   2.207  1.00  0.00    -0.222 N 
ATOM     38  H6  UNL     1      86.680  56.561   3.055  1.00  0.00     0.198 HD
BRANCH  37  39
HETATM   39  O5  UNL     1      85.884  56.043   1.230  1.00  0.00    -0.162 OA
BRANCH  39  40
HETATM   40  N7  UNL     1      85.592  54.962   0.477  1.00  0.00    -0.286 N 
ATOM     41  H72 UNL     1      86.319  54.602  -0.142  1.00  0.00     0.186 HD
ATOM     42  H71 UNL     1      84.681  54.504   0.510  1.00  0.00     0.186 HD
ENDBRANCH  39  40
ENDBRANCH  37  39
ENDBRANCH  34  37
ENDBRANCH  29  34
ENDBRANCH  22  24
ENDBRANCH   1  22
TORSDOF 14
ENDMDL
MODEL 4
REMARK VINA RESULT: -8.275197045      2.408      3.210
REMARK  14 active torsions:
REMARK  status: ('A' for Active; 'I' for Inactive)
REMARK    1  A    between atoms: O1_2  and  C2_3 
REMARK    2  A    between atoms: C2_3  and  C3_5 
REMARK    3  A    between atoms: C4_7  and  C5_8 
REMARK    4  A    between atoms: C5_8  and  N2_12 
REMARK    5  A    between atoms: N2_12  and  C6_14 
REMARK    6  A    between atoms: N5_18  and  C7_19 
REMARK    7  A    between atoms: C7_19  and  O3_21 
REMARK    8  A    between atoms: C9_23  and  C10_24 
REMARK    9  A    between atoms: C10_24  and  O4_25 
REMARK   10  A    between atoms: C10_24  and  N6_27 
REMARK   11  A    between atoms: N6_27  and  O5_29 
REMARK   12  A    between atoms: O5_29  and  N7_30 
REMARK   13  A    between atoms: C11_35  and  C12_36 
REMARK       I    between atoms: C12_36  and  N9_38 
REMARK   14  A    between atoms: N9_38  and  N10_40 
ROOT
HETATM    1  C5  UNL     1      87.149  51.913   3.603  1.00  0.00     0.134 C 
HETATM    2  N1  UNL     1      87.093  52.257   4.831  1.00  0.00    -0.383 N 
ATOM      3  H11 UNL     1      87.623  53.083   5.109  1.00  0.00     0.157 HD
ATOM      4  H12 UNL     1      86.553  51.749   5.531  1.00  0.00     0.157 HD
ENDROOT
BRANCH   1   5
HETATM    5  C4  UNL     1      86.384  50.719   3.201  1.00  0.00     0.119 A 
HETATM    6  S1  UNL     1      85.197  49.878   4.062  1.00  0.00    -0.060 SA
HETATM    7  C3  UNL     1      84.836  48.640   2.873  1.00  0.00     0.114 A 
HETATM    8  C11 UNL     1      85.690  48.992   1.879  1.00  0.00     0.126 A 
HETATM    9  N8  UNL     1      86.450  50.043   2.084  1.00  0.00    -0.342 N 
ATOM     10  H8  UNL     1      87.103  50.338   1.359  1.00  0.00     0.167 HD
BRANCH   7  11
HETATM   11  C2  UNL     1      83.850  47.582   3.058  1.00  0.00     0.302 C 
HETATM   12  O2  UNL     1      84.107  46.405   3.121  1.00  0.00    -0.259 OA
BRANCH  11  13
HETATM   13  O1  UNL     1      82.485  47.928   3.176  1.00  0.00    -0.322 OA
HETATM   14  C1  UNL     1      81.484  46.927   2.992  1.00  0.00     0.213 C 
ENDBRANCH  11  13
ENDBRANCH   7  11
BRANCH   8  15
HETATM   15  C12 UNL     1      85.820  48.275   0.573  1.00  0.00     0.287 C 
HETATM   16  O6  UNL     1      85.994  48.887  -0.458  1.00  0.00    -0.264 OA
HETATM   17  N9  UNL     1      85.740  46.848   0.527  1.00  0.00    -0.271 N 
ATOM     18  H9  UNL     1      85.594  46.309   1.381  1.00  0.00     0.189 HD
BRANCH  17  19
HETATM   19  N10 UNL     1      85.866  46.211  -0.692  1.00  0.00    -0.342 N 
ATOM     20 2H10 UNL     1      85.076  45.686  -1.070  1.00  0.00     0.176 HD
ATOM     21 1H10 UNL     1      86.751  46.279  -1.195  1.00  0.00     0.176 HD
ENDBRANCH  17  19
ENDBRANCH   8  15
ENDBRANCH   1   5
BRANCH   1  22
HETATM   22  N2  UNL     1      87.894  52.615   2.635  1.00  0.00    -0.327 N 
ATOM     23  H2  UNL     1      87.647  52.523   1.650  1.00  0.00     0.169 HD
BRANCH  22  24
HETATM   24  C6  UNL     1      88.987  53.450   3.007  1.00  0.00     0.128 A 
HETATM   25  N3  UNL     1      90.254  53.207   3.030  1.00  0.00    -0.271 N 
HETATM   26  N4  UNL     1      90.956  54.324   3.465  1.00  0.00    -0.020 NA
ATOM     27  H3  UNL     1      90.680  52.318   2.766  1.00  0.00     0.185 HD
HETATM   28  N5  UNL     1      90.025  55.346   3.684  1.00  0.00    -0.264 N 
HETATM   29  C9  UNL     1      88.739  54.867   3.468  1.00  0.00     0.247 A 
BRANCH  28  30
HETATM   30  C7  UNL     1      90.456  56.615   3.303  1.00  0.00     0.231 C 
HETATM   31  C8  UNL     1      91.448  57.256   4.240  1.00  0.00     0.064 C 
BRANCH  30  32
HETATM   32  O3  UNL     1      90.943  56.718   2.003  1.00  0.00    -0.376 OA
ATOM     33  H3  UNL     1      90.936  57.592   1.630  1.00  0.00     0.212 HD
ENDBRANCH  30  32
ENDBRANCH  28  30
BRANCH  29  34
HETATM   34  C10 UNL     1      87.872  55.496   2.483  1.00  0.00     0.170 C 
BRANCH  34  35
HETATM   35  O4  UNL     1      86.740  56.175   2.911  1.00  0.00    -0.346 OA
ATOM     36  H4  UNL     1      86.463  56.956   2.445  1.00  0.00     0.219 HD
ENDBRANCH  34  35
BRANCH  34  37
HETATM   37  N6  UNL     1      88.107  55.455   1.228  1.00  0.00    -0.222 N 
ATOM     38  H6  UNL     1      88.919  55.958   0.871  1.00  0.00     0.198 HD
BRANCH  37  39
HETATM   39  O5  UNL     1      87.326  54.771   0.340  1.00  0.00    -0.162 OA
BRANCH  39  40
HETATM   40  N7  UNL     1      85.980  54.729   0.444  1.00  0.00    -0.286 N 
ATOM     41  H72 UNL     1      85.537  55.340   1.131  1.00  0.00     0.186 HD
ATOM     42  H71 UNL     1      85.407  54.115  -0.134  1.00  0.00     0.186 HD
ENDBRANCH  39  40
ENDBRANCH  37  39
ENDBRANCH  34  37
ENDBRANCH  29  34
ENDBRANCH  22  24
ENDBRANCH   1  22
TORSDOF 14
ENDMDL
MODEL 5
REMARK VINA RESULT: -8.201021474      2.529      3.481
REMARK  14 active torsions:
REMARK  status: ('A' for Active; 'I' for Inactive)
REMARK    1  A    between atoms: O1_2  and  C2_3 
REMARK    2  A    between atoms: C2_3  and  C3_5 
REMARK    3  A    between atoms: C4_7  and  C5_8 
REMARK    4  A    between atoms: C5_8  and  N2_12 
REMARK    5  A    between atoms: N2_12  and  C6_14 
REMARK    6  A    between atoms: N5_18  and  C7_19 
REMARK    7  A    between atoms: C7_19  and  O3_21 
REMARK    8  A    between atoms: C9_23  and  C10_24 
REMARK    9  A    between atoms: C10_24  and  O4_25 
REMARK   10  A    between atoms: C10_24  and  N6_27 
REMARK   11  A    between atoms: N6_27  and  O5_29 
REMARK   12  A    between atoms: O5_29  and  N7_30 
REMARK   13  A    between atoms: C11_35  and  C12_36 
REMARK       I    between atoms: C12_36  and  N9_38 
REMARK   14  A    between atoms: N9_38  and  N10_40 
ROOT
HETATM    1  C5  UNL     1      87.163  51.808   3.554  1.00  0.00     0.134 C 
HETATM    2  N1  UNL     1      87.079  52.193   4.767  1.00  0.00    -0.383 N 
ATOM      3  H11 UNL     1      87.630  53.007   5.038  1.00  0.00     0.157 HD
ATOM      4  H12 UNL     1      86.495  51.730   5.464  1.00  0.00     0.157 HD
ENDROOT
BRANCH   1   5
HETATM    5  C4  UNL     1      86.367  50.631   3.163  1.00  0.00     0.119 A 
HETATM    6  S1  UNL     1      85.159  49.828   4.033  1.00  0.00    -0.060 SA
HETATM    7  C3  UNL     1      84.763  48.591   2.854  1.00  0.00     0.114 A 
HETATM    8  C11 UNL     1      85.625  48.912   1.856  1.00  0.00     0.126 A 
HETATM    9  N8  UNL     1      86.413  49.944   2.052  1.00  0.00    -0.342 N 
ATOM     10  H8  UNL     1      87.073  50.216   1.323  1.00  0.00     0.167 HD
BRANCH   7  11
HETATM   11  C2  UNL     1      83.750  47.561   3.049  1.00  0.00     0.302 C 
HETATM   12  O2  UNL     1      83.974  46.376   3.103  1.00  0.00    -0.259 OA
BRANCH  11  13
HETATM   13  O1  UNL     1      82.398  47.946   3.189  1.00  0.00    -0.322 OA
HETATM   14  C1  UNL     1      81.385  46.944   3.294  1.00  0.00     0.213 C 
ENDBRANCH  11  13
ENDBRANCH   7  11
BRANCH   8  15
HETATM   15  C12 UNL     1      85.734  48.182   0.556  1.00  0.00     0.287 C 
HETATM   16  O6  UNL     1      85.847  48.784  -0.489  1.00  0.00    -0.264 OA
HETATM   17  N9  UNL     1      85.706  46.752   0.531  1.00  0.00    -0.271 N 
ATOM     18  H9  UNL     1      85.611  46.220   1.397  1.00  0.00     0.189 HD
BRANCH  17  19
HETATM   19  N10 UNL     1      85.811  46.102  -0.683  1.00  0.00    -0.342 N 
ATOM     20 2H10 UNL     1      84.966  45.786  -1.159  1.00  0.00     0.176 HD
ATOM     21 1H10 UNL     1      86.737  45.951  -1.083  1.00  0.00     0.176 HD
ENDBRANCH  17  19
ENDBRANCH   8  15
ENDBRANCH   1   5
BRANCH   1  22
HETATM   22  N2  UNL     1      87.969  52.447   2.592  1.00  0.00    -0.327 N 
ATOM     23  H2  UNL     1      88.859  52.026   2.324  1.00  0.00     0.169 HD
BRANCH  22  24
HETATM   24  C6  UNL     1      87.566  53.673   1.987  1.00  0.00     0.128 A 
HETATM   25  N3  UNL     1      86.525  53.951   1.277  1.00  0.00    -0.271 N 
HETATM   26  N4  UNL     1      86.541  55.286   0.892  1.00  0.00    -0.020 NA
ATOM     27  H3  UNL     1      85.793  53.283   1.032  1.00  0.00     0.185 HD
HETATM   28  N5  UNL     1      87.678  55.873   1.460  1.00  0.00    -0.264 N 
HETATM   29  C9  UNL     1      88.420  54.911   2.132  1.00  0.00     0.247 A 
BRANCH  28  30
HETATM   30  C7  UNL     1      87.489  57.173   1.923  1.00  0.00     0.231 C 
HETATM   31  C8  UNL     1      87.589  58.244   0.866  1.00  0.00     0.064 C 
BRANCH  30  32
HETATM   32  O3  UNL     1      86.329  57.384   2.662  1.00  0.00    -0.376 OA
ATOM     33  H3  UNL     1      86.459  57.701   3.548  1.00  0.00     0.212 HD
ENDBRANCH  30  32
ENDBRANCH  28  30
BRANCH  29  34
HETATM   34  C10 UNL     1      88.719  55.065   3.549  1.00  0.00     0.170 C 
BRANCH  34  35
HETATM   35  O4  UNL     1      89.904  54.548   4.052  1.00  0.00    -0.346 OA
ATOM     36  H4  UNL     1      90.153  54.744   4.948  1.00  0.00     0.219 HD
ENDBRANCH  34  35
BRANCH  34  37
HETATM   37  N6  UNL     1      87.934  55.661   4.360  1.00  0.00    -0.222 N 
ATOM     38  H6  UNL     1      88.171  56.608   4.656  1.00  0.00     0.198 HD
BRANCH  37  39
HETATM   39  O5  UNL     1      86.791  55.096   4.854  1.00  0.00    -0.162 OA
BRANCH  39  40
HETATM   40  N7  UNL     1      85.734  55.835   5.251  1.00  0.00    -0.286 N 
ATOM     41  H72 UNL     1      84.853  55.351   5.426  1.00  0.00     0.186 HD
ATOM     42  H71 UNL     1      85.792  56.846   5.378  1.00  0.00     0.186 HD
ENDBRANCH  39  40
ENDBRANCH  37  39
ENDBRANCH  34  37
ENDBRANCH  29  34
ENDBRANCH  22  24
ENDBRANCH   1  22
TORSDOF 14
ENDMDL
