MODEL 1
REMARK VINA RESULT: -6.671354774      0.000      0.000
REMARK  10 active torsions:
REMARK  status: ('A' for Active; 'I' for Inactive)
REMARK    1  A    between atoms: C1_4  and  C2_5 
REMARK    2  A    between atoms: C2_5  and  S1_6 
REMARK    3  A    between atoms: S1_6  and  C3_7 
REMARK    4  A    between atoms: C4_8  and  N2_9 
REMARK    5  A    between atoms: N5_14  and  N6_15 
REMARK    6  A    between atoms: N6_15  and  N7_16 
REMARK    7  A    between atoms: N7_16  and  N8_17 
REMARK    8  A    between atoms: N7_16  and  N9_20 
REMARK    9  A    between atoms: N10_25  and  O2_26 
REMARK   10  A    between atoms: C6_29  and  S3_30 
ROOT
HETATM    1  N2  UNL     1      82.183  58.588   8.022  1.00  0.00    -0.142 N 
HETATM    2  N3  UNL     1      81.106  57.854   7.823  1.00  0.00    -0.202 N 
ATOM      3  H3  UNL     1      81.177  56.837   7.838  1.00  0.00     0.212 HD
HETATM    4  N4  UNL     1      79.911  58.439   7.601  1.00  0.00    -0.202 N 
ATOM      5  H4  UNL     1      79.089  57.854   7.450  1.00  0.00     0.212 HD
HETATM    6  N5  UNL     1      79.785  59.754   7.574  1.00  0.00    -0.108 N 
HETATM    7  C5  UNL     1      80.892  60.490   7.777  1.00  0.00     0.403 A 
HETATM    8  O1  UNL     1      80.781  61.743   7.755  1.00  0.00    -0.239 OA
HETATM    9  N10 UNL     1      82.102  59.899   8.003  1.00  0.00    -0.080 N 
ENDROOT
BRANCH   1  10
HETATM   10  C4  UNL     1      83.426  57.894   8.253  1.00  0.00     0.140 A 
HETATM   11  C3  UNL     1      84.266  57.361   7.301  1.00  0.00     0.065 A 
HETATM   12  C7  UNL     1      85.385  56.751   7.753  1.00  0.00     0.097 A 
HETATM   13  C6  UNL     1      85.574  56.724   9.102  1.00  0.00     0.149 A 
HETATM   14  N11 UNL     1      86.368  56.141   6.856  1.00  0.00    -0.099 NA
HETATM   15  S2  UNL     1      84.215  57.532   9.719  1.00  0.00    -0.051 SA
BRANCH  11  16
HETATM   16  S1  UNL     1      83.867  57.482   5.514  1.00  0.00    -0.120 SA
BRANCH  16  17
HETATM   17  C2  UNL     1      84.047  59.213   4.987  1.00  0.00     0.123 C 
BRANCH  17  18
HETATM   18  C1  UNL     1      85.362  59.685   5.434  1.00  0.00     0.063 C 
HETATM   19  N1  UNL     1      85.514  60.644   6.296  1.00  0.00    -0.410 N 
ATOM     20  H12 UNL     1      84.670  61.078   6.670  1.00  0.00     0.155 HD
ATOM     21  H11 UNL     1      86.429  60.971   6.607  1.00  0.00     0.155 HD
ENDBRANCH  17  18
ENDBRANCH  16  17
ENDBRANCH  11  16
BRANCH  13  22
HETATM   22  S3  UNL     1      86.909  56.020  10.022  1.00  0.00     0.146 S 
HETATM   23  O3  UNL     1      88.185  56.726   9.766  1.00  0.00    -0.591 OA
HETATM   24  O4  UNL     1      86.563  56.194  11.475  1.00  0.00    -0.591 OA
HETATM   25  O5  UNL     1      86.979  54.382   9.709  1.00  0.00    -0.591 OA
ENDBRANCH  13  22
ENDBRANCH   1  10
BRANCH   9  26
HETATM   26  O2  UNL     1      83.206  60.686   8.206  1.00  0.00    -0.262 OA
ATOM     27  H2  UNL     1      83.554  60.834   9.076  1.00  0.00     0.247 HD
ENDBRANCH   9  26
BRANCH   6  28
HETATM   28  N6  UNL     1      78.553  60.369   7.345  1.00  0.00     0.021 NA
BRANCH  28  29
HETATM   29  N7  UNL     1      77.790  60.508   8.480  1.00  0.00    -0.036 NA
BRANCH  29  30
HETATM   30  N8  UNL     1      77.894  61.834   8.933  1.00  0.00    -0.329 NA
ATOM     31  H82 UNL     1      76.982  62.262   9.089  1.00  0.00     0.174 HD
ATOM     32  H81 UNL     1      78.478  61.850   9.770  1.00  0.00     0.174 HD
ENDBRANCH  29  30
BRANCH  29  33
HETATM   33  N9  UNL     1      78.131  59.589   9.461  1.00  0.00    -0.329 NA
ATOM     34  H92 UNL     1      78.123  58.630   9.112  1.00  0.00     0.174 HD
ATOM     35  H91 UNL     1      77.519  59.646  10.275  1.00  0.00     0.174 HD
ENDBRANCH  29  33
ENDBRANCH  28  29
ENDBRANCH   6  28
TORSDOF 10
ENDMDL
MODEL 2
REMARK VINA RESULT: -6.659547822      8.920     10.339
REMARK  10 active torsions:
REMARK  status: ('A' for Active; 'I' for Inactive)
REMARK    1  A    between atoms: C1_4  and  C2_5 
REMARK    2  A    between atoms: C2_5  and  S1_6 
REMARK    3  A    between atoms: S1_6  and  C3_7 
REMARK    4  A    between atoms: C4_8  and  N2_9 
REMARK    5  A    between atoms: N5_14  and  N6_15 
REMARK    6  A    between atoms: N6_15  and  N7_16 
REMARK    7  A    between atoms: N7_16  and  N8_17 
REMARK    8  A    between atoms: N7_16  and  N9_20 
REMARK    9  A    between atoms: N10_25  and  O2_26 
REMARK   10  A    between atoms: C6_29  and  S3_30 
ROOT
HETATM    1  N2  UNL     1      87.628  52.988   2.685  1.00  0.00    -0.142 N 
HETATM    2  N3  UNL     1      87.303  52.621   1.461  1.00  0.00    -0.202 N 
ATOM      3  H3  UNL     1      87.658  53.148   0.664  1.00  0.00     0.212 HD
HETATM    4  N4  UNL     1      86.505  51.552   1.256  1.00  0.00    -0.202 N 
ATOM      5  H4  UNL     1      86.265  51.283   0.302  1.00  0.00     0.212 HD
HETATM    6  N5  UNL     1      86.028  50.849   2.268  1.00  0.00    -0.108 N 
HETATM    7  C5  UNL     1      86.366  51.235   3.511  1.00  0.00     0.403 A 
HETATM    8  O1  UNL     1      85.918  50.570   4.480  1.00  0.00    -0.239 OA
HETATM    9  N10 UNL     1      87.174  52.315   3.719  1.00  0.00    -0.080 N 
ENDROOT
BRANCH   1  10
HETATM   10  C4  UNL     1      88.483  54.139   2.828  1.00  0.00     0.140 A 
HETATM   11  C3  UNL     1      88.208  55.430   2.434  1.00  0.00     0.065 A 
HETATM   12  C7  UNL     1      89.167  56.354   2.671  1.00  0.00     0.097 A 
HETATM   13  C6  UNL     1      90.309  55.920   3.275  1.00  0.00     0.149 A 
HETATM   14  N11 UNL     1      89.012  57.763   2.306  1.00  0.00    -0.099 NA
HETATM   15  S2  UNL     1      90.043  54.260   3.503  1.00  0.00    -0.051 SA
BRANCH  11  16
HETATM   16  S1  UNL     1      86.615  55.852   1.629  1.00  0.00    -0.120 SA
BRANCH  16  17
HETATM   17  C2  UNL     1      86.774  55.593  -0.164  1.00  0.00     0.123 C 
BRANCH  17  18
HETATM   18  C1  UNL     1      87.550  56.711  -0.713  1.00  0.00     0.063 C 
HETATM   19  N1  UNL     1      88.829  56.645  -0.931  1.00  0.00    -0.410 N 
ATOM     20  H12 UNL     1      89.300  55.768  -0.706  1.00  0.00     0.155 HD
ATOM     21  H11 UNL     1      89.368  57.422  -1.313  1.00  0.00     0.155 HD
ENDBRANCH  17  18
ENDBRANCH  16  17
ENDBRANCH  11  16
BRANCH  13  22
HETATM   22  S3  UNL     1      91.745  56.847   3.727  1.00  0.00     0.146 S 
HETATM   23  O3  UNL     1      91.431  57.899   4.719  1.00  0.00    -0.591 OA
HETATM   24  O4  UNL     1      92.696  55.872   4.367  1.00  0.00    -0.591 OA
HETATM   25  O5  UNL     1      92.472  57.431   2.343  1.00  0.00    -0.591 OA
ENDBRANCH  13  22
ENDBRANCH   1  10
BRANCH   9  26
HETATM   26  O2  UNL     1      87.496  52.676   5.002  1.00  0.00    -0.262 OA
ATOM     27  H2  UNL     1      86.956  52.417   5.738  1.00  0.00     0.247 HD
ENDBRANCH   9  26
BRANCH   6  28
HETATM   28  N6  UNL     1      85.201  49.742   2.066  1.00  0.00     0.021 NA
BRANCH  28  29
HETATM   29  N7  UNL     1      85.533  49.005   0.954  1.00  0.00    -0.036 NA
BRANCH  29  30
HETATM   30  N8  UNL     1      84.597  47.968   0.803  1.00  0.00    -0.329 NA
ATOM     31  H82 UNL     1      83.719  48.167   1.281  1.00  0.00     0.174 HD
ATOM     32  H81 UNL     1      84.463  47.789  -0.193  1.00  0.00     0.174 HD
ENDBRANCH  29  30
BRANCH  29  33
HETATM   33  N9  UNL     1      86.837  48.534   1.004  1.00  0.00    -0.329 NA
ATOM     34  H92 UNL     1      87.523  49.278   0.877  1.00  0.00     0.174 HD
ATOM     35  H91 UNL     1      87.012  47.805   0.312  1.00  0.00     0.174 HD
ENDBRANCH  29  33
ENDBRANCH  28  29
ENDBRANCH   6  28
TORSDOF 10
ENDMDL
MODEL 3
REMARK VINA RESULT: -6.547093261      7.284     10.064
REMARK  10 active torsions:
REMARK  status: ('A' for Active; 'I' for Inactive)
REMARK    1  A    between atoms: C1_4  and  C2_5 
REMARK    2  A    between atoms: C2_5  and  S1_6 
REMARK    3  A    between atoms: S1_6  and  C3_7 
REMARK    4  A    between atoms: C4_8  and  N2_9 
REMARK    5  A    between atoms: N5_14  and  N6_15 
REMARK    6  A    between atoms: N6_15  and  N7_16 
REMARK    7  A    between atoms: N7_16  and  N8_17 
REMARK    8  A    between atoms: N7_16  and  N9_20 
REMARK    9  A    between atoms: N10_25  and  O2_26 
REMARK   10  A    between atoms: C6_29  and  S3_30 
ROOT
HETATM    1  N2  UNL     1      88.049  53.320   2.754  1.00  0.00    -0.142 N 
HETATM    2  N3  UNL     1      87.546  53.180   1.544  1.00  0.00    -0.202 N 
ATOM      3  H3  UNL     1      87.871  53.782   0.788  1.00  0.00     0.212 HD
HETATM    4  N4  UNL     1      86.604  52.245   1.298  1.00  0.00    -0.202 N 
ATOM      5  H4  UNL     1      86.227  52.151   0.355  1.00  0.00     0.212 HD
HETATM    6  N5  UNL     1      86.161  51.450   2.255  1.00  0.00    -0.108 N 
HETATM    7  C5  UNL     1      86.683  51.604   3.486  1.00  0.00     0.403 A 
HETATM    8  O1  UNL     1      86.267  50.850   4.403  1.00  0.00    -0.239 OA
HETATM    9  N10 UNL     1      87.636  52.548   3.735  1.00  0.00    -0.080 N 
ENDROOT
BRANCH   1  10
HETATM   10  C4  UNL     1      89.051  54.338   2.943  1.00  0.00     0.140 A 
HETATM   11  C3  UNL     1      88.888  55.698   2.793  1.00  0.00     0.065 A 
HETATM   12  C7  UNL     1      89.976  56.468   3.025  1.00  0.00     0.097 A 
HETATM   13  C6  UNL     1      91.123  55.827   3.383  1.00  0.00     0.149 A 
HETATM   14  N11 UNL     1      89.949  57.927   2.904  1.00  0.00    -0.099 NA
HETATM   15  S2  UNL     1      90.687  54.187   3.393  1.00  0.00    -0.051 SA
BRANCH  11  16
HETATM   16  S1  UNL     1      87.269  56.407   2.303  1.00  0.00    -0.120 SA
BRANCH  16  17
HETATM   17  C2  UNL     1      86.494  57.167   3.762  1.00  0.00     0.123 C 
BRANCH  17  18
HETATM   18  C1  UNL     1      86.911  56.403   4.942  1.00  0.00     0.063 C 
HETATM   19  N1  UNL     1      86.363  55.277   5.287  1.00  0.00    -0.410 N 
ATOM     20  H12 UNL     1      85.608  54.922   4.699  1.00  0.00     0.155 HD
ATOM     21  H11 UNL     1      86.654  54.746   6.108  1.00  0.00     0.155 HD
ENDBRANCH  17  18
ENDBRANCH  16  17
ENDBRANCH  11  16
BRANCH  13  22
HETATM   22  S3  UNL     1      92.709  56.516   3.755  1.00  0.00     0.146 S 
HETATM   23  O3  UNL     1      92.645  57.459   4.894  1.00  0.00    -0.591 OA
HETATM   24  O4  UNL     1      93.590  55.363   4.153  1.00  0.00    -0.591 OA
HETATM   25  O5  UNL     1      93.347  57.188   2.368  1.00  0.00    -0.591 OA
ENDBRANCH  13  22
ENDBRANCH   1  10
BRANCH   9  26
HETATM   26  O2  UNL     1      88.142  52.673   5.003  1.00  0.00    -0.262 OA
ATOM     27  H2  UNL     1      88.184  51.931   5.594  1.00  0.00     0.247 HD
ENDBRANCH   9  26
BRANCH   6  28
HETATM   28  N6  UNL     1      85.187  50.480   2.011  1.00  0.00     0.021 NA
BRANCH  28  29
HETATM   29  N7  UNL     1      85.707  49.240   1.724  1.00  0.00    -0.036 NA
BRANCH  29  30
HETATM   30  N8  UNL     1      86.219  49.257   0.415  1.00  0.00    -0.329 NA
ATOM     31  H82 UNL     1      85.651  48.708  -0.229  1.00  0.00     0.174 HD
ATOM     32  H81 UNL     1      86.318  50.227   0.114  1.00  0.00     0.174 HD
ENDBRANCH  29  30
BRANCH  29  33
HETATM   33  N9  UNL     1      84.783  48.223   1.915  1.00  0.00    -0.329 NA
ATOM     34  H92 UNL     1      84.849  47.810   2.845  1.00  0.00     0.174 HD
ATOM     35  H91 UNL     1      84.874  47.482   1.220  1.00  0.00     0.174 HD
ENDBRANCH  29  33
ENDBRANCH  28  29
ENDBRANCH   6  28
TORSDOF 10
ENDMDL
MODEL 4
REMARK VINA RESULT: -6.511542151     10.527     12.222
REMARK  10 active torsions:
REMARK  status: ('A' for Active; 'I' for Inactive)
REMARK    1  A    between atoms: C1_4  and  C2_5 
REMARK    2  A    between atoms: C2_5  and  S1_6 
REMARK    3  A    between atoms: S1_6  and  C3_7 
REMARK    4  A    between atoms: C4_8  and  N2_9 
REMARK    5  A    between atoms: N5_14  and  N6_15 
REMARK    6  A    between atoms: N6_15  and  N7_16 
REMARK    7  A    between atoms: N7_16  and  N8_17 
REMARK    8  A    between atoms: N7_16  and  N9_20 
REMARK    9  A    between atoms: N10_25  and  O2_26 
REMARK   10  A    between atoms: C6_29  and  S3_30 
ROOT
HETATM    1  N2  UNL     1      81.833  47.835   4.564  1.00  0.00    -0.142 N 
HETATM    2  N3  UNL     1      81.670  46.567   4.244  1.00  0.00    -0.202 N 
ATOM      3  H3  UNL     1      82.343  46.109   3.631  1.00  0.00     0.212 HD
HETATM    4  N4  UNL     1      80.618  45.870   4.724  1.00  0.00    -0.202 N 
ATOM      5  H4  UNL     1      80.510  44.889   4.466  1.00  0.00     0.212 HD
HETATM    6  N5  UNL     1      79.727  46.433   5.520  1.00  0.00    -0.108 N 
HETATM    7  C5  UNL     1      79.906  47.728   5.837  1.00  0.00     0.403 A 
HETATM    8  O1  UNL     1      79.062  48.273   6.596  1.00  0.00    -0.239 OA
HETATM    9  N10 UNL     1      80.969  48.434   5.354  1.00  0.00    -0.080 N 
ENDROOT
BRANCH   1  10
HETATM   10  C4  UNL     1      82.978  48.516   4.015  1.00  0.00     0.140 A 
HETATM   11  C3  UNL     1      83.773  48.093   2.972  1.00  0.00     0.065 A 
HETATM   12  C7  UNL     1      84.800  48.902   2.626  1.00  0.00     0.097 A 
HETATM   13  C6  UNL     1      84.949  50.053   3.338  1.00  0.00     0.149 A 
HETATM   14  N11 UNL     1      85.724  48.579   1.537  1.00  0.00    -0.099 NA
HETATM   15  S2  UNL     1      83.682  50.002   4.465  1.00  0.00    -0.051 SA
BRANCH  11  16
HETATM   16  S1  UNL     1      83.436  46.508   2.112  1.00  0.00    -0.120 SA
BRANCH  16  17
HETATM   17  C2  UNL     1      84.947  45.497   2.130  1.00  0.00     0.123 C 
BRANCH  17  18
HETATM   18  C1  UNL     1      84.850  44.563   3.257  1.00  0.00     0.063 C 
HETATM   19  N1  UNL     1      83.894  43.691   3.373  1.00  0.00    -0.410 N 
ATOM     20  H12 UNL     1      83.186  43.669   2.639  1.00  0.00     0.155 HD
ATOM     21  H11 UNL     1      83.827  43.042   4.157  1.00  0.00     0.155 HD
ENDBRANCH  17  18
ENDBRANCH  16  17
ENDBRANCH  11  16
BRANCH  13  22
HETATM   22  S3  UNL     1      86.167  51.321   3.154  1.00  0.00     0.146 S 
HETATM   23  O3  UNL     1      86.171  52.251   4.307  1.00  0.00    -0.591 OA
HETATM   24  O4  UNL     1      87.501  50.627   3.112  1.00  0.00    -0.591 OA
HETATM   25  O5  UNL     1      85.943  52.081   1.685  1.00  0.00    -0.591 OA
ENDBRANCH  13  22
ENDBRANCH   1  10
BRANCH   9  26
HETATM   26  O2  UNL     1      81.114  49.752   5.701  1.00  0.00    -0.262 OA
ATOM     27  H2  UNL     1      81.464  50.389   5.089  1.00  0.00     0.247 HD
ENDBRANCH   9  26
BRANCH   6  28
HETATM   28  N6  UNL     1      78.636  45.721   6.020  1.00  0.00     0.021 NA
BRANCH  28  29
HETATM   29  N7  UNL     1      77.448  46.035   5.404  1.00  0.00    -0.036 NA
BRANCH  29  30
HETATM   30  N8  UNL     1      76.409  45.336   6.043  1.00  0.00    -0.329 NA
ATOM     31  H82 UNL     1      75.718  45.962   6.455  1.00  0.00     0.174 HD
ATOM     32  H81 UNL     1      75.994  44.684   5.377  1.00  0.00     0.174 HD
ENDBRANCH  29  30
BRANCH  29  33
HETATM   33  N9  UNL     1      77.482  45.794   4.039  1.00  0.00    -0.329 NA
ATOM     34  H92 UNL     1      78.388  46.021   3.628  1.00  0.00     0.174 HD
ATOM     35  H91 UNL     1      76.756  46.306   3.536  1.00  0.00     0.174 HD
ENDBRANCH  29  33
ENDBRANCH  28  29
ENDBRANCH   6  28
TORSDOF 10
ENDMDL
MODEL 5
REMARK VINA RESULT: -6.433417244      3.673      7.961
REMARK  10 active torsions:
REMARK  status: ('A' for Active; 'I' for Inactive)
REMARK    1  A    between atoms: C1_4  and  C2_5 
REMARK    2  A    between atoms: C2_5  and  S1_6 
REMARK    3  A    between atoms: S1_6  and  C3_7 
REMARK    4  A    between atoms: C4_8  and  N2_9 
REMARK    5  A    between atoms: N5_14  and  N6_15 
REMARK    6  A    between atoms: N6_15  and  N7_16 
REMARK    7  A    between atoms: N7_16  and  N8_17 
REMARK    8  A    between atoms: N7_16  and  N9_20 
REMARK    9  A    between atoms: N10_25  and  O2_26 
REMARK   10  A    between atoms: C6_29  and  S3_30 
ROOT
HETATM    1  N2  UNL     1      86.790  56.144   5.271  1.00  0.00    -0.142 N 
HETATM    2  N3  UNL     1      86.670  54.885   4.898  1.00  0.00    -0.202 N 
ATOM      3  H3  UNL     1      85.934  54.306   5.300  1.00  0.00     0.212 HD
HETATM    4  N4  UNL     1      87.514  54.358   3.987  1.00  0.00    -0.202 N 
ATOM      5  H4  UNL     1      87.405  53.382   3.710  1.00  0.00     0.212 HD
HETATM    6  N5  UNL     1      88.480  55.081   3.447  1.00  0.00    -0.108 N 
HETATM    7  C5  UNL     1      88.591  56.363   3.838  1.00  0.00     0.403 A 
HETATM    8  O1  UNL     1      89.507  57.059   3.328  1.00  0.00    -0.239 OA
HETATM    9  N10 UNL     1      87.737  56.898   4.758  1.00  0.00    -0.080 N 
ENDROOT
BRANCH   1  10
HETATM   10  C4  UNL     1      85.853  56.639   6.248  1.00  0.00     0.140 A 
HETATM   11  C3  UNL     1      84.605  57.170   6.004  1.00  0.00     0.065 A 
HETATM   12  C7  UNL     1      83.896  57.572   7.083  1.00  0.00     0.097 A 
HETATM   13  C6  UNL     1      84.482  57.414   8.303  1.00  0.00     0.149 A 
HETATM   14  N11 UNL     1      82.558  58.154   6.975  1.00  0.00    -0.099 NA
HETATM   15  S2  UNL     1      85.988  56.719   7.944  1.00  0.00    -0.051 SA
BRANCH  11  16
HETATM   16  S1  UNL     1      83.958  57.315   4.294  1.00  0.00    -0.120 SA
BRANCH  16  17
HETATM   17  C2  UNL     1      84.851  58.648   3.438  1.00  0.00     0.123 C 
BRANCH  17  18
HETATM   18  C1  UNL     1      85.493  58.070   2.252  1.00  0.00     0.063 C 
HETATM   19  N1  UNL     1      85.493  56.796   1.997  1.00  0.00    -0.410 N 
ATOM     20  H12 UNL     1      85.020  56.183   2.662  1.00  0.00     0.155 HD
ATOM     21  H11 UNL     1      85.939  56.395   1.173  1.00  0.00     0.155 HD
ENDBRANCH  17  18
ENDBRANCH  16  17
ENDBRANCH  11  16
BRANCH  13  22
HETATM   22  S3  UNL     1      83.846  57.826   9.901  1.00  0.00     0.146 S 
HETATM   23  O3  UNL     1      82.551  57.159  10.166  1.00  0.00    -0.591 OA
HETATM   24  O4  UNL     1      84.847  57.315  10.901  1.00  0.00    -0.591 OA
HETATM   25  O5  UNL     1      83.784  59.487  10.048  1.00  0.00    -0.591 OA
ENDBRANCH  13  22
ENDBRANCH   1  10
BRANCH   9  26
HETATM   26  O2  UNL     1      87.884  58.209   5.129  1.00  0.00    -0.262 OA
ATOM     27  H2  UNL     1      88.616  58.492   5.663  1.00  0.00     0.247 HD
ENDBRANCH   9  26
BRANCH   6  28
HETATM   28  N6  UNL     1      89.359  54.544   2.504  1.00  0.00     0.021 NA
BRANCH  28  29
HETATM   29  N7  UNL     1      90.259  53.654   3.040  1.00  0.00    -0.036 NA
BRANCH  29  30
HETATM   30  N8  UNL     1      89.594  52.447   3.312  1.00  0.00    -0.329 NA
ATOM     31  H82 UNL     1      89.066  52.485   4.184  1.00  0.00     0.174 HD
ATOM     32  H81 UNL     1      89.006  52.208   2.513  1.00  0.00     0.174 HD
ENDBRANCH  29  30
BRANCH  29  33
HETATM   33  N9  UNL     1      90.904  54.164   4.157  1.00  0.00    -0.329 NA
ATOM     34  H92 UNL     1      91.077  53.449   4.864  1.00  0.00     0.174 HD
ATOM     35  H91 UNL     1      90.386  54.932   4.587  1.00  0.00     0.174 HD
ENDBRANCH  29  33
ENDBRANCH  28  29
ENDBRANCH   6  28
TORSDOF 10
ENDMDL
