MODEL 1
REMARK VINA RESULT: -10.251911141      0.000      0.000
REMARK  13 active torsions:
REMARK  status: ('A' for Active; 'I' for Inactive)
REMARK    1  A    between atoms: C2_2  and  C12_26 
REMARK    2  A    between atoms: N1_3  and  O1_5 
REMARK    3  A    between atoms: O1_5  and  C3_6 
REMARK    4  A    between atoms: C3_6  and  C4_8 
REMARK    5  A    between atoms: C4_8  and  O3_9 
REMARK    6  A    between atoms: C4_8  and  C5_11 
REMARK    7  A    between atoms: C6_13  and  C7_14 
REMARK    8  A    between atoms: C7_14  and  O5_16 
REMARK    9  A    between atoms: C9_18  and  O6_19 
REMARK   10  A    between atoms: C11_23  and  O8_24 
REMARK   11  A    between atoms: C13_27  and  O9_28 
REMARK   12  A    between atoms: N3_34  and  N4_35 
REMARK   13  A    between atoms: C15_38  and  N5_39 
ROOT
HETATM    1  O1  UNL     1      83.169  49.506   5.163  1.00  0.00    -0.193 OA
ENDROOT
BRANCH   1   2
HETATM    2  N1  UNL     1      83.563  48.875   3.998  1.00  0.00    -0.261 N 
HETATM    3  C2  UNL     1      84.754  48.965   3.526  1.00  0.00     0.047 C 
HETATM    4  C1  UNL     1      85.720  49.777   4.271  1.00  0.00     0.071 C 
ATOM      5  H1  UNL     1      82.878  48.314   3.491  1.00  0.00     0.194 HD
BRANCH   3   6
HETATM    6  C12 UNL     1      85.088  48.275   2.301  1.00  0.00     0.084 A 
HETATM    7  C13 UNL     1      84.660  46.946   2.105  1.00  0.00     0.160 A 
HETATM    8  N2  UNL     1      84.929  46.241   1.002  1.00  0.00    -0.287 N 
HETATM    9  C14 UNL     1      85.652  46.827   0.015  1.00  0.00     0.348 A 
ATOM     10  H2  UNL     1      84.597  45.282   0.904  1.00  0.00     0.172 HD
HETATM   11  O10 UNL     1      85.884  46.117  -1.016  1.00  0.00    -0.245 OA
HETATM   12  N3  UNL     1      86.086  48.082   0.145  1.00  0.00    -0.195 N 
HETATM   13  C15 UNL     1      85.818  48.799   1.255  1.00  0.00     0.141 A 
BRANCH   7  14
HETATM   14  O9  UNL     1      83.911  46.387   3.161  1.00  0.00    -0.345 OA
ATOM     15  H9  UNL     1      83.451  45.581   2.955  1.00  0.00     0.219 HD
ENDBRANCH   7  14
BRANCH  12  16
HETATM   16  N4  UNL     1      86.825  48.671  -0.870  1.00  0.00    -0.333 N 
ATOM     17  H42 UNL     1      87.838  48.729  -0.772  1.00  0.00     0.177 HD
ATOM     18  H41 UNL     1      86.356  49.036  -1.699  1.00  0.00     0.177 HD
ENDBRANCH  12  16
BRANCH  13  19
HETATM   19  N5  UNL     1      86.250  50.027   1.368  1.00  0.00    -0.383 N 
ATOM     20  H52 UNL     1      85.721  50.710   1.911  1.00  0.00     0.157 HD
ATOM     21  H51 UNL     1      87.123  50.269   0.899  1.00  0.00     0.157 HD
ENDBRANCH  13  19
ENDBRANCH   3   6
ENDBRANCH   1   2
BRANCH   1  22
HETATM   22  C3  UNL     1      81.797  49.508   5.559  1.00  0.00     0.341 C 
HETATM   23  O2  UNL     1      81.363  50.636   5.785  1.00  0.00    -0.255 OA
BRANCH  22  24
HETATM   24  C4  UNL     1      81.132  48.253   5.637  1.00  0.00     0.180 C 
BRANCH  24  25
HETATM   25  O3  UNL     1      81.516  47.482   6.641  1.00  0.00    -0.353 OA
ATOM     26  H3  UNL     1      81.695  47.943   7.452  1.00  0.00     0.218 HD
ENDBRANCH  24  25
BRANCH  24  27
HETATM   27  C5  UNL     1      80.107  47.641   4.828  1.00  0.00     0.152 A 
HETATM   28  O4  UNL     1      80.216  47.712   3.484  1.00  0.00    -0.303 OA
HETATM   29  C6  UNL     1      79.352  47.196   2.672  1.00  0.00     0.119 A 
HETATM   30  C9  UNL     1      78.234  46.521   3.092  1.00  0.00     0.151 A 
HETATM   31  C10 UNL     1      78.046  46.402   4.441  1.00  0.00     0.243 A 
HETATM   32  O7  UNL     1      77.052  45.801   4.907  1.00  0.00    -0.282 OA
HETATM   33  C11 UNL     1      79.010  46.978   5.286  1.00  0.00     0.156 A 
BRANCH  29  34
HETATM   34  C7  UNL     1      79.601  47.352   1.206  1.00  0.00     0.174 C 
HETATM   35  C8  UNL     1      78.332  47.114   0.414  1.00  0.00     0.046 C 
BRANCH  34  36
HETATM   36  O5  UNL     1      79.994  48.677   0.946  1.00  0.00    -0.389 OA
ATOM     37  H5  UNL     1      80.350  49.056   1.740  1.00  0.00     0.210 HD
ENDBRANCH  34  36
ENDBRANCH  29  34
BRANCH  30  38
HETATM   38  O6  UNL     1      77.320  45.976   2.171  1.00  0.00    -0.355 OA
ATOM     39  H6  UNL     1      77.369  46.180   1.245  1.00  0.00     0.218 HD
ENDBRANCH  30  38
BRANCH  33  40
HETATM   40  O8  UNL     1      78.778  46.832   6.624  1.00  0.00    -0.355 OA
ATOM     41  H8  UNL     1      79.494  46.813   7.248  1.00  0.00     0.218 HD
ENDBRANCH  33  40
ENDBRANCH  24  27
ENDBRANCH  22  24
ENDBRANCH   1  22
TORSDOF 13
ENDMDL
MODEL 2
REMARK VINA RESULT: -9.865582374      4.788      6.923
REMARK  13 active torsions:
REMARK  status: ('A' for Active; 'I' for Inactive)
REMARK    1  A    between atoms: C2_2  and  C12_26 
REMARK    2  A    between atoms: N1_3  and  O1_5 
REMARK    3  A    between atoms: O1_5  and  C3_6 
REMARK    4  A    between atoms: C3_6  and  C4_8 
REMARK    5  A    between atoms: C4_8  and  O3_9 
REMARK    6  A    between atoms: C4_8  and  C5_11 
REMARK    7  A    between atoms: C6_13  and  C7_14 
REMARK    8  A    between atoms: C7_14  and  O5_16 
REMARK    9  A    between atoms: C9_18  and  O6_19 
REMARK   10  A    between atoms: C11_23  and  O8_24 
REMARK   11  A    between atoms: C13_27  and  O9_28 
REMARK   12  A    between atoms: N3_34  and  N4_35 
REMARK   13  A    between atoms: C15_38  and  N5_39 
ROOT
HETATM    1  O1  UNL     1      87.034  50.883   3.116  1.00  0.00    -0.193 OA
ENDROOT
BRANCH   1   2
HETATM    2  N1  UNL     1      87.723  51.993   2.666  1.00  0.00    -0.261 N 
HETATM    3  C2  UNL     1      87.889  53.046   3.382  1.00  0.00     0.047 C 
HETATM    4  C1  UNL     1      87.314  53.050   4.730  1.00  0.00     0.071 C 
ATOM      5  H1  UNL     1      88.117  51.974   1.725  1.00  0.00     0.194 HD
BRANCH   3   6
HETATM    6  C12 UNL     1      88.623  54.167   2.839  1.00  0.00     0.084 A 
HETATM    7  C13 UNL     1      88.027  54.987   1.860  1.00  0.00     0.160 A 
HETATM    8  N2  UNL     1      88.639  56.040   1.309  1.00  0.00    -0.287 N 
HETATM    9  C14 UNL     1      89.900  56.341   1.707  1.00  0.00     0.348 A 
ATOM     10  H2  UNL     1      88.167  56.605   0.603  1.00  0.00     0.172 HD
HETATM   11  O10 UNL     1      90.443  57.352   1.155  1.00  0.00    -0.245 OA
HETATM   12  N3  UNL     1      90.516  55.600   2.631  1.00  0.00    -0.195 N 
HETATM   13  C15 UNL     1      89.904  54.537   3.190  1.00  0.00     0.141 A 
BRANCH   7  14
HETATM   14  O9  UNL     1      86.716  54.630   1.484  1.00  0.00    -0.345 OA
ATOM     15  H9  UNL     1      86.329  55.157   0.794  1.00  0.00     0.219 HD
ENDBRANCH   7  14
BRANCH  12  16
HETATM   16  N4  UNL     1      91.805  55.917   3.029  1.00  0.00    -0.333 N 
ATOM     17  H42 UNL     1      92.565  55.279   2.794  1.00  0.00     0.177 HD
ATOM     18  H41 UNL     1      91.984  56.777   3.548  1.00  0.00     0.177 HD
ENDBRANCH  12  16
BRANCH  13  19
HETATM   19  N5  UNL     1      90.520  53.820   4.092  1.00  0.00    -0.383 N 
ATOM     20  H52 UNL     1      90.994  52.957   3.828  1.00  0.00     0.157 HD
ATOM     21  H51 UNL     1      90.507  54.155   5.056  1.00  0.00     0.157 HD
ENDBRANCH  13  19
ENDBRANCH   3   6
ENDBRANCH   1   2
BRANCH   1  22
HETATM   22  C3  UNL     1      85.822  50.474   2.480  1.00  0.00     0.341 C 
HETATM   23  O2  UNL     1      85.025  51.398   2.326  1.00  0.00    -0.255 OA
BRANCH  22  24
HETATM   24  C4  UNL     1      85.696  49.105   2.120  1.00  0.00     0.180 C 
BRANCH  24  25
HETATM   25  O3  UNL     1      86.677  48.636   1.366  1.00  0.00    -0.353 OA
ATOM     26  H3  UNL     1      86.811  47.697   1.424  1.00  0.00     0.218 HD
ENDBRANCH  24  25
BRANCH  24  27
HETATM   27  C5  UNL     1      84.698  48.107   2.415  1.00  0.00     0.152 A 
HETATM   28  O4  UNL     1      83.640  48.457   3.178  1.00  0.00    -0.303 OA
HETATM   29  C6  UNL     1      82.692  47.638   3.498  1.00  0.00     0.119 A 
HETATM   30  C9  UNL     1      82.661  46.327   3.095  1.00  0.00     0.151 A 
HETATM   31  C10 UNL     1      83.695  45.889   2.316  1.00  0.00     0.243 A 
HETATM   32  O7  UNL     1      83.743  44.707   1.905  1.00  0.00    -0.282 OA
HETATM   33  C11 UNL     1      84.704  46.812   1.993  1.00  0.00     0.156 A 
BRANCH  29  34
HETATM   34  C7  UNL     1      81.582  48.164   4.352  1.00  0.00     0.174 C 
HETATM   35  C8  UNL     1      81.771  49.639   4.636  1.00  0.00     0.046 C 
BRANCH  34  36
HETATM   36  O5  UNL     1      80.368  48.042   3.653  1.00  0.00    -0.389 OA
ATOM     37  H5  UNL     1      79.784  47.476   4.143  1.00  0.00     0.210 HD
ENDBRANCH  34  36
ENDBRANCH  29  34
BRANCH  30  38
HETATM   38  O6  UNL     1      81.608  45.471   3.468  1.00  0.00    -0.355 OA
ATOM     39  H6  UNL     1      81.691  44.527   3.403  1.00  0.00     0.218 HD
ENDBRANCH  30  38
BRANCH  33  40
HETATM   40  O8  UNL     1      85.715  46.327   1.213  1.00  0.00    -0.355 OA
ATOM     41  H8  UNL     1      86.503  46.834   1.058  1.00  0.00     0.218 HD
ENDBRANCH  33  40
ENDBRANCH  24  27
ENDBRANCH  22  24
ENDBRANCH   1  22
TORSDOF 13
ENDMDL
MODEL 3
REMARK VINA RESULT: -9.858805859      4.407      8.550
REMARK  13 active torsions:
REMARK  status: ('A' for Active; 'I' for Inactive)
REMARK    1  A    between atoms: C2_2  and  C12_26 
REMARK    2  A    between atoms: N1_3  and  O1_5 
REMARK    3  A    between atoms: O1_5  and  C3_6 
REMARK    4  A    between atoms: C3_6  and  C4_8 
REMARK    5  A    between atoms: C4_8  and  O3_9 
REMARK    6  A    between atoms: C4_8  and  C5_11 
REMARK    7  A    between atoms: C6_13  and  C7_14 
REMARK    8  A    between atoms: C7_14  and  O5_16 
REMARK    9  A    between atoms: C9_18  and  O6_19 
REMARK   10  A    between atoms: C11_23  and  O8_24 
REMARK   11  A    between atoms: C13_27  and  O9_28 
REMARK   12  A    between atoms: N3_34  and  N4_35 
REMARK   13  A    between atoms: C15_38  and  N5_39 
ROOT
HETATM    1  O1  UNL     1      84.289  48.585   3.133  1.00  0.00    -0.193 OA
ENDROOT
BRANCH   1   2
HETATM    2  N1  UNL     1      82.956  48.322   3.383  1.00  0.00    -0.261 N 
HETATM    3  C2  UNL     1      82.443  47.151   3.259  1.00  0.00     0.047 C 
HETATM    4  C1  UNL     1      83.327  46.063   2.832  1.00  0.00     0.071 C 
ATOM      5  H1  UNL     1      82.354  49.090   3.679  1.00  0.00     0.194 HD
BRANCH   3   6
HETATM    6  C12 UNL     1      81.039  46.956   3.540  1.00  0.00     0.084 A 
HETATM    7  C13 UNL     1      80.100  47.010   2.491  1.00  0.00     0.160 A 
HETATM    8  N2  UNL     1      78.786  46.841   2.668  1.00  0.00    -0.287 N 
HETATM    9  C14 UNL     1      78.323  46.606   3.921  1.00  0.00     0.348 A 
ATOM     10  H2  UNL     1      78.143  46.888   1.877  1.00  0.00     0.172 HD
HETATM   11  O10 UNL     1      77.066  46.453   4.042  1.00  0.00    -0.245 OA
HETATM   12  N3  UNL     1      79.165  46.545   4.955  1.00  0.00    -0.195 N 
HETATM   13  C15 UNL     1      80.492  46.714   4.782  1.00  0.00     0.141 A 
BRANCH   7  14
HETATM   14  O9  UNL     1      80.634  47.255   1.208  1.00  0.00    -0.345 OA
ATOM     15  H9  UNL     1      80.024  47.164   0.486  1.00  0.00     0.219 HD
ENDBRANCH   7  14
BRANCH  12  16
HETATM   16  N4  UNL     1      78.681  46.305   6.232  1.00  0.00    -0.333 N 
ATOM     17  H42 UNL     1      78.649  45.345   6.575  1.00  0.00     0.177 HD
ATOM     18  H41 UNL     1      78.365  47.081   6.814  1.00  0.00     0.177 HD
ENDBRANCH  12  16
BRANCH  13  19
HETATM   19  N5  UNL     1      81.303  46.653   5.804  1.00  0.00    -0.383 N 
ATOM     20  H52 UNL     1      81.766  45.775   6.042  1.00  0.00     0.157 HD
ATOM     21  H51 UNL     1      81.453  47.505   6.346  1.00  0.00     0.157 HD
ENDBRANCH  13  19
ENDBRANCH   3   6
ENDBRANCH   1   2
BRANCH   1  22
HETATM   22  C3  UNL     1      84.853  49.854   3.466  1.00  0.00     0.341 C 
HETATM   23  O2  UNL     1      84.525  50.248   4.584  1.00  0.00    -0.255 OA
BRANCH  22  24
HETATM   24  C4  UNL     1      85.689  50.478   2.500  1.00  0.00     0.180 C 
BRANCH  24  25
HETATM   25  O3  UNL     1      85.811  49.817   1.360  1.00  0.00    -0.353 OA
ATOM     26  H3  UNL     1      85.343  50.198   0.626  1.00  0.00     0.218 HD
ENDBRANCH  24  25
BRANCH  24  27
HETATM   27  C5  UNL     1      86.446  51.705   2.512  1.00  0.00     0.152 A 
HETATM   28  O4  UNL     1      86.275  52.580   1.498  1.00  0.00    -0.303 OA
HETATM   29  C6  UNL     1      86.904  53.707   1.416  1.00  0.00     0.119 A 
HETATM   30  C9  UNL     1      87.812  54.132   2.353  1.00  0.00     0.151 A 
HETATM   31  C10 UNL     1      88.045  53.306   3.417  1.00  0.00     0.243 A 
HETATM   32  O7  UNL     1      88.857  53.618   4.316  1.00  0.00    -0.282 OA
HETATM   33  C11 UNL     1      87.340  52.091   3.465  1.00  0.00     0.156 A 
BRANCH  29  34
HETATM   34  C7  UNL     1      86.615  54.577   0.235  1.00  0.00     0.174 C 
HETATM   35  C8  UNL     1      85.742  55.750   0.627  1.00  0.00     0.046 C 
BRANCH  34  36
HETATM   36  O5  UNL     1      87.822  55.117  -0.244  1.00  0.00    -0.389 OA
ATOM     37  H5  UNL     1      87.807  55.116  -1.194  1.00  0.00     0.210 HD
ENDBRANCH  34  36
ENDBRANCH  29  34
BRANCH  30  38
HETATM   38  O6  UNL     1      88.474  55.368   2.223  1.00  0.00    -0.355 OA
ATOM     39  H6  UNL     1      89.339  55.506   2.590  1.00  0.00     0.218 HD
ENDBRANCH  30  38
BRANCH  33  40
HETATM   40  O8  UNL     1      87.606  51.301   4.546  1.00  0.00    -0.355 OA
ATOM     41  H8  UNL     1      87.268  50.415   4.604  1.00  0.00     0.218 HD
ENDBRANCH  33  40
ENDBRANCH  24  27
ENDBRANCH  22  24
ENDBRANCH   1  22
TORSDOF 13
ENDMDL
MODEL 4
REMARK VINA RESULT: -9.846738991      4.942      7.058
REMARK  13 active torsions:
REMARK  status: ('A' for Active; 'I' for Inactive)
REMARK    1  A    between atoms: C2_2  and  C12_26 
REMARK    2  A    between atoms: N1_3  and  O1_5 
REMARK    3  A    between atoms: O1_5  and  C3_6 
REMARK    4  A    between atoms: C3_6  and  C4_8 
REMARK    5  A    between atoms: C4_8  and  O3_9 
REMARK    6  A    between atoms: C4_8  and  C5_11 
REMARK    7  A    between atoms: C6_13  and  C7_14 
REMARK    8  A    between atoms: C7_14  and  O5_16 
REMARK    9  A    between atoms: C9_18  and  O6_19 
REMARK   10  A    between atoms: C11_23  and  O8_24 
REMARK   11  A    between atoms: C13_27  and  O9_28 
REMARK   12  A    between atoms: N3_34  and  N4_35 
REMARK   13  A    between atoms: C15_38  and  N5_39 
ROOT
HETATM    1  O1  UNL     1      86.201  51.740   2.579  1.00  0.00    -0.193 OA
ENDROOT
BRANCH   1   2
HETATM    2  N1  UNL     1      87.202  52.583   3.024  1.00  0.00    -0.261 N 
HETATM    3  C2  UNL     1      87.655  53.557   2.321  1.00  0.00     0.047 C 
HETATM    4  C1  UNL     1      87.072  53.766   0.993  1.00  0.00     0.071 C 
ATOM      5  H1  UNL     1      87.598  52.424   3.951  1.00  0.00     0.194 HD
BRANCH   3   6
HETATM    6  C12 UNL     1      88.704  54.394   2.857  1.00  0.00     0.084 A 
HETATM    7  C13 UNL     1      89.964  53.836   3.155  1.00  0.00     0.160 A 
HETATM    8  N2  UNL     1      90.983  54.542   3.653  1.00  0.00    -0.287 N 
HETATM    9  C14 UNL     1      90.805  55.865   3.888  1.00  0.00     0.348 A 
ATOM     10  H2  UNL     1      91.878  54.094   3.853  1.00  0.00     0.172 HD
HETATM   11  O10 UNL     1      91.803  56.496   4.363  1.00  0.00    -0.245 OA
HETATM   12  N3  UNL     1      89.634  56.450   3.627  1.00  0.00    -0.195 N 
HETATM   13  C15 UNL     1      88.601  55.743   3.124  1.00  0.00     0.141 A 
BRANCH   7  14
HETATM   14  O9  UNL     1      90.095  52.457   2.890  1.00  0.00    -0.345 OA
ATOM     15  H9  UNL     1      89.982  52.201   1.982  1.00  0.00     0.219 HD
ENDBRANCH   7  14
BRANCH  12  16
HETATM   16  N4  UNL     1      89.463  57.803   3.872  1.00  0.00    -0.333 N 
ATOM     17  H42 UNL     1      89.799  58.476   3.183  1.00  0.00     0.177 HD
ATOM     18  H41 UNL     1      89.005  58.115   4.729  1.00  0.00     0.177 HD
ENDBRANCH  12  16
BRANCH  13  19
HETATM   19  N5  UNL     1      87.461  56.328   2.874  1.00  0.00    -0.383 N 
ATOM     20  H52 UNL     1      86.585  55.817   2.982  1.00  0.00     0.157 HD
ATOM     21  H51 UNL     1      87.482  57.302   2.571  1.00  0.00     0.157 HD
ENDBRANCH  13  19
ENDBRANCH   3   6
ENDBRANCH   1   2
BRANCH   1  22
HETATM   22  C3  UNL     1      85.815  50.602   3.350  1.00  0.00     0.341 C 
HETATM   23  O2  UNL     1      85.752  50.836   4.556  1.00  0.00    -0.255 OA
BRANCH  22  24
HETATM   24  C4  UNL     1      85.561  49.389   2.653  1.00  0.00     0.180 C 
BRANCH  24  25
HETATM   25  O3  UNL     1      86.443  49.093   1.713  1.00  0.00    -0.353 OA
ATOM     26  H3  UNL     1      86.208  49.384   0.840  1.00  0.00     0.218 HD
ENDBRANCH  24  25
BRANCH  24  27
HETATM   27  C5  UNL     1      84.518  48.400   2.766  1.00  0.00     0.152 A 
HETATM   28  O4  UNL     1      83.370  48.739   3.391  1.00  0.00    -0.303 OA
HETATM   29  C6  UNL     1      82.376  47.927   3.543  1.00  0.00     0.119 A 
HETATM   30  C9  UNL     1      82.382  46.634   3.084  1.00  0.00     0.151 A 
HETATM   31  C10 UNL     1      83.508  46.207   2.436  1.00  0.00     0.243 A 
HETATM   32  O7  UNL     1      83.596  45.043   1.986  1.00  0.00    -0.282 OA
HETATM   33  C11 UNL     1      84.565  47.123   2.294  1.00  0.00     0.156 A 
BRANCH  29  34
HETATM   34  C7  UNL     1      81.166  48.440   4.258  1.00  0.00     0.174 C 
HETATM   35  C8  UNL     1      81.178  48.018   5.712  1.00  0.00     0.046 C 
BRANCH  34  36
HETATM   36  O5  UNL     1      81.187  49.845   4.246  1.00  0.00    -0.389 OA
ATOM     37  H5  UNL     1      80.984  50.151   3.370  1.00  0.00     0.210 HD
ENDBRANCH  34  36
ENDBRANCH  29  34
BRANCH  30  38
HETATM   38  O6  UNL     1      81.276  45.784   3.273  1.00  0.00    -0.355 OA
ATOM     39  H6  UNL     1      80.859  45.346   2.540  1.00  0.00     0.218 HD
ENDBRANCH  30  38
BRANCH  33  40
HETATM   40  O8  UNL     1      85.666  46.650   1.640  1.00  0.00    -0.355 OA
ATOM     41  H8  UNL     1      86.397  46.274   2.116  1.00  0.00     0.218 HD
ENDBRANCH  33  40
ENDBRANCH  24  27
ENDBRANCH  22  24
ENDBRANCH   1  22
TORSDOF 13
ENDMDL
MODEL 5
REMARK VINA RESULT: -9.814864658      5.277      7.520
REMARK  13 active torsions:
REMARK  status: ('A' for Active; 'I' for Inactive)
REMARK    1  A    between atoms: C2_2  and  C12_26 
REMARK    2  A    between atoms: N1_3  and  O1_5 
REMARK    3  A    between atoms: O1_5  and  C3_6 
REMARK    4  A    between atoms: C3_6  and  C4_8 
REMARK    5  A    between atoms: C4_8  and  O3_9 
REMARK    6  A    between atoms: C4_8  and  C5_11 
REMARK    7  A    between atoms: C6_13  and  C7_14 
REMARK    8  A    between atoms: C7_14  and  O5_16 
REMARK    9  A    between atoms: C9_18  and  O6_19 
REMARK   10  A    between atoms: C11_23  and  O8_24 
REMARK   11  A    between atoms: C13_27  and  O9_28 
REMARK   12  A    between atoms: N3_34  and  N4_35 
REMARK   13  A    between atoms: C15_38  and  N5_39 
ROOT
HETATM    1  O1  UNL     1      88.006  52.121   3.395  1.00  0.00    -0.193 OA
ENDROOT
BRANCH   1   2
HETATM    2  N1  UNL     1      88.143  53.040   2.372  1.00  0.00    -0.261 N 
HETATM    3  C2  UNL     1      88.010  54.305   2.550  1.00  0.00     0.047 C 
HETATM    4  C1  UNL     1      87.700  54.771   3.904  1.00  0.00     0.071 C 
ATOM      5  H1  UNL     1      88.358  52.699   1.435  1.00  0.00     0.194 HD
BRANCH   3   6
HETATM    6  C12 UNL     1      88.168  55.202   1.428  1.00  0.00     0.084 A 
HETATM    7  C13 UNL     1      89.353  55.952   1.291  1.00  0.00     0.160 A 
HETATM    8  N2  UNL     1      89.574  56.803   0.284  1.00  0.00    -0.287 N 
HETATM    9  C14 UNL     1      88.612  56.959  -0.659  1.00  0.00     0.348 A 
ATOM     10  H2  UNL     1      90.449  57.325   0.226  1.00  0.00     0.172 HD
HETATM   11  O10 UNL     1      88.866  57.780  -1.598  1.00  0.00    -0.245 OA
HETATM   12  N3  UNL     1      87.468  56.276  -0.582  1.00  0.00    -0.195 N 
HETATM   13  C15 UNL     1      87.239  55.416   0.432  1.00  0.00     0.141 A 
BRANCH   7  14
HETATM   14  O9  UNL     1      90.320  55.751   2.298  1.00  0.00    -0.345 OA
ATOM     15  H9  UNL     1      91.171  56.141   2.133  1.00  0.00     0.219 HD
ENDBRANCH   7  14
BRANCH  12  16
HETATM   16  N4  UNL     1      86.491  56.444  -1.551  1.00  0.00    -0.333 N 
ATOM     17  H42 UNL     1      86.122  57.379  -1.722  1.00  0.00     0.177 HD
ATOM     18  H41 UNL     1      86.153  55.641  -2.082  1.00  0.00     0.177 HD
ENDBRANCH  12  16
BRANCH  13  19
HETATM   19  N5  UNL     1      86.114  54.755   0.495  1.00  0.00    -0.383 N 
ATOM     20  H52 UNL     1      85.942  54.104   1.261  1.00  0.00     0.157 HD
ATOM     21  H51 UNL     1      85.426  54.915  -0.242  1.00  0.00     0.157 HD
ENDBRANCH  13  19
ENDBRANCH   3   6
ENDBRANCH   1   2
BRANCH   1  22
HETATM   22  C3  UNL     1      86.741  51.516   3.662  1.00  0.00     0.341 C 
HETATM   23  O2  UNL     1      86.373  51.664   4.826  1.00  0.00    -0.255 OA
BRANCH  22  24
HETATM   24  C4  UNL     1      86.090  50.846   2.590  1.00  0.00     0.180 C 
BRANCH  24  25
HETATM   25  O3  UNL     1      86.130  51.483   1.431  1.00  0.00    -0.353 OA
ATOM     26  H3  UNL     1      86.020  50.929   0.667  1.00  0.00     0.218 HD
ENDBRANCH  24  25
BRANCH  24  27
HETATM   27  C5  UNL     1      85.383  49.592   2.509  1.00  0.00     0.152 A 
HETATM   28  O4  UNL     1      84.233  49.453   3.204  1.00  0.00    -0.303 OA
HETATM   29  C6  UNL     1      83.526  48.371   3.198  1.00  0.00     0.119 A 
HETATM   30  C9  UNL     1      83.868  47.250   2.485  1.00  0.00     0.151 A 
HETATM   31  C10 UNL     1      85.020  47.306   1.751  1.00  0.00     0.243 A 
HETATM   32  O7  UNL     1      85.405  46.328   1.071  1.00  0.00    -0.282 OA
HETATM   33  C11 UNL     1      85.759  48.501   1.786  1.00  0.00     0.156 A 
BRANCH  29  34
HETATM   34  C7  UNL     1      82.274  48.358   4.016  1.00  0.00     0.174 C 
HETATM   35  C8  UNL     1      82.192  49.586   4.899  1.00  0.00     0.046 C 
BRANCH  34  36
HETATM   36  O5  UNL     1      81.163  48.408   3.156  1.00  0.00    -0.389 OA
ATOM     37  H5  UNL     1      81.421  48.093   2.298  1.00  0.00     0.210 HD
ENDBRANCH  34  36
ENDBRANCH  29  34
BRANCH  30  38
HETATM   38  O6  UNL     1      83.067  46.094   2.508  1.00  0.00    -0.355 OA
ATOM     39  H6  UNL     1      82.539  45.843   1.759  1.00  0.00     0.218 HD
ENDBRANCH  30  38
BRANCH  33  40
HETATM   40  O8  UNL     1      86.901  48.507   1.038  1.00  0.00    -0.355 OA
ATOM     41  H8  UNL     1      86.896  48.228   0.130  1.00  0.00     0.218 HD
ENDBRANCH  33  40
ENDBRANCH  24  27
ENDBRANCH  22  24
ENDBRANCH   1  22
TORSDOF 13
ENDMDL
