MODEL 1
REMARK VINA RESULT: -9.362862767      0.000      0.000
REMARK  18 active torsions:
REMARK  status: ('A' for Active; 'I' for Inactive)
REMARK    1  A    between atoms: C2_2  and  C3_3 
REMARK    2  A    between atoms: C4_5  and  C5_6 
REMARK    3  A    between atoms: C6_9  and  O4_10 
REMARK    4  A    between atoms: C7_12  and  C8_13 
REMARK    5  A    between atoms: C8_13  and  O6_15 
REMARK    6  A    between atoms: O6_15  and  C9_16 
REMARK    7  A    between atoms: C11_20  and  N2_21 
REMARK    8  A    between atoms: N2_21  and  C12_23 
REMARK    9  A    between atoms: C12_23  and  C13_25 
REMARK   10  A    between atoms: C13_25  and  N3_26 
REMARK   11  A    between atoms: C14_29  and  N5_30 
REMARK   12  A    between atoms: N5_30  and  N6_32 
REMARK   13  A    between atoms: N7_35  and  C15_36 
REMARK   14  A    between atoms: C15_36  and  C16_37 
REMARK   15  A    between atoms: C23_47  and  O10_48 
REMARK   16  A    between atoms: C23_47  and  C24_50 
REMARK   17  A    between atoms: C24_50  and  C25_51 
REMARK       I    between atoms: C25_51  and  N9_53 
REMARK   18  A    between atoms: N9_53  and  N10_55 
ROOT
HETATM    1  C9  UNL     1     -54.425  59.734   9.476  1.00  0.00     0.294 C 
HETATM    2  N1  UNL     1     -53.718  60.450  10.501  1.00  0.00    -0.220 N 
HETATM    3  C10 UNL     1     -53.965  61.247  11.553  1.00  0.00     0.292 A 
HETATM    4  O7  UNL     1     -55.100  61.613  11.956  1.00  0.00    -0.264 OA
HETATM    5  C11 UNL     1     -52.747  61.620  12.152  1.00  0.00     0.120 A 
HETATM    6  C21 UNL     1     -51.802  60.997  11.386  1.00  0.00     0.146 A 
HETATM    7  N8  UNL     1     -52.429  60.303  10.403  1.00  0.00    -0.290 N 
HETATM    8  C22 UNL     1     -52.058  59.445   9.279  1.00  0.00     0.191 C 
HETATM    9  C23 UNL     1     -53.345  59.200   8.562  1.00  0.00     0.130 C 
ENDROOT
BRANCH   5  10
HETATM   10  N2  UNL     1     -52.671  62.456  13.290  1.00  0.00    -0.344 N 
ATOM     11  H2  UNL     1     -52.819  62.000  14.190  1.00  0.00     0.167 HD
BRANCH  10  12
HETATM   12  C12 UNL     1     -52.417  63.831  13.334  1.00  0.00     0.098 C 
HETATM   13  S1  UNL     1     -53.276  64.785  14.394  1.00  0.00    -0.063 SA
BRANCH  12  14
HETATM   14  C13 UNL     1     -51.432  64.534  12.508  1.00  0.00     0.224 C 
BRANCH  14  15
HETATM   15  N3  UNL     1     -50.311  64.952  13.353  1.00  0.00    -0.221 N 
HETATM   16  N4  UNL     1     -49.497  64.132  13.997  1.00  0.00    -0.124 N 
HETATM   17  C14 UNL     1     -48.577  64.843  14.676  1.00  0.00     0.717 A 
ATOM     18  H4  UNL     1     -49.557  63.114  13.981  1.00  0.00     0.206 HD
HETATM   19  N7  UNL     1     -48.801  66.144  14.468  1.00  0.00    -0.126 N 
HETATM   20  C20 UNL     1     -49.888  66.176  13.638  1.00  0.00     0.358 A 
HETATM   21  O9  UNL     1     -50.391  67.247  13.224  1.00  0.00    -0.244 OA
BRANCH  17  22
HETATM   22  N5  UNL     1     -47.553  64.245  15.441  1.00  0.00    -0.137 N 
ATOM     23  H5  UNL     1     -47.799  63.750  16.298  1.00  0.00     0.205 HD
BRANCH  22  24
HETATM   24  N6  UNL     1     -46.200  64.314  15.055  1.00  0.00    -0.331 N 
ATOM     25  H62 UNL     1     -45.768  63.475  14.667  1.00  0.00     0.177 HD
ATOM     26  H61 UNL     1     -45.654  65.171  15.155  1.00  0.00     0.177 HD
ENDBRANCH  22  24
ENDBRANCH  17  22
BRANCH  19  27
HETATM   27  C15 UNL     1     -48.119  67.276  14.990  1.00  0.00     0.184 C 
BRANCH  27  28
HETATM   28  C16 UNL     1     -47.099  67.922  14.133  1.00  0.00     0.140 C 
HETATM   29  C17 UNL     1     -47.373  69.325  13.749  1.00  0.00     0.036 C 
HETATM   30  C18 UNL     1     -46.887  70.133  14.930  1.00  0.00     0.029 C 
HETATM   31  C19 UNL     1     -45.987  69.169  15.640  1.00  0.00     0.168 C 
HETATM   32  O8  UNL     1     -45.917  68.022  14.895  1.00  0.00    -0.384 OA
ENDBRANCH  27  28
ENDBRANCH  19  27
ENDBRANCH  14  15
ENDBRANCH  12  14
ENDBRANCH  10  12
ENDBRANCH   5  10
BRANCH   1  33
HETATM   33  O6  UNL     1     -55.281  58.739   9.953  1.00  0.00    -0.286 OA
BRANCH  33  34
HETATM   34  C8  UNL     1     -56.644  58.912  10.099  1.00  0.00     0.300 C 
HETATM   35  O5  UNL     1     -57.214  58.140  10.896  1.00  0.00    -0.259 OA
BRANCH  34  36
HETATM   36  C7  UNL     1     -57.416  59.914   9.396  1.00  0.00     0.105 A 
HETATM   37  C3  UNL     1     -57.784  59.911   8.071  1.00  0.00     0.073 A 
HETATM   38  O1  UNL     1     -58.493  61.005   7.798  1.00  0.00    -0.304 OA
HETATM   39  C4  UNL     1     -58.617  61.736   8.873  1.00  0.00     0.186 A 
HETATM   40  C6  UNL     1     -57.947  61.084   9.923  1.00  0.00     0.125 A 
BRANCH  37  41
HETATM   41  C2  UNL     1     -57.431  58.835   7.098  1.00  0.00     0.062 C 
HETATM   42  C1  UNL     1     -58.424  57.712   7.075  1.00  0.00     0.012 C 
ENDBRANCH  37  41
BRANCH  39  43
HETATM   43  C5  UNL     1     -59.317  63.006   8.995  1.00  0.00     0.237 C 
HETATM   44  O2  UNL     1     -59.496  63.703   7.968  1.00  0.00    -0.642 OA
HETATM   45  O3  UNL     1     -59.798  63.481  10.205  1.00  0.00    -0.642 OA
ENDBRANCH  39  43
BRANCH  40  46
HETATM   46  O4  UNL     1     -57.884  61.587  11.195  1.00  0.00    -0.357 OA
ATOM     47  H4  UNL     1     -57.525  61.101  11.928  1.00  0.00     0.218 HD
ENDBRANCH  40  46
ENDBRANCH  34  36
ENDBRANCH  33  34
ENDBRANCH   1  33
BRANCH   9  48
HETATM   48  O10 UNL     1     -53.547  57.873   8.226  1.00  0.00    -0.383 OA
ATOM     49  H10 UNL     1     -53.034  57.608   7.472  1.00  0.00     0.210 HD
ENDBRANCH   9  48
BRANCH   9  50
HETATM   50  C24 UNL     1     -53.293  60.039   7.282  1.00  0.00     0.148 C 
BRANCH  50  51
HETATM   51  C25 UNL     1     -51.992  59.860   6.614  1.00  0.00     0.238 C 
HETATM   52  O11 UNL     1     -51.727  58.780   6.011  1.00  0.00    -0.272 OA
HETATM   53  N9  UNL     1     -50.984  60.845   6.599  1.00  0.00    -0.277 N 
ATOM     54  H9  UNL     1     -51.169  61.727   7.077  1.00  0.00     0.189 HD
BRANCH  53  55
HETATM   55  N10 UNL     1     -49.750  60.687   5.969  1.00  0.00    -0.343 N 
ATOM     56 2H10 UNL     1     -48.961  60.414   6.557  1.00  0.00     0.176 HD
ATOM     57 1H10 UNL     1     -49.597  60.827   4.970  1.00  0.00     0.176 HD
ENDBRANCH  53  55
ENDBRANCH  50  51
ENDBRANCH   9  50
TORSDOF 18
ENDMDL
MODEL 2
REMARK VINA RESULT: -9.240905057      3.448      5.851
REMARK  18 active torsions:
REMARK  status: ('A' for Active; 'I' for Inactive)
REMARK    1  A    between atoms: C2_2  and  C3_3 
REMARK    2  A    between atoms: C4_5  and  C5_6 
REMARK    3  A    between atoms: C6_9  and  O4_10 
REMARK    4  A    between atoms: C7_12  and  C8_13 
REMARK    5  A    between atoms: C8_13  and  O6_15 
REMARK    6  A    between atoms: O6_15  and  C9_16 
REMARK    7  A    between atoms: C11_20  and  N2_21 
REMARK    8  A    between atoms: N2_21  and  C12_23 
REMARK    9  A    between atoms: C12_23  and  C13_25 
REMARK   10  A    between atoms: C13_25  and  N3_26 
REMARK   11  A    between atoms: C14_29  and  N5_30 
REMARK   12  A    between atoms: N5_30  and  N6_32 
REMARK   13  A    between atoms: N7_35  and  C15_36 
REMARK   14  A    between atoms: C15_36  and  C16_37 
REMARK   15  A    between atoms: C23_47  and  O10_48 
REMARK   16  A    between atoms: C23_47  and  C24_50 
REMARK   17  A    between atoms: C24_50  and  C25_51 
REMARK       I    between atoms: C25_51  and  N9_53 
REMARK   18  A    between atoms: N9_53  and  N10_55 
ROOT
HETATM    1  C9  UNL     1     -54.212  59.755   9.575  1.00  0.00     0.294 C 
HETATM    2  N1  UNL     1     -53.501  60.449  10.612  1.00  0.00    -0.220 N 
HETATM    3  C10 UNL     1     -53.745  61.219  11.686  1.00  0.00     0.292 A 
HETATM    4  O7  UNL     1     -54.877  61.569  12.106  1.00  0.00    -0.264 OA
HETATM    5  C11 UNL     1     -52.523  61.583  12.285  1.00  0.00     0.120 A 
HETATM    6  C21 UNL     1     -51.581  60.983  11.497  1.00  0.00     0.146 A 
HETATM    7  N8  UNL     1     -52.212  60.310  10.502  1.00  0.00    -0.290 N 
HETATM    8  C22 UNL     1     -51.846  59.482   9.354  1.00  0.00     0.191 C 
HETATM    9  C23 UNL     1     -53.137  59.248   8.641  1.00  0.00     0.130 C 
ENDROOT
BRANCH   5  10
HETATM   10  N2  UNL     1     -52.443  62.391  13.442  1.00  0.00    -0.344 N 
ATOM     11  H2  UNL     1     -52.709  61.943  14.319  1.00  0.00     0.167 HD
BRANCH  10  12
HETATM   12  C12 UNL     1     -52.043  63.729  13.533  1.00  0.00     0.098 C 
HETATM   13  S1  UNL     1     -50.577  64.187  12.890  1.00  0.00    -0.063 SA
BRANCH  12  14
HETATM   14  C13 UNL     1     -52.820  64.801  14.160  1.00  0.00     0.224 C 
BRANCH  14  15
HETATM   15  N3  UNL     1     -54.235  64.624  13.829  1.00  0.00    -0.221 N 
HETATM   16  N4  UNL     1     -54.720  64.495  12.605  1.00  0.00    -0.124 N 
HETATM   17  C14 UNL     1     -56.058  64.347  12.658  1.00  0.00     0.717 A 
ATOM     18  H4  UNL     1     -54.165  64.507  11.750  1.00  0.00     0.206 HD
HETATM   19  N7  UNL     1     -56.443  64.381  13.937  1.00  0.00    -0.126 N 
HETATM   20  C20 UNL     1     -55.282  64.554  14.640  1.00  0.00     0.358 A 
HETATM   21  O9  UNL     1     -55.255  64.632  15.891  1.00  0.00    -0.244 OA
BRANCH  17  22
HETATM   22  N5  UNL     1     -56.858  64.162  11.510  1.00  0.00    -0.137 N 
ATOM     23  H5  UNL     1     -57.873  64.209  11.601  1.00  0.00     0.205 HD
BRANCH  22  24
HETATM   24  N6  UNL     1     -56.294  63.914  10.244  1.00  0.00    -0.331 N 
ATOM     25  H62 UNL     1     -56.807  63.313   9.599  1.00  0.00     0.177 HD
ATOM     26  H61 UNL     1     -55.399  64.318   9.964  1.00  0.00     0.177 HD
ENDBRANCH  22  24
ENDBRANCH  17  22
BRANCH  19  27
HETATM   27  C15 UNL     1     -57.748  64.297  14.494  1.00  0.00     0.184 C 
BRANCH  27  28
HETATM   28  C16 UNL     1     -58.353  62.952  14.630  1.00  0.00     0.140 C 
HETATM   29  C17 UNL     1     -59.436  62.830  15.632  1.00  0.00     0.036 C 
HETATM   30  C18 UNL     1     -60.670  63.307  14.902  1.00  0.00     0.029 C 
HETATM   31  C19 UNL     1     -60.260  63.210  13.465  1.00  0.00     0.168 C 
HETATM   32  O8  UNL     1     -59.005  62.663  13.414  1.00  0.00    -0.384 OA
ENDBRANCH  27  28
ENDBRANCH  19  27
ENDBRANCH  14  15
ENDBRANCH  12  14
ENDBRANCH  10  12
ENDBRANCH   5  10
BRANCH   1  33
HETATM   33  O6  UNL     1     -55.060  58.744  10.034  1.00  0.00    -0.286 OA
BRANCH  33  34
HETATM   34  C8  UNL     1     -56.422  58.909  10.197  1.00  0.00     0.300 C 
HETATM   35  O5  UNL     1     -56.961  58.198  11.071  1.00  0.00    -0.259 OA
BRANCH  34  36
HETATM   36  C7  UNL     1     -57.227  59.836   9.431  1.00  0.00     0.105 A 
HETATM   37  C3  UNL     1     -57.545  59.765   8.095  1.00  0.00     0.073 A 
HETATM   38  O1  UNL     1     -58.308  60.802   7.758  1.00  0.00    -0.304 OA
HETATM   39  C4  UNL     1     -58.516  61.560   8.800  1.00  0.00     0.186 A 
HETATM   40  C6  UNL     1     -57.848  60.988   9.896  1.00  0.00     0.125 A 
BRANCH  37  41
HETATM   41  C2  UNL     1     -57.090  58.679   7.176  1.00  0.00     0.062 C 
HETATM   42  C1  UNL     1     -58.195  57.754   6.763  1.00  0.00     0.012 C 
ENDBRANCH  37  41
BRANCH  39  43
HETATM   43  C5  UNL     1     -59.297  62.787   8.851  1.00  0.00     0.237 C 
HETATM   44  O2  UNL     1     -59.877  63.183   7.810  1.00  0.00    -0.642 OA
HETATM   45  O3  UNL     1     -59.429  63.542  10.005  1.00  0.00    -0.642 OA
ENDBRANCH  39  43
BRANCH  40  46
HETATM   46  O4  UNL     1     -57.864  61.537  11.150  1.00  0.00    -0.357 OA
ATOM     47  H4  UNL     1     -58.620  61.498  11.724  1.00  0.00     0.218 HD
ENDBRANCH  40  46
ENDBRANCH  34  36
ENDBRANCH  33  34
ENDBRANCH   1  33
BRANCH   9  48
HETATM   48  O10 UNL     1     -53.335  57.929   8.274  1.00  0.00    -0.383 OA
ATOM     49  H10 UNL     1     -52.814  57.680   7.520  1.00  0.00     0.210 HD
ENDBRANCH   9  48
BRANCH   9  50
HETATM   50  C24 UNL     1     -53.098  60.119   7.381  1.00  0.00     0.148 C 
BRANCH  50  51
HETATM   51  C25 UNL     1     -51.834  59.901   6.656  1.00  0.00     0.238 C 
HETATM   52  O11 UNL     1     -51.658  58.845   5.983  1.00  0.00    -0.272 OA
HETATM   53  N9  UNL     1     -50.767  60.822   6.661  1.00  0.00    -0.277 N 
ATOM     54  H9  UNL     1     -50.879  61.683   7.196  1.00  0.00     0.189 HD
BRANCH  53  55
HETATM   55  N10 UNL     1     -49.566  60.627   5.978  1.00  0.00    -0.343 N 
ATOM     56 2H10 UNL     1     -49.512  60.987   5.025  1.00  0.00     0.176 HD
ATOM     57 1H10 UNL     1     -48.755  60.152   6.374  1.00  0.00     0.176 HD
ENDBRANCH  53  55
ENDBRANCH  50  51
ENDBRANCH   9  50
TORSDOF 18
ENDMDL
MODEL 3
REMARK VINA RESULT: -9.024556356      4.728      9.779
REMARK  18 active torsions:
REMARK  status: ('A' for Active; 'I' for Inactive)
REMARK    1  A    between atoms: C2_2  and  C3_3 
REMARK    2  A    between atoms: C4_5  and  C5_6 
REMARK    3  A    between atoms: C6_9  and  O4_10 
REMARK    4  A    between atoms: C7_12  and  C8_13 
REMARK    5  A    between atoms: C8_13  and  O6_15 
REMARK    6  A    between atoms: O6_15  and  C9_16 
REMARK    7  A    between atoms: C11_20  and  N2_21 
REMARK    8  A    between atoms: N2_21  and  C12_23 
REMARK    9  A    between atoms: C12_23  and  C13_25 
REMARK   10  A    between atoms: C13_25  and  N3_26 
REMARK   11  A    between atoms: C14_29  and  N5_30 
REMARK   12  A    between atoms: N5_30  and  N6_32 
REMARK   13  A    between atoms: N7_35  and  C15_36 
REMARK   14  A    between atoms: C15_36  and  C16_37 
REMARK   15  A    between atoms: C23_47  and  O10_48 
REMARK   16  A    between atoms: C23_47  and  C24_50 
REMARK   17  A    between atoms: C24_50  and  C25_51 
REMARK       I    between atoms: C25_51  and  N9_53 
REMARK   18  A    between atoms: N9_53  and  N10_55 
ROOT
HETATM    1  C9  UNL     1     -52.625  59.981   8.705  1.00  0.00     0.294 C 
HETATM    2  N1  UNL     1     -53.985  59.537   8.571  1.00  0.00    -0.220 N 
HETATM    3  C10 UNL     1     -55.003  59.101   9.331  1.00  0.00     0.292 A 
HETATM    4  O7  UNL     1     -54.987  58.961  10.581  1.00  0.00    -0.264 OA
HETATM    5  C11 UNL     1     -56.111  58.820   8.510  1.00  0.00     0.120 A 
HETATM    6  C21 UNL     1     -55.669  59.117   7.251  1.00  0.00     0.146 A 
HETATM    7  N8  UNL     1     -54.384  59.545   7.332  1.00  0.00    -0.290 N 
HETATM    8  C22 UNL     1     -53.338  60.009   6.422  1.00  0.00     0.191 C 
HETATM    9  C23 UNL     1     -52.128  60.139   7.287  1.00  0.00     0.130 C 
ENDROOT
BRANCH   5  10
HETATM   10  N2  UNL     1     -57.344  58.346   9.014  1.00  0.00    -0.344 N 
ATOM     11  H2  UNL     1     -57.497  57.340   8.947  1.00  0.00     0.167 HD
BRANCH  10  12
HETATM   12  C12 UNL     1     -58.380  59.087   9.592  1.00  0.00     0.098 C 
HETATM   13  S1  UNL     1     -59.209  60.193   8.662  1.00  0.00    -0.063 SA
BRANCH  12  14
HETATM   14  C13 UNL     1     -58.822  58.977  10.984  1.00  0.00     0.224 C 
BRANCH  14  15
HETATM   15  N3  UNL     1     -58.554  57.620  11.466  1.00  0.00    -0.221 N 
HETATM   16  N4  UNL     1     -59.072  56.516  10.956  1.00  0.00    -0.124 N 
HETATM   17  C14 UNL     1     -58.615  55.444  11.632  1.00  0.00     0.717 A 
ATOM     18  H4  UNL     1     -59.719  56.481  10.169  1.00  0.00     0.206 HD
HETATM   19  N7  UNL     1     -57.790  55.864  12.595  1.00  0.00    -0.126 N 
HETATM   20  C20 UNL     1     -57.774  57.225  12.463  1.00  0.00     0.358 A 
HETATM   21  O9  UNL     1     -57.095  57.969  13.210  1.00  0.00    -0.244 OA
BRANCH  17  22
HETATM   22  N5  UNL     1     -58.971  54.118  11.304  1.00  0.00    -0.137 N 
ATOM     23  H5  UNL     1     -59.738  53.672  11.807  1.00  0.00     0.205 HD
BRANCH  22  24
HETATM   24  N6  UNL     1     -58.297  53.394  10.301  1.00  0.00    -0.331 N 
ATOM     25  H62 UNL     1     -58.016  53.892   9.456  1.00  0.00     0.177 HD
ATOM     26  H61 UNL     1     -58.089  52.400  10.402  1.00  0.00     0.177 HD
ENDBRANCH  22  24
ENDBRANCH  17  22
BRANCH  19  27
HETATM   27  C15 UNL     1     -57.090  55.115  13.580  1.00  0.00     0.184 C 
BRANCH  27  28
HETATM   28  C16 UNL     1     -55.765  54.564  13.213  1.00  0.00     0.140 C 
HETATM   29  C17 UNL     1     -54.990  53.958  14.319  1.00  0.00     0.036 C 
HETATM   30  C18 UNL     1     -55.540  52.554  14.430  1.00  0.00     0.029 C 
HETATM   31  C19 UNL     1     -56.221  52.363  13.110  1.00  0.00     0.168 C 
HETATM   32  O8  UNL     1     -55.992  53.476  12.345  1.00  0.00    -0.384 OA
ENDBRANCH  27  28
ENDBRANCH  19  27
ENDBRANCH  14  15
ENDBRANCH  12  14
ENDBRANCH  10  12
ENDBRANCH   5  10
BRANCH   1  33
HETATM   33  O6  UNL     1     -52.470  61.138   9.473  1.00  0.00    -0.286 OA
BRANCH  33  34
HETATM   34  C8  UNL     1     -52.286  61.124  10.842  1.00  0.00     0.300 C 
HETATM   35  O5  UNL     1     -51.610  60.178  11.296  1.00  0.00    -0.259 OA
BRANCH  34  36
HETATM   36  C7  UNL     1     -52.820  62.120  11.746  1.00  0.00     0.105 A 
HETATM   37  C3  UNL     1     -52.119  63.058  12.467  1.00  0.00     0.073 A 
HETATM   38  O1  UNL     1     -52.963  63.799  13.183  1.00  0.00    -0.304 OA
HETATM   39  C4  UNL     1     -54.189  63.403  12.975  1.00  0.00     0.186 A 
HETATM   40  C6  UNL     1     -54.155  62.333  12.064  1.00  0.00     0.125 A 
BRANCH  37  41
HETATM   41  C2  UNL     1     -50.634  63.208  12.441  1.00  0.00     0.062 C 
HETATM   42  C1  UNL     1     -50.117  64.157  13.479  1.00  0.00     0.012 C 
ENDBRANCH  37  41
BRANCH  39  43
HETATM   43  C5  UNL     1     -55.401  63.952  13.566  1.00  0.00     0.237 C 
HETATM   44  O2  UNL     1     -56.240  63.167  14.073  1.00  0.00    -0.642 OA
HETATM   45  O3  UNL     1     -55.672  65.310  13.594  1.00  0.00    -0.642 OA
ENDBRANCH  39  43
BRANCH  40  46
HETATM   46  O4  UNL     1     -55.280  61.684  11.631  1.00  0.00    -0.357 OA
ATOM     47  H4  UNL     1     -55.276  60.782  11.333  1.00  0.00     0.218 HD
ENDBRANCH  40  46
ENDBRANCH  34  36
ENDBRANCH  33  34
ENDBRANCH   1  33
BRANCH   9  48
HETATM   48  O10 UNL     1     -51.439  61.324   7.098  1.00  0.00    -0.383 OA
ATOM     49  H10 UNL     1     -51.228  61.479   6.185  1.00  0.00     0.210 HD
ENDBRANCH   9  48
BRANCH   9  50
HETATM   50  C24 UNL     1     -51.212  58.964   6.929  1.00  0.00     0.148 C 
BRANCH  50  51
HETATM   51  C25 UNL     1     -50.867  59.011   5.497  1.00  0.00     0.238 C 
HETATM   52  O11 UNL     1     -51.173  58.049   4.735  1.00  0.00    -0.272 OA
HETATM   53  N9  UNL     1     -50.194  60.094   4.895  1.00  0.00    -0.277 N 
ATOM     54  H9  UNL     1     -49.934  60.884   5.485  1.00  0.00     0.189 HD
BRANCH  53  55
HETATM   55  N10 UNL     1     -49.863  60.149   3.541  1.00  0.00    -0.343 N 
ATOM     56 2H10 UNL     1     -49.541  59.283   3.108  1.00  0.00     0.176 HD
ATOM     57 1H10 UNL     1     -49.926  60.994   2.973  1.00  0.00     0.176 HD
ENDBRANCH  53  55
ENDBRANCH  50  51
ENDBRANCH   9  50
TORSDOF 18
ENDMDL
MODEL 4
REMARK VINA RESULT: -9.015449880      1.153      1.906
REMARK  18 active torsions:
REMARK  status: ('A' for Active; 'I' for Inactive)
REMARK    1  A    between atoms: C2_2  and  C3_3 
REMARK    2  A    between atoms: C4_5  and  C5_6 
REMARK    3  A    between atoms: C6_9  and  O4_10 
REMARK    4  A    between atoms: C7_12  and  C8_13 
REMARK    5  A    between atoms: C8_13  and  O6_15 
REMARK    6  A    between atoms: O6_15  and  C9_16 
REMARK    7  A    between atoms: C11_20  and  N2_21 
REMARK    8  A    between atoms: N2_21  and  C12_23 
REMARK    9  A    between atoms: C12_23  and  C13_25 
REMARK   10  A    between atoms: C13_25  and  N3_26 
REMARK   11  A    between atoms: C14_29  and  N5_30 
REMARK   12  A    between atoms: N5_30  and  N6_32 
REMARK   13  A    between atoms: N7_35  and  C15_36 
REMARK   14  A    between atoms: C15_36  and  C16_37 
REMARK   15  A    between atoms: C23_47  and  O10_48 
REMARK   16  A    between atoms: C23_47  and  C24_50 
REMARK   17  A    between atoms: C24_50  and  C25_51 
REMARK       I    between atoms: C25_51  and  N9_53 
REMARK   18  A    between atoms: N9_53  and  N10_55 
ROOT
HETATM    1  C9  UNL     1     -54.465  59.652   9.249  1.00  0.00     0.294 C 
HETATM    2  N1  UNL     1     -53.822  60.362  10.320  1.00  0.00    -0.220 N 
HETATM    3  C10 UNL     1     -54.135  61.136  11.372  1.00  0.00     0.292 A 
HETATM    4  O7  UNL     1     -55.294  61.476  11.724  1.00  0.00    -0.264 OA
HETATM    5  C11 UNL     1     -52.955  61.518  12.038  1.00  0.00     0.120 A 
HETATM    6  C21 UNL     1     -51.962  60.923  11.310  1.00  0.00     0.146 A 
HETATM    7  N8  UNL     1     -52.528  60.237  10.285  1.00  0.00    -0.290 N 
HETATM    8  C22 UNL     1     -52.087  59.405   9.166  1.00  0.00     0.191 C 
HETATM    9  C23 UNL     1     -53.332  59.152   8.382  1.00  0.00     0.130 C 
ENDROOT
BRANCH   5  10
HETATM   10  N2  UNL     1     -52.950  62.334  13.192  1.00  0.00    -0.344 N 
ATOM     11  H2  UNL     1     -53.204  61.874  14.066  1.00  0.00     0.167 HD
BRANCH  10  12
HETATM   12  C12 UNL     1     -52.639  63.695  13.283  1.00  0.00     0.098 C 
HETATM   13  S1  UNL     1     -53.407  64.632  14.426  1.00  0.00    -0.063 SA
BRANCH  12  14
HETATM   14  C13 UNL     1     -51.667  64.398  12.442  1.00  0.00     0.224 C 
BRANCH  14  15
HETATM   15  N3  UNL     1     -50.539  64.828  13.271  1.00  0.00    -0.221 N 
HETATM   16  N4  UNL     1     -49.718  64.018  13.918  1.00  0.00    -0.124 N 
HETATM   17  C14 UNL     1     -48.793  64.739  14.580  1.00  0.00     0.717 A 
ATOM     18  H4  UNL     1     -49.777  63.000  13.916  1.00  0.00     0.206 HD
HETATM   19  N7  UNL     1     -49.022  66.037  14.357  1.00  0.00    -0.126 N 
HETATM   20  C20 UNL     1     -50.116  66.056  13.536  1.00  0.00     0.358 A 
HETATM   21  O9  UNL     1     -50.624  67.121  13.112  1.00  0.00    -0.244 OA
BRANCH  17  22
HETATM   22  N5  UNL     1     -47.762  64.153  15.344  1.00  0.00    -0.137 N 
ATOM     23  H5  UNL     1     -48.007  63.540  16.121  1.00  0.00     0.205 HD
BRANCH  22  24
HETATM   24  N6  UNL     1     -46.402  64.392  15.064  1.00  0.00    -0.331 N 
ATOM     25  H62 UNL     1     -45.707  64.042  15.724  1.00  0.00     0.177 HD
ATOM     26  H61 UNL     1     -46.105  64.899  14.229  1.00  0.00     0.177 HD
ENDBRANCH  22  24
ENDBRANCH  17  22
BRANCH  19  27
HETATM   27  C15 UNL     1     -48.337  67.177  14.858  1.00  0.00     0.184 C 
BRANCH  27  28
HETATM   28  C16 UNL     1     -47.275  67.770  14.013  1.00  0.00     0.140 C 
HETATM   29  C17 UNL     1     -47.425  69.210  13.705  1.00  0.00     0.036 C 
HETATM   30  C18 UNL     1     -46.848  69.909  14.914  1.00  0.00     0.029 C 
HETATM   31  C19 UNL     1     -46.030  68.832  15.557  1.00  0.00     0.168 C 
HETATM   32  O8  UNL     1     -46.077  67.723  14.755  1.00  0.00    -0.384 OA
ENDBRANCH  27  28
ENDBRANCH  19  27
ENDBRANCH  14  15
ENDBRANCH  12  14
ENDBRANCH  10  12
ENDBRANCH   5  10
BRANCH   1  33
HETATM   33  O6  UNL     1     -55.327  58.635   9.666  1.00  0.00    -0.286 OA
BRANCH  33  34
HETATM   34  C8  UNL     1     -56.693  58.666   9.467  1.00  0.00     0.300 C 
HETATM   35  O5  UNL     1     -57.133  57.934   8.557  1.00  0.00    -0.259 OA
BRANCH  34  36
HETATM   36  C7  UNL     1     -57.610  59.477  10.239  1.00  0.00     0.105 A 
HETATM   37  C3  UNL     1     -58.441  60.471   9.778  1.00  0.00     0.073 A 
HETATM   38  O1  UNL     1     -59.135  60.984  10.792  1.00  0.00    -0.304 OA
HETATM   39  C4  UNL     1     -58.810  60.384  11.904  1.00  0.00     0.186 A 
HETATM   40  C6  UNL     1     -57.839  59.411  11.608  1.00  0.00     0.125 A 
BRANCH  37  41
HETATM   41  C2  UNL     1     -58.537  60.898   8.351  1.00  0.00     0.062 C 
HETATM   42  C1  UNL     1     -58.996  62.316   8.188  1.00  0.00     0.012 C 
ENDBRANCH  37  41
BRANCH  39  43
HETATM   43  C5  UNL     1     -59.339  60.650  13.234  1.00  0.00     0.237 C 
HETATM   44  O2  UNL     1     -58.943  59.949  14.197  1.00  0.00    -0.642 OA
HETATM   45  O3  UNL     1     -60.266  61.648  13.484  1.00  0.00    -0.642 OA
ENDBRANCH  39  43
BRANCH  40  46
HETATM   46  O4  UNL     1     -57.281  58.598  12.557  1.00  0.00    -0.357 OA
ATOM     47  H4  UNL     1     -57.464  58.683  13.485  1.00  0.00     0.218 HD
ENDBRANCH  40  46
ENDBRANCH  34  36
ENDBRANCH  33  34
ENDBRANCH   1  33
BRANCH   9  48
HETATM   48  O10 UNL     1     -53.494  57.828   8.014  1.00  0.00    -0.383 OA
ATOM     49  H10 UNL     1     -52.785  57.515   7.466  1.00  0.00     0.210 HD
ENDBRANCH   9  48
BRANCH   9  50
HETATM   50  C24 UNL     1     -53.231  60.015   7.120  1.00  0.00     0.148 C 
BRANCH  50  51
HETATM   51  C25 UNL     1     -51.905  59.847   6.500  1.00  0.00     0.238 C 
HETATM   52  O11 UNL     1     -51.619  58.782   5.881  1.00  0.00    -0.272 OA
HETATM   53  N9  UNL     1     -50.894  60.829   6.550  1.00  0.00    -0.277 N 
ATOM     54  H9  UNL     1     -51.095  61.699   7.043  1.00  0.00     0.189 HD
BRANCH  53  55
HETATM   55  N10 UNL     1     -49.636  60.682   5.966  1.00  0.00    -0.343 N 
ATOM     56 2H10 UNL     1     -48.857  61.165   6.416  1.00  0.00     0.176 HD
ATOM     57 1H10 UNL     1     -49.457  60.126   5.129  1.00  0.00     0.176 HD
ENDBRANCH  53  55
ENDBRANCH  50  51
ENDBRANCH   9  50
TORSDOF 18
ENDMDL
MODEL 5
REMARK VINA RESULT: -8.974075677      4.428     11.183
REMARK  18 active torsions:
REMARK  status: ('A' for Active; 'I' for Inactive)
REMARK    1  A    between atoms: C2_2  and  C3_3 
REMARK    2  A    between atoms: C4_5  and  C5_6 
REMARK    3  A    between atoms: C6_9  and  O4_10 
REMARK    4  A    between atoms: C7_12  and  C8_13 
REMARK    5  A    between atoms: C8_13  and  O6_15 
REMARK    6  A    between atoms: O6_15  and  C9_16 
REMARK    7  A    between atoms: C11_20  and  N2_21 
REMARK    8  A    between atoms: N2_21  and  C12_23 
REMARK    9  A    between atoms: C12_23  and  C13_25 
REMARK   10  A    between atoms: C13_25  and  N3_26 
REMARK   11  A    between atoms: C14_29  and  N5_30 
REMARK   12  A    between atoms: N5_30  and  N6_32 
REMARK   13  A    between atoms: N7_35  and  C15_36 
REMARK   14  A    between atoms: C15_36  and  C16_37 
REMARK   15  A    between atoms: C23_47  and  O10_48 
REMARK   16  A    between atoms: C23_47  and  C24_50 
REMARK   17  A    between atoms: C24_50  and  C25_51 
REMARK       I    between atoms: C25_51  and  N9_53 
REMARK   18  A    between atoms: N9_53  and  N10_55 
ROOT
HETATM    1  C9  UNL     1     -54.106  60.887  10.064  1.00  0.00     0.294 C 
HETATM    2  N1  UNL     1     -53.570  60.117   8.977  1.00  0.00    -0.220 N 
HETATM    3  C10 UNL     1     -52.495  60.087   8.172  1.00  0.00     0.292 A 
HETATM    4  O7  UNL     1     -51.525  60.886   8.200  1.00  0.00    -0.264 OA
HETATM    5  C11 UNL     1     -52.615  59.009   7.274  1.00  0.00     0.120 A 
HETATM    6  C21 UNL     1     -53.808  58.434   7.611  1.00  0.00     0.146 A 
HETATM    7  N8  UNL     1     -54.351  59.132   8.641  1.00  0.00    -0.290 N 
HETATM    8  C22 UNL     1     -55.556  59.080   9.467  1.00  0.00     0.191 C 
HETATM    9  C23 UNL     1     -55.490  60.323  10.293  1.00  0.00     0.130 C 
ENDROOT
BRANCH   5  10
HETATM   10  N2  UNL     1     -51.638  58.706   6.298  1.00  0.00    -0.344 N 
ATOM     11  H2  UNL     1     -51.314  57.739   6.274  1.00  0.00     0.167 HD
BRANCH  10  12
HETATM   12  C12 UNL     1     -51.061  59.568   5.360  1.00  0.00     0.098 C 
HETATM   13  S1  UNL     1     -49.566  60.231   5.674  1.00  0.00    -0.063 SA
BRANCH  12  14
HETATM   14  C13 UNL     1     -51.667  59.956   4.083  1.00  0.00     0.224 C 
BRANCH  14  15
HETATM   15  N3  UNL     1     -51.174  59.067   3.029  1.00  0.00    -0.221 N 
HETATM   16  N4  UNL     1     -49.986  59.154   2.456  1.00  0.00    -0.124 N 
HETATM   17  C14 UNL     1     -49.854  58.183   1.531  1.00  0.00     0.717 A 
ATOM     18  H4  UNL     1     -49.276  59.851   2.679  1.00  0.00     0.206 HD
HETATM   19  N7  UNL     1     -50.976  57.459   1.508  1.00  0.00    -0.126 N 
HETATM   20  C20 UNL     1     -51.777  58.036   2.454  1.00  0.00     0.358 A 
HETATM   21  O9  UNL     1     -52.929  57.613   2.714  1.00  0.00    -0.244 OA
BRANCH  17  22
HETATM   22  N5  UNL     1     -48.681  58.002   0.767  1.00  0.00    -0.137 N 
ATOM     23  H5  UNL     1     -47.992  57.316   1.072  1.00  0.00     0.205 HD
BRANCH  22  24
HETATM   24  N6  UNL     1     -48.437  58.744  -0.406  1.00  0.00    -0.331 N 
ATOM     25  H62 UNL     1     -47.533  59.206  -0.502  1.00  0.00     0.177 HD
ATOM     26  H61 UNL     1     -49.135  58.825  -1.146  1.00  0.00     0.177 HD
ENDBRANCH  22  24
ENDBRANCH  17  22
BRANCH  19  27
HETATM   27  C15 UNL     1     -51.324  56.353   0.685  1.00  0.00     0.184 C 
BRANCH  27  28
HETATM   28  C16 UNL     1     -51.300  56.551  -0.782  1.00  0.00     0.140 C 
HETATM   29  C17 UNL     1     -52.372  55.870  -1.543  1.00  0.00     0.036 C 
HETATM   30  C18 UNL     1     -53.553  56.808  -1.439  1.00  0.00     0.029 C 
HETATM   31  C19 UNL     1     -52.911  58.101  -1.041  1.00  0.00     0.168 C 
HETATM   32  O8  UNL     1     -51.554  57.917  -1.023  1.00  0.00    -0.384 OA
ENDBRANCH  27  28
ENDBRANCH  19  27
ENDBRANCH  14  15
ENDBRANCH  12  14
ENDBRANCH  10  12
ENDBRANCH   5  10
BRANCH   1  33
HETATM   33  O6  UNL     1     -53.316  60.887  11.216  1.00  0.00    -0.286 OA
BRANCH  33  34
HETATM   34  C8  UNL     1     -52.521  61.952  11.594  1.00  0.00     0.300 C 
HETATM   35  O5  UNL     1     -51.467  62.108  10.944  1.00  0.00    -0.259 OA
BRANCH  34  36
HETATM   36  C7  UNL     1     -52.841  62.866  12.670  1.00  0.00     0.105 A 
HETATM   37  C3  UNL     1     -51.974  63.668  13.373  1.00  0.00     0.073 A 
HETATM   38  O1  UNL     1     -52.647  64.369  14.283  1.00  0.00    -0.304 OA
HETATM   39  C4  UNL     1     -53.917  64.076  14.222  1.00  0.00     0.186 A 
HETATM   40  C6  UNL     1     -54.097  63.120  13.207  1.00  0.00     0.125 A 
BRANCH  37  41
HETATM   41  C2  UNL     1     -50.501  63.729  13.139  1.00  0.00     0.062 C 
HETATM   42  C1  UNL     1     -49.815  64.779  13.960  1.00  0.00     0.012 C 
ENDBRANCH  37  41
BRANCH  39  43
HETATM   43  C5  UNL     1     -54.986  64.623  15.045  1.00  0.00     0.237 C 
HETATM   44  O2  UNL     1     -54.984  65.851  15.306  1.00  0.00    -0.642 OA
HETATM   45  O3  UNL     1     -56.011  63.844  15.555  1.00  0.00    -0.642 OA
ENDBRANCH  39  43
BRANCH  40  46
HETATM   46  O4  UNL     1     -55.319  62.596  12.881  1.00  0.00    -0.357 OA
ATOM     47  H4  UNL     1     -55.513  61.667  12.925  1.00  0.00     0.218 HD
ENDBRANCH  40  46
ENDBRANCH  34  36
ENDBRANCH  33  34
ENDBRANCH   1  33
BRANCH   9  48
HETATM   48  O10 UNL     1     -55.758  60.110  11.634  1.00  0.00    -0.383 OA
ATOM     49  H10 UNL     1     -55.101  59.566  12.052  1.00  0.00     0.210 HD
ENDBRANCH   9  48
BRANCH   9  50
HETATM   50  C24 UNL     1     -56.538  61.280   9.717  1.00  0.00     0.148 C 
BRANCH  50  51
HETATM   51  C25 UNL     1     -57.729  61.303  10.583  1.00  0.00     0.238 C 
HETATM   52  O11 UNL     1     -57.855  62.194  11.473  1.00  0.00    -0.272 OA
HETATM   53  N9  UNL     1     -58.779  60.367  10.487  1.00  0.00    -0.277 N 
ATOM     54  H9  UNL     1     -58.705  59.636   9.779  1.00  0.00     0.189 HD
BRANCH  53  55
HETATM   55  N10 UNL     1     -59.912  60.380  11.301  1.00  0.00    -0.343 N 
ATOM     56 2H10 UNL     1     -60.133  61.258  11.772  1.00  0.00     0.176 HD
ATOM     57 1H10 UNL     1     -60.519  59.573  11.446  1.00  0.00     0.176 HD
ENDBRANCH  53  55
ENDBRANCH  50  51
ENDBRANCH   9  50
TORSDOF 18
ENDMDL
